data_image0
_cell_length_a       30.2875
_cell_length_b       30.2875
_cell_length_c       30.2875
_cell_angle_alpha    60
_cell_angle_beta     60
_cell_angle_gamma    60

_symmetry_space_group_name_H-M    P 1
_symmetry_int_tables_number       1

loop_
  _symmetry_equiv_pos_as_xyz
  'x, y, z'

loop_
  _atom_site_label
  _atom_site_occupancy
  _atom_site_fract_x
  _atom_site_fract_y
  _atom_site_fract_z
  _atom_site_thermal_displace_type
  _atom_site_B_iso_or_equiv
  _atom_site_type_symbol
  Cu1      1.0000 0.35039  0.64961  0.00000  Biso   1.000  Cu
  Cu2      1.0000 0.26244  0.73756  0.00000  Biso   1.000  Cu
  Cu3      1.0000 0.64961  0.35039  0.00000  Biso   1.000  Cu
  Cu4      1.0000 0.73756  0.26244  0.00000  Biso   1.000  Cu
  Cu5      1.0000 0.00000  0.00000  0.35039  Biso   1.000  Cu
  Cu6      1.0000 0.00000  0.00000  0.26244  Biso   1.000  Cu
  Cu7      1.0000 1.00000  1.00000  0.64961  Biso   1.000  Cu
  Cu8      1.0000 0.00000  0.00000  0.73756  Biso   1.000  Cu
  Cu9      1.0000 0.35039  0.00000  0.00000  Biso   1.000  Cu
  Cu10     1.0000 0.26244  0.00000  0.00000  Biso   1.000  Cu
  Cu11     1.0000 0.64961  0.00000  0.00000  Biso   1.000  Cu
  Cu12     1.0000 0.73756  0.00000  0.00000  Biso   1.000  Cu
  Cu13     1.0000 0.00000  0.35039  0.64961  Biso   1.000  Cu
  Cu14     1.0000 0.00000  0.26244  0.73756  Biso   1.000  Cu
  Cu15     1.0000 0.00000  0.64961  0.35039  Biso   1.000  Cu
  Cu16     1.0000 0.00000  0.73756  0.26244  Biso   1.000  Cu
  Cu17     1.0000 0.35039  1.00000  0.64961  Biso   1.000  Cu
  Cu18     1.0000 0.26244  0.00000  0.73756  Biso   1.000  Cu
  Cu19     1.0000 0.64961  0.00000  0.35039  Biso   1.000  Cu
  Cu20     1.0000 0.73756  0.00000  0.26244  Biso   1.000  Cu
  Cu21     1.0000 0.00000  0.64961  0.00000  Biso   1.000  Cu
  Cu22     1.0000 0.00000  0.73756  0.00000  Biso   1.000  Cu
  Cu23     1.0000 0.00000  0.35039  0.00000  Biso   1.000  Cu
  Cu24     1.0000 0.00000  0.26244  0.00000  Biso   1.000  Cu
  H1       1.0000 0.30280  0.55860  0.96880  Biso   1.000  H
  H2       1.0000 0.55860  0.30280  0.16980  Biso   1.000  H
  H3       1.0000 0.96880  0.16980  0.30280  Biso   1.000  H
  H4       1.0000 0.16980  0.96880  0.55860  Biso   1.000  H
  H5       1.0000 0.30280  0.96880  0.16980  Biso   1.000  H
  H6       1.0000 0.55860  0.16980  0.96880  Biso   1.000  H
  H7       1.0000 0.96880  0.30280  0.55860  Biso   1.000  H
  H8       1.0000 0.16980  0.55860  0.30280  Biso   1.000  H
  H9       1.0000 0.30280  0.16980  0.55860  Biso   1.000  H
  H10      1.0000 0.55860  0.96880  0.30280  Biso   1.000  H
  H11      1.0000 0.96880  0.55860  0.16980  Biso   1.000  H
  H12      1.0000 0.16980  0.30280  0.96880  Biso   1.000  H
  H13      1.0000 0.44140  0.69720  0.03120  Biso   1.000  H
  H14      1.0000 0.69720  0.44140  0.83020  Biso   1.000  H
  H15      1.0000 0.83020  0.03120  0.69720  Biso   1.000  H
  H16      1.0000 0.03120  0.83020  0.44140  Biso   1.000  H
  H17      1.0000 0.03120  0.69720  0.83020  Biso   1.000  H
  H18      1.0000 0.83020  0.44140  0.03120  Biso   1.000  H
  H19      1.0000 0.69720  0.03120  0.44140  Biso   1.000  H
  H20      1.0000 0.44140  0.83020  0.69720  Biso   1.000  H
  H21      1.0000 0.83020  0.69720  0.44140  Biso   1.000  H
  H22      1.0000 0.03120  0.44140  0.69720  Biso   1.000  H
  H23      1.0000 0.44140  0.03120  0.83020  Biso   1.000  H
  H24      1.0000 0.69720  0.83020  0.03120  Biso   1.000  H
  H25      1.0000 0.69720  0.44140  0.03120  Biso   1.000  H
  H26      1.0000 0.44140  0.69720  0.83020  Biso   1.000  H
  H27      1.0000 0.03120  0.83020  0.69720  Biso   1.000  H
  H28      1.0000 0.83020  0.03120  0.44140  Biso   1.000  H
  H29      1.0000 0.69720  0.03120  0.83020  Biso   1.000  H
  H30      1.0000 0.44140  0.83020  0.03120  Biso   1.000  H
  H31      1.0000 0.03120  0.69720  0.44140  Biso   1.000  H
  H32      1.0000 0.83020  0.44140  0.69720  Biso   1.000  H
  H33      1.0000 0.69720  0.83020  0.44140  Biso   1.000  H
  H34      1.0000 0.44140  0.03120  0.69720  Biso   1.000  H
  H35      1.0000 0.03120  0.44140  0.83020  Biso   1.000  H
  H36      1.0000 0.83020  0.69720  0.03120  Biso   1.000  H
  H37      1.0000 0.55860  0.30280  0.96880  Biso   1.000  H
  H38      1.0000 0.30280  0.55860  0.16980  Biso   1.000  H
  H39      1.0000 0.16980  0.96880  0.30280  Biso   1.000  H
  H40      1.0000 0.96880  0.16980  0.55860  Biso   1.000  H
  H41      1.0000 0.96880  0.30280  0.16980  Biso   1.000  H
  H42      1.0000 0.16980  0.55860  0.96880  Biso   1.000  H
  H43      1.0000 0.30280  0.96880  0.55860  Biso   1.000  H
  H44      1.0000 0.55860  0.16980  0.30280  Biso   1.000  H
  H45      1.0000 0.16980  0.30280  0.55860  Biso   1.000  H
  H46      1.0000 0.96880  0.55860  0.30280  Biso   1.000  H
  H47      1.0000 0.55860  0.96880  0.16980  Biso   1.000  H
  H48      1.0000 0.30280  0.16980  0.96880  Biso   1.000  H
  H49      1.0000 0.17660  0.82340  0.02140  Biso   1.000  H
  H50      1.0000 0.82340  0.17660  0.97860  Biso   1.000  H
  H51      1.0000 0.02140  0.97860  0.17660  Biso   1.000  H
  H52      1.0000 0.97860  0.02140  0.82340  Biso   1.000  H
  H53      1.0000 0.17660  0.02140  0.97860  Biso   1.000  H
  H54      1.0000 0.82340  0.97860  0.02140  Biso   1.000  H
  H55      1.0000 0.02140  0.17660  0.82340  Biso   1.000  H
  H56      1.0000 0.97860  0.82340  0.17660  Biso   1.000  H
  H57      1.0000 0.17660  0.97860  0.82340  Biso   1.000  H
  H58      1.0000 0.82340  0.02140  0.17660  Biso   1.000  H
  H59      1.0000 0.02140  0.82340  0.97860  Biso   1.000  H
  H60      1.0000 0.97860  0.17660  0.02140  Biso   1.000  H
  H61      1.0000 0.17660  0.82340  0.97860  Biso   1.000  H
  H62      1.0000 0.82340  0.17660  0.02140  Biso   1.000  H
  H63      1.0000 0.02140  0.97860  0.82340  Biso   1.000  H
  H64      1.0000 0.97860  0.02140  0.17660  Biso   1.000  H
  H65      1.0000 0.97860  0.82340  0.02140  Biso   1.000  H
  H66      1.0000 0.02140  0.17660  0.97860  Biso   1.000  H
  H67      1.0000 0.82340  0.97860  0.17660  Biso   1.000  H
  H68      1.0000 0.17660  0.02140  0.82340  Biso   1.000  H
  H69      1.0000 0.02140  0.82340  0.17660  Biso   1.000  H
  H70      1.0000 0.97860  0.17660  0.82340  Biso   1.000  H
  H71      1.0000 0.17660  0.97860  0.02140  Biso   1.000  H
  H72      1.0000 0.82340  0.02140  0.97860  Biso   1.000  H
  H73      1.0000 0.16510  0.68610  0.98370  Biso   1.000  H
  H74      1.0000 0.68610  0.16510  0.16510  Biso   1.000  H
  H75      1.0000 0.98370  0.16510  0.16510  Biso   1.000  H
  H76      1.0000 0.16510  0.98370  0.68610  Biso   1.000  H
  H77      1.0000 0.16510  0.98370  0.16510  Biso   1.000  H
  H78      1.0000 0.68610  0.16510  0.98370  Biso   1.000  H
  H79      1.0000 0.98370  0.16510  0.68610  Biso   1.000  H
  H80      1.0000 0.16510  0.68610  0.16510  Biso   1.000  H
  H81      1.0000 0.16510  0.16510  0.68610  Biso   1.000  H
  H82      1.0000 0.68610  0.98370  0.16510  Biso   1.000  H
  H83      1.0000 0.98370  0.68610  0.16510  Biso   1.000  H
  H84      1.0000 0.16510  0.16510  0.98370  Biso   1.000  H
  H85      1.0000 0.31390  0.83490  0.01630  Biso   1.000  H
  H86      1.0000 0.83490  0.31390  0.83490  Biso   1.000  H
  H87      1.0000 0.83490  0.01630  0.83490  Biso   1.000  H
  H88      1.0000 0.01630  0.83490  0.31390  Biso   1.000  H
  H89      1.0000 0.01630  0.83490  0.83490  Biso   1.000  H
  H90      1.0000 0.83490  0.31390  0.01630  Biso   1.000  H
  H91      1.0000 0.83490  0.01630  0.31390  Biso   1.000  H
  H92      1.0000 0.31390  0.83490  0.83490  Biso   1.000  H
  H93      1.0000 0.83490  0.83490  0.31390  Biso   1.000  H
  H94      1.0000 0.01630  0.31390  0.83490  Biso   1.000  H
  H95      1.0000 0.31390  0.01630  0.83490  Biso   1.000  H
  H96      1.0000 0.83490  0.83490  0.01630  Biso   1.000  H
  H97      1.0000 0.26140  0.39460  0.94940  Biso   1.000  H
  H98      1.0000 0.39460  0.26140  0.39460  Biso   1.000  H
  H99      1.0000 0.94940  0.39460  0.26140  Biso   1.000  H
  H100     1.0000 0.39460  0.94940  0.39460  Biso   1.000  H
  H101     1.0000 0.26140  0.94940  0.39460  Biso   1.000  H
  H102     1.0000 0.39460  0.39460  0.94940  Biso   1.000  H
  H103     1.0000 0.94940  0.26140  0.39460  Biso   1.000  H
  H104     1.0000 0.39460  0.39460  0.26140  Biso   1.000  H
  H105     1.0000 0.26140  0.39460  0.39460  Biso   1.000  H
  H106     1.0000 0.39460  0.94940  0.26140  Biso   1.000  H
  H107     1.0000 0.94940  0.39460  0.39460  Biso   1.000  H
  H108     1.0000 0.39460  0.26140  0.94940  Biso   1.000  H
  H109     1.0000 0.60540  0.73860  0.05060  Biso   1.000  H
  H110     1.0000 0.73860  0.60540  0.60540  Biso   1.000  H
  H111     1.0000 0.60540  0.05060  0.73860  Biso   1.000  H
  H112     1.0000 0.05060  0.60540  0.60540  Biso   1.000  H
  H113     1.0000 0.05060  0.73860  0.60540  Biso   1.000  H
  H114     1.0000 0.60540  0.60540  0.05060  Biso   1.000  H
  H115     1.0000 0.73860  0.05060  0.60540  Biso   1.000  H
  H116     1.0000 0.60540  0.60540  0.73860  Biso   1.000  H
  H117     1.0000 0.60540  0.73860  0.60540  Biso   1.000  H
  H118     1.0000 0.05060  0.60540  0.73860  Biso   1.000  H
  H119     1.0000 0.60540  0.05060  0.60540  Biso   1.000  H
  H120     1.0000 0.73860  0.60540  0.05060  Biso   1.000  H
  C1       1.0000 0.26402  0.65160  0.98414  Biso   1.000  C
  C2       1.0000 0.23808  0.62646  0.97706  Biso   1.000  C
  C3       1.0000 0.26613  0.57621  0.97039  Biso   1.000  C
  C4       1.0000 0.65160  0.26402  0.10024  Biso   1.000  C
  C5       1.0000 0.62646  0.23808  0.15840  Biso   1.000  C
  C6       1.0000 0.57621  0.26613  0.18727  Biso   1.000  C
  C7       1.0000 0.98414  0.10024  0.26402  Biso   1.000  C
  C8       1.0000 0.97706  0.15840  0.23808  Biso   1.000  C
  C9       1.0000 0.97039  0.18727  0.26613  Biso   1.000  C
  C10      1.0000 0.10024  0.98414  0.65160  Biso   1.000  C
  C11      1.0000 0.15840  0.97706  0.62646  Biso   1.000  C
  C12      1.0000 0.18727  0.97039  0.57621  Biso   1.000  C
  C13      1.0000 0.26402  0.98414  0.10024  Biso   1.000  C
  C14      1.0000 0.23808  0.97706  0.15840  Biso   1.000  C
  C15      1.0000 0.26613  0.97039  0.18727  Biso   1.000  C
  C16      1.0000 0.65160  0.10024  0.98414  Biso   1.000  C
  C17      1.0000 0.62646  0.15840  0.97706  Biso   1.000  C
  C18      1.0000 0.57621  0.18727  0.97039  Biso   1.000  C
  C19      1.0000 0.98414  0.26402  0.65160  Biso   1.000  C
  C20      1.0000 0.97706  0.23808  0.62646  Biso   1.000  C
  C21      1.0000 0.97039  0.26613  0.57621  Biso   1.000  C
  C22      1.0000 0.10024  0.65160  0.26402  Biso   1.000  C
  C23      1.0000 0.15840  0.62646  0.23808  Biso   1.000  C
  C24      1.0000 0.18727  0.57621  0.26613  Biso   1.000  C
  C25      1.0000 0.26402  0.10024  0.65160  Biso   1.000  C
  C26      1.0000 0.23808  0.15840  0.62646  Biso   1.000  C
  C27      1.0000 0.26613  0.18727  0.57621  Biso   1.000  C
  C28      1.0000 0.65160  0.98414  0.26402  Biso   1.000  C
  C29      1.0000 0.62646  0.97706  0.23808  Biso   1.000  C
  C30      1.0000 0.57621  0.97039  0.26613  Biso   1.000  C
  C31      1.0000 0.98414  0.65160  0.10024  Biso   1.000  C
  C32      1.0000 0.97706  0.62646  0.15840  Biso   1.000  C
  C33      1.0000 0.97039  0.57621  0.18727  Biso   1.000  C
  C34      1.0000 0.10024  0.26402  0.98414  Biso   1.000  C
  C35      1.0000 0.15840  0.23808  0.97706  Biso   1.000  C
  C36      1.0000 0.18727  0.26613  0.97039  Biso   1.000  C
  C37      1.0000 0.34840  0.73598  0.01586  Biso   1.000  C
  C38      1.0000 0.37354  0.76192  0.02294  Biso   1.000  C
  C39      1.0000 0.42379  0.73387  0.02961  Biso   1.000  C
  C40      1.0000 0.73598  0.34840  0.89976  Biso   1.000  C
  C41      1.0000 0.76192  0.37354  0.84160  Biso   1.000  C
  C42      1.0000 0.73387  0.42379  0.81273  Biso   1.000  C
  C43      1.0000 0.89976  0.01586  0.73598  Biso   1.000  C
  C44      1.0000 0.84160  0.02294  0.76192  Biso   1.000  C
  C45      1.0000 0.81273  0.02961  0.73387  Biso   1.000  C
  C46      1.0000 0.01586  0.89976  0.34840  Biso   1.000  C
  C47      1.0000 0.02294  0.84160  0.37354  Biso   1.000  C
  C48      1.0000 0.02961  0.81273  0.42379  Biso   1.000  C
  C49      1.0000 0.01586  0.73598  0.89976  Biso   1.000  C
  C50      1.0000 0.02294  0.76192  0.84160  Biso   1.000  C
  C51      1.0000 0.02961  0.73387  0.81273  Biso   1.000  C
  C52      1.0000 0.89976  0.34840  0.01586  Biso   1.000  C
  C53      1.0000 0.84160  0.37354  0.02294  Biso   1.000  C
  C54      1.0000 0.81273  0.42379  0.02961  Biso   1.000  C
  C55      1.0000 0.73598  0.01586  0.34840  Biso   1.000  C
  C56      1.0000 0.76192  0.02294  0.37354  Biso   1.000  C
  C57      1.0000 0.73387  0.02961  0.42379  Biso   1.000  C
  C58      1.0000 0.34840  0.89976  0.73598  Biso   1.000  C
  C59      1.0000 0.37354  0.84160  0.76192  Biso   1.000  C
  C60      1.0000 0.42379  0.81273  0.73387  Biso   1.000  C
  C61      1.0000 0.89976  0.73598  0.34840  Biso   1.000  C
  C62      1.0000 0.84160  0.76192  0.37354  Biso   1.000  C
  C63      1.0000 0.81273  0.73387  0.42379  Biso   1.000  C
  C64      1.0000 0.01586  0.34840  0.73598  Biso   1.000  C
  C65      1.0000 0.02294  0.37354  0.76192  Biso   1.000  C
  C66      1.0000 0.02961  0.42379  0.73387  Biso   1.000  C
  C67      1.0000 0.34840  0.01586  0.89976  Biso   1.000  C
  C68      1.0000 0.37354  0.02294  0.84160  Biso   1.000  C
  C69      1.0000 0.42379  0.02961  0.81273  Biso   1.000  C
  C70      1.0000 0.73598  0.89976  0.01586  Biso   1.000  C
  C71      1.0000 0.76192  0.84160  0.02294  Biso   1.000  C
  C72      1.0000 0.73387  0.81273  0.02961  Biso   1.000  C
  C73      1.0000 0.73598  0.34840  0.01586  Biso   1.000  C
  C74      1.0000 0.76192  0.37354  0.02294  Biso   1.000  C
  C75      1.0000 0.73387  0.42379  0.02961  Biso   1.000  C
  C76      1.0000 0.34840  0.73598  0.89976  Biso   1.000  C
  C77      1.0000 0.37354  0.76192  0.84160  Biso   1.000  C
  C78      1.0000 0.42379  0.73387  0.81273  Biso   1.000  C
  C79      1.0000 0.01586  0.89976  0.73598  Biso   1.000  C
  C80      1.0000 0.02294  0.84160  0.76192  Biso   1.000  C
  C81      1.0000 0.02961  0.81273  0.73387  Biso   1.000  C
  C82      1.0000 0.89976  0.01586  0.34840  Biso   1.000  C
  C83      1.0000 0.84160  0.02294  0.37354  Biso   1.000  C
  C84      1.0000 0.81273  0.02961  0.42379  Biso   1.000  C
  C85      1.0000 0.73598  0.01586  0.89976  Biso   1.000  C
  C86      1.0000 0.76192  0.02294  0.84160  Biso   1.000  C
  C87      1.0000 0.73387  0.02961  0.81273  Biso   1.000  C
  C88      1.0000 0.34840  0.89976  0.01586  Biso   1.000  C
  C89      1.0000 0.37354  0.84160  0.02294  Biso   1.000  C
  C90      1.0000 0.42379  0.81273  0.02961  Biso   1.000  C
  C91      1.0000 0.01586  0.73598  0.34840  Biso   1.000  C
  C92      1.0000 0.02294  0.76192  0.37354  Biso   1.000  C
  C93      1.0000 0.02961  0.73387  0.42379  Biso   1.000  C
  C94      1.0000 0.89976  0.34840  0.73598  Biso   1.000  C
  C95      1.0000 0.84160  0.37354  0.76192  Biso   1.000  C
  C96      1.0000 0.81273  0.42379  0.73387  Biso   1.000  C
  C97      1.0000 0.73598  0.89976  0.34840  Biso   1.000  C
  C98      1.0000 0.76192  0.84160  0.37354  Biso   1.000  C
  C99      1.0000 0.73387  0.81273  0.42379  Biso   1.000  C
  C100     1.0000 0.34840  0.01586  0.73598  Biso   1.000  C
  C101     1.0000 0.37354  0.02294  0.76192  Biso   1.000  C
  C102     1.0000 0.42379  0.02961  0.73387  Biso   1.000  C
  C103     1.0000 0.01586  0.34840  0.89976  Biso   1.000  C
  C104     1.0000 0.02294  0.37354  0.84160  Biso   1.000  C
  C105     1.0000 0.02961  0.42379  0.81273  Biso   1.000  C
  C106     1.0000 0.89976  0.73598  0.01586  Biso   1.000  C
  C107     1.0000 0.84160  0.76192  0.02294  Biso   1.000  C
  C108     1.0000 0.81273  0.73387  0.02961  Biso   1.000  C
  C109     1.0000 0.65160  0.26402  0.98414  Biso   1.000  C
  C110     1.0000 0.62646  0.23808  0.97706  Biso   1.000  C
  C111     1.0000 0.57621  0.26613  0.97039  Biso   1.000  C
  C112     1.0000 0.26402  0.65160  0.10024  Biso   1.000  C
  C113     1.0000 0.23808  0.62646  0.15840  Biso   1.000  C
  C114     1.0000 0.26613  0.57621  0.18727  Biso   1.000  C
  C115     1.0000 0.10024  0.98414  0.26402  Biso   1.000  C
  C116     1.0000 0.15840  0.97706  0.23808  Biso   1.000  C
  C117     1.0000 0.18727  0.97039  0.26613  Biso   1.000  C
  C118     1.0000 0.98414  0.10024  0.65160  Biso   1.000  C
  C119     1.0000 0.97706  0.15840  0.62646  Biso   1.000  C
  C120     1.0000 0.97039  0.18727  0.57621  Biso   1.000  C
  C121     1.0000 0.98414  0.26402  0.10024  Biso   1.000  C
  C122     1.0000 0.97706  0.23808  0.15840  Biso   1.000  C
  C123     1.0000 0.97039  0.26613  0.18727  Biso   1.000  C
  C124     1.0000 0.10024  0.65160  0.98414  Biso   1.000  C
  C125     1.0000 0.15840  0.62646  0.97706  Biso   1.000  C
  C126     1.0000 0.18727  0.57621  0.97039  Biso   1.000  C
  C127     1.0000 0.26402  0.98414  0.65160  Biso   1.000  C
  C128     1.0000 0.23808  0.97706  0.62646  Biso   1.000  C
  C129     1.0000 0.26613  0.97039  0.57621  Biso   1.000  C
  C130     1.0000 0.65160  0.10024  0.26402  Biso   1.000  C
  C131     1.0000 0.62646  0.15840  0.23808  Biso   1.000  C
  C132     1.0000 0.57621  0.18727  0.26613  Biso   1.000  C
  C133     1.0000 0.10024  0.26402  0.65160  Biso   1.000  C
  C134     1.0000 0.15840  0.23808  0.62646  Biso   1.000  C
  C135     1.0000 0.18727  0.26613  0.57621  Biso   1.000  C
  C136     1.0000 0.98414  0.65160  0.26402  Biso   1.000  C
  C137     1.0000 0.97706  0.62646  0.23808  Biso   1.000  C
  C138     1.0000 0.97039  0.57621  0.26613  Biso   1.000  C
  C139     1.0000 0.65160  0.98414  0.10024  Biso   1.000  C
  C140     1.0000 0.62646  0.97706  0.15840  Biso   1.000  C
  C141     1.0000 0.57621  0.97039  0.18727  Biso   1.000  C
  C142     1.0000 0.26402  0.10024  0.98414  Biso   1.000  C
  C143     1.0000 0.23808  0.15840  0.97706  Biso   1.000  C
  C144     1.0000 0.26613  0.18727  0.97039  Biso   1.000  C
  C145     1.0000 0.24130  0.55134  0.96606  Biso   1.000  C
  C146     1.0000 0.18439  0.65139  0.97983  Biso   1.000  C
  C147     1.0000 0.27210  0.49890  0.95690  Biso   1.000  C
  C148     1.0000 0.29460  0.45560  0.95520  Biso   1.000  C
  C149     1.0000 0.32240  0.40180  0.95340  Biso   1.000  C
  C150     1.0000 0.55134  0.24130  0.24130  Biso   1.000  C
  C151     1.0000 0.65139  0.18439  0.18439  Biso   1.000  C
  C152     1.0000 0.49890  0.27210  0.27210  Biso   1.000  C
  C153     1.0000 0.45560  0.29460  0.29460  Biso   1.000  C
  C154     1.0000 0.40180  0.32240  0.32240  Biso   1.000  C
  C155     1.0000 0.96606  0.24130  0.24130  Biso   1.000  C
  C156     1.0000 0.97983  0.18439  0.18439  Biso   1.000  C
  C157     1.0000 0.95690  0.27210  0.27210  Biso   1.000  C
  C158     1.0000 0.95520  0.29460  0.29460  Biso   1.000  C
  C159     1.0000 0.95340  0.32240  0.32240  Biso   1.000  C
  C160     1.0000 0.24130  0.96606  0.55134  Biso   1.000  C
  C161     1.0000 0.18439  0.97983  0.65139  Biso   1.000  C
  C162     1.0000 0.27210  0.95690  0.49890  Biso   1.000  C
  C163     1.0000 0.29460  0.95520  0.45560  Biso   1.000  C
  C164     1.0000 0.32240  0.95340  0.40180  Biso   1.000  C
  C165     1.0000 0.24130  0.96606  0.24130  Biso   1.000  C
  C166     1.0000 0.18439  0.97983  0.18439  Biso   1.000  C
  C167     1.0000 0.27210  0.95690  0.27210  Biso   1.000  C
  C168     1.0000 0.29460  0.95520  0.29460  Biso   1.000  C
  C169     1.0000 0.32240  0.95340  0.32240  Biso   1.000  C
  C170     1.0000 0.55134  0.24130  0.96606  Biso   1.000  C
  C171     1.0000 0.65139  0.18439  0.97983  Biso   1.000  C
  C172     1.0000 0.49890  0.27210  0.95690  Biso   1.000  C
  C173     1.0000 0.45560  0.29460  0.95520  Biso   1.000  C
  C174     1.0000 0.40180  0.32240  0.95340  Biso   1.000  C
  C175     1.0000 0.96606  0.24130  0.55134  Biso   1.000  C
  C176     1.0000 0.97983  0.18439  0.65139  Biso   1.000  C
  C177     1.0000 0.95690  0.27210  0.49890  Biso   1.000  C
  C178     1.0000 0.95520  0.29460  0.45560  Biso   1.000  C
  C179     1.0000 0.95340  0.32240  0.40180  Biso   1.000  C
  C180     1.0000 0.24130  0.55134  0.24130  Biso   1.000  C
  C181     1.0000 0.18439  0.65139  0.18439  Biso   1.000  C
  C182     1.0000 0.27210  0.49890  0.27210  Biso   1.000  C
  C183     1.0000 0.29460  0.45560  0.29460  Biso   1.000  C
  C184     1.0000 0.32240  0.40180  0.32240  Biso   1.000  C
  C185     1.0000 0.24130  0.24130  0.55134  Biso   1.000  C
  C186     1.0000 0.18439  0.18439  0.65139  Biso   1.000  C
  C187     1.0000 0.27210  0.27210  0.49890  Biso   1.000  C
  C188     1.0000 0.29460  0.29460  0.45560  Biso   1.000  C
  C189     1.0000 0.32240  0.32240  0.40180  Biso   1.000  C
  C190     1.0000 0.55134  0.96606  0.24130  Biso   1.000  C
  C191     1.0000 0.65139  0.97983  0.18439  Biso   1.000  C
  C192     1.0000 0.49890  0.95690  0.27210  Biso   1.000  C
  C193     1.0000 0.45560  0.95520  0.29460  Biso   1.000  C
  C194     1.0000 0.40180  0.95340  0.32240  Biso   1.000  C
  C195     1.0000 0.96606  0.55134  0.24130  Biso   1.000  C
  C196     1.0000 0.97983  0.65139  0.18439  Biso   1.000  C
  C197     1.0000 0.95690  0.49890  0.27210  Biso   1.000  C
  C198     1.0000 0.95520  0.45560  0.29460  Biso   1.000  C
  C199     1.0000 0.95340  0.40180  0.32240  Biso   1.000  C
  C200     1.0000 0.24130  0.24130  0.96606  Biso   1.000  C
  C201     1.0000 0.18439  0.18439  0.97983  Biso   1.000  C
  C202     1.0000 0.27210  0.27210  0.95690  Biso   1.000  C
  C203     1.0000 0.29460  0.29460  0.95520  Biso   1.000  C
  C204     1.0000 0.32240  0.32240  0.95340  Biso   1.000  C
  C205     1.0000 0.44866  0.75870  0.03394  Biso   1.000  C
  C206     1.0000 0.34861  0.81561  0.02017  Biso   1.000  C
  C207     1.0000 0.50110  0.72790  0.04310  Biso   1.000  C
  C208     1.0000 0.54440  0.70540  0.04480  Biso   1.000  C
  C209     1.0000 0.59820  0.67760  0.04660  Biso   1.000  C
  C210     1.0000 0.75870  0.44866  0.75870  Biso   1.000  C
  C211     1.0000 0.81561  0.34861  0.81561  Biso   1.000  C
  C212     1.0000 0.72790  0.50110  0.72790  Biso   1.000  C
  C213     1.0000 0.70540  0.54440  0.70540  Biso   1.000  C
  C214     1.0000 0.67760  0.59820  0.67760  Biso   1.000  C
  C215     1.0000 0.75870  0.03394  0.75870  Biso   1.000  C
  C216     1.0000 0.81561  0.02017  0.81561  Biso   1.000  C
  C217     1.0000 0.72790  0.04310  0.72790  Biso   1.000  C
  C218     1.0000 0.70540  0.04480  0.70540  Biso   1.000  C
  C219     1.0000 0.67760  0.04660  0.67760  Biso   1.000  C
  C220     1.0000 0.03394  0.75870  0.44866  Biso   1.000  C
  C221     1.0000 0.02017  0.81561  0.34861  Biso   1.000  C
  C222     1.0000 0.04310  0.72790  0.50110  Biso   1.000  C
  C223     1.0000 0.04480  0.70540  0.54440  Biso   1.000  C
  C224     1.0000 0.04660  0.67760  0.59820  Biso   1.000  C
  C225     1.0000 0.03394  0.75870  0.75870  Biso   1.000  C
  C226     1.0000 0.02017  0.81561  0.81561  Biso   1.000  C
  C227     1.0000 0.04310  0.72790  0.72790  Biso   1.000  C
  C228     1.0000 0.04480  0.70540  0.70540  Biso   1.000  C
  C229     1.0000 0.04660  0.67760  0.67760  Biso   1.000  C
  C230     1.0000 0.75870  0.44866  0.03394  Biso   1.000  C
  C231     1.0000 0.81561  0.34861  0.02017  Biso   1.000  C
  C232     1.0000 0.72790  0.50110  0.04310  Biso   1.000  C
  C233     1.0000 0.70540  0.54440  0.04480  Biso   1.000  C
  C234     1.0000 0.67760  0.59820  0.04660  Biso   1.000  C
  C235     1.0000 0.75870  0.03394  0.44866  Biso   1.000  C
  C236     1.0000 0.81561  0.02017  0.34861  Biso   1.000  C
  C237     1.0000 0.72790  0.04310  0.50110  Biso   1.000  C
  C238     1.0000 0.70540  0.04480  0.54440  Biso   1.000  C
  C239     1.0000 0.67760  0.04660  0.59820  Biso   1.000  C
  C240     1.0000 0.44866  0.75870  0.75870  Biso   1.000  C
  C241     1.0000 0.34861  0.81561  0.81561  Biso   1.000  C
  C242     1.0000 0.50110  0.72790  0.72790  Biso   1.000  C
  C243     1.0000 0.54440  0.70540  0.70540  Biso   1.000  C
  C244     1.0000 0.59820  0.67760  0.67760  Biso   1.000  C
  C245     1.0000 0.75870  0.75870  0.44866  Biso   1.000  C
  C246     1.0000 0.81561  0.81561  0.34861  Biso   1.000  C
  C247     1.0000 0.72790  0.72790  0.50110  Biso   1.000  C
  C248     1.0000 0.70540  0.70540  0.54440  Biso   1.000  C
  C249     1.0000 0.67760  0.67760  0.59820  Biso   1.000  C
  C250     1.0000 0.03394  0.44866  0.75870  Biso   1.000  C
  C251     1.0000 0.02017  0.34861  0.81561  Biso   1.000  C
  C252     1.0000 0.04310  0.50110  0.72790  Biso   1.000  C
  C253     1.0000 0.04480  0.54440  0.70540  Biso   1.000  C
  C254     1.0000 0.04660  0.59820  0.67760  Biso   1.000  C
  C255     1.0000 0.44866  0.03394  0.75870  Biso   1.000  C
  C256     1.0000 0.34861  0.02017  0.81561  Biso   1.000  C
  C257     1.0000 0.50110  0.04310  0.72790  Biso   1.000  C
  C258     1.0000 0.54440  0.04480  0.70540  Biso   1.000  C
  C259     1.0000 0.59820  0.04660  0.67760  Biso   1.000  C
  C260     1.0000 0.75870  0.75870  0.03394  Biso   1.000  C
  C261     1.0000 0.81561  0.81561  0.02017  Biso   1.000  C
  C262     1.0000 0.72790  0.72790  0.04310  Biso   1.000  C
  C263     1.0000 0.70540  0.70540  0.04480  Biso   1.000  C
  C264     1.0000 0.67760  0.67760  0.04660  Biso   1.000  C
  C265     1.0000 0.29690  0.37570  0.95170  Biso   1.000  C
  C266     1.0000 0.37570  0.29690  0.37570  Biso   1.000  C
  C267     1.0000 0.95170  0.37570  0.29690  Biso   1.000  C
  C268     1.0000 0.37570  0.95170  0.37570  Biso   1.000  C
  C269     1.0000 0.29690  0.95170  0.37570  Biso   1.000  C
  C270     1.0000 0.37570  0.37570  0.95170  Biso   1.000  C
  C271     1.0000 0.95170  0.29690  0.37570  Biso   1.000  C
  C272     1.0000 0.37570  0.37570  0.29690  Biso   1.000  C
  C273     1.0000 0.29690  0.37570  0.37570  Biso   1.000  C
  C274     1.0000 0.37570  0.95170  0.29690  Biso   1.000  C
  C275     1.0000 0.95170  0.37570  0.37570  Biso   1.000  C
  C276     1.0000 0.37570  0.29690  0.95170  Biso   1.000  C
  C277     1.0000 0.62430  0.70310  0.04830  Biso   1.000  C
  C278     1.0000 0.70310  0.62430  0.62430  Biso   1.000  C
  C279     1.0000 0.62430  0.04830  0.70310  Biso   1.000  C
  C280     1.0000 0.04830  0.62430  0.62430  Biso   1.000  C
  C281     1.0000 0.04830  0.70310  0.62430  Biso   1.000  C
  C282     1.0000 0.62430  0.62430  0.04830  Biso   1.000  C
  C283     1.0000 0.70310  0.04830  0.62430  Biso   1.000  C
  C284     1.0000 0.62430  0.62430  0.70310  Biso   1.000  C
  C285     1.0000 0.62430  0.70310  0.62430  Biso   1.000  C
  C286     1.0000 0.04830  0.62430  0.70310  Biso   1.000  C
  C287     1.0000 0.62430  0.04830  0.62430  Biso   1.000  C
  C288     1.0000 0.70310  0.62430  0.04830  Biso   1.000  C
  O1       1.0000 0.31132  0.62450  0.98690  Biso   1.000  O
  O2       1.0000 0.23686  0.69914  0.98714  Biso   1.000  O
  O3       1.0000 0.62450  0.31132  0.07728  Biso   1.000  O
  O4       1.0000 0.69914  0.23686  0.07686  Biso   1.000  O
  O5       1.0000 0.98690  0.07728  0.31132  Biso   1.000  O
  O6       1.0000 0.98714  0.07686  0.23686  Biso   1.000  O
  O7       1.0000 0.07728  0.98690  0.62450  Biso   1.000  O
  O8       1.0000 0.07686  0.98714  0.69914  Biso   1.000  O
  O9       1.0000 0.31132  0.98690  0.07728  Biso   1.000  O
  O10      1.0000 0.23686  0.98714  0.07686  Biso   1.000  O
  O11      1.0000 0.62450  0.07728  0.98690  Biso   1.000  O
  O12      1.0000 0.69914  0.07686  0.98714  Biso   1.000  O
  O13      1.0000 0.98690  0.31132  0.62450  Biso   1.000  O
  O14      1.0000 0.98714  0.23686  0.69914  Biso   1.000  O
  O15      1.0000 0.07728  0.62450  0.31132  Biso   1.000  O
  O16      1.0000 0.07686  0.69914  0.23686  Biso   1.000  O
  O17      1.0000 0.31132  0.07728  0.62450  Biso   1.000  O
  O18      1.0000 0.23686  0.07686  0.69914  Biso   1.000  O
  O19      1.0000 0.62450  0.98690  0.31132  Biso   1.000  O
  O20      1.0000 0.69914  0.98714  0.23686  Biso   1.000  O
  O21      1.0000 0.98690  0.62450  0.07728  Biso   1.000  O
  O22      1.0000 0.98714  0.69914  0.07686  Biso   1.000  O
  O23      1.0000 0.07728  0.31132  0.98690  Biso   1.000  O
  O24      1.0000 0.07686  0.23686  0.98714  Biso   1.000  O
  O25      1.0000 0.37550  0.68868  0.01310  Biso   1.000  O
  O26      1.0000 0.30086  0.76314  0.01286  Biso   1.000  O
  O27      1.0000 0.68868  0.37550  0.92272  Biso   1.000  O
  O28      1.0000 0.76314  0.30086  0.92314  Biso   1.000  O
  O29      1.0000 0.92272  0.01310  0.68868  Biso   1.000  O
  O30      1.0000 0.92314  0.01286  0.76314  Biso   1.000  O
  O31      1.0000 0.01310  0.92272  0.37550  Biso   1.000  O
  O32      1.0000 0.01286  0.92314  0.30086  Biso   1.000  O
  O33      1.0000 0.01310  0.68868  0.92272  Biso   1.000  O
  O34      1.0000 0.01286  0.76314  0.92314  Biso   1.000  O
  O35      1.0000 0.92272  0.37550  0.01310  Biso   1.000  O
  O36      1.0000 0.92314  0.30086  0.01286  Biso   1.000  O
  O37      1.0000 0.68868  0.01310  0.37550  Biso   1.000  O
  O38      1.0000 0.76314  0.01286  0.30086  Biso   1.000  O
  O39      1.0000 0.37550  0.92272  0.68868  Biso   1.000  O
  O40      1.0000 0.30086  0.92314  0.76314  Biso   1.000  O
  O41      1.0000 0.92272  0.68868  0.37550  Biso   1.000  O
  O42      1.0000 0.92314  0.76314  0.30086  Biso   1.000  O
  O43      1.0000 0.01310  0.37550  0.68868  Biso   1.000  O
  O44      1.0000 0.01286  0.30086  0.76314  Biso   1.000  O
  O45      1.0000 0.37550  0.01310  0.92272  Biso   1.000  O
  O46      1.0000 0.30086  0.01286  0.92314  Biso   1.000  O
  O47      1.0000 0.68868  0.92272  0.01310  Biso   1.000  O
  O48      1.0000 0.76314  0.92314  0.01286  Biso   1.000  O
  O49      1.0000 0.68868  0.37550  0.01310  Biso   1.000  O
  O50      1.0000 0.76314  0.30086  0.01286  Biso   1.000  O
  O51      1.0000 0.37550  0.68868  0.92272  Biso   1.000  O
  O52      1.0000 0.30086  0.76314  0.92314  Biso   1.000  O
  O53      1.0000 0.01310  0.92272  0.68868  Biso   1.000  O
  O54      1.0000 0.01286  0.92314  0.76314  Biso   1.000  O
  O55      1.0000 0.92272  0.01310  0.37550  Biso   1.000  O
  O56      1.0000 0.92314  0.01286  0.30086  Biso   1.000  O
  O57      1.0000 0.68868  0.01310  0.92272  Biso   1.000  O
  O58      1.0000 0.76314  0.01286  0.92314  Biso   1.000  O
  O59      1.0000 0.37550  0.92272  0.01310  Biso   1.000  O
  O60      1.0000 0.30086  0.92314  0.01286  Biso   1.000  O
  O61      1.0000 0.01310  0.68868  0.37550  Biso   1.000  O
  O62      1.0000 0.01286  0.76314  0.30086  Biso   1.000  O
  O63      1.0000 0.92272  0.37550  0.68868  Biso   1.000  O
  O64      1.0000 0.92314  0.30086  0.76314  Biso   1.000  O
  O65      1.0000 0.68868  0.92272  0.37550  Biso   1.000  O
  O66      1.0000 0.76314  0.92314  0.30086  Biso   1.000  O
  O67      1.0000 0.37550  0.01310  0.68868  Biso   1.000  O
  O68      1.0000 0.30086  0.01286  0.76314  Biso   1.000  O
  O69      1.0000 0.01310  0.37550  0.92272  Biso   1.000  O
  O70      1.0000 0.01286  0.30086  0.92314  Biso   1.000  O
  O71      1.0000 0.92272  0.68868  0.01310  Biso   1.000  O
  O72      1.0000 0.92314  0.76314  0.01286  Biso   1.000  O
  O73      1.0000 0.62450  0.31132  0.98690  Biso   1.000  O
  O74      1.0000 0.69914  0.23686  0.98714  Biso   1.000  O
  O75      1.0000 0.31132  0.62450  0.07728  Biso   1.000  O
  O76      1.0000 0.23686  0.69914  0.07686  Biso   1.000  O
  O77      1.0000 0.07728  0.98690  0.31132  Biso   1.000  O
  O78      1.0000 0.07686  0.98714  0.23686  Biso   1.000  O
  O79      1.0000 0.98690  0.07728  0.62450  Biso   1.000  O
  O80      1.0000 0.98714  0.07686  0.69914  Biso   1.000  O
  O81      1.0000 0.98690  0.31132  0.07728  Biso   1.000  O
  O82      1.0000 0.98714  0.23686  0.07686  Biso   1.000  O
  O83      1.0000 0.07728  0.62450  0.98690  Biso   1.000  O
  O84      1.0000 0.07686  0.69914  0.98714  Biso   1.000  O
  O85      1.0000 0.31132  0.98690  0.62450  Biso   1.000  O
  O86      1.0000 0.23686  0.98714  0.69914  Biso   1.000  O
  O87      1.0000 0.62450  0.07728  0.31132  Biso   1.000  O
  O88      1.0000 0.69914  0.07686  0.23686  Biso   1.000  O
  O89      1.0000 0.07728  0.31132  0.62450  Biso   1.000  O
  O90      1.0000 0.07686  0.23686  0.69914  Biso   1.000  O
  O91      1.0000 0.98690  0.62450  0.31132  Biso   1.000  O
  O92      1.0000 0.98714  0.69914  0.23686  Biso   1.000  O
  O93      1.0000 0.62450  0.98690  0.07728  Biso   1.000  O
  O94      1.0000 0.69914  0.98714  0.07686  Biso   1.000  O
  O95      1.0000 0.31132  0.07728  0.98690  Biso   1.000  O
  O96      1.0000 0.23686  0.07686  0.98714  Biso   1.000  O
  O97      1.0000 0.42140  0.57860  0.00000  Biso   1.000  O
  O98      1.0000 0.19198  0.80802  0.00000  Biso   1.000  O
  O99      1.0000 0.57860  0.42140  0.00000  Biso   1.000  O
  O100     1.0000 0.80802  0.19198  0.00000  Biso   1.000  O
  O101     1.0000 0.00000  0.00000  0.42140  Biso   1.000  O
  O102     1.0000 0.00000  0.00000  0.19198  Biso   1.000  O
  O103     1.0000 0.00000  0.00000  0.57860  Biso   1.000  O
  O104     1.0000 0.00000  0.00000  0.80802  Biso   1.000  O
  O105     1.0000 0.42140  0.00000  0.00000  Biso   1.000  O
  O106     1.0000 0.19198  0.00000  0.00000  Biso   1.000  O
  O107     1.0000 0.57860  0.00000  0.00000  Biso   1.000  O
  O108     1.0000 0.80802  0.00000  0.00000  Biso   1.000  O
  O109     1.0000 0.00000  0.42140  0.57860  Biso   1.000  O
  O110     1.0000 0.00000  0.19198  0.80802  Biso   1.000  O
  O111     1.0000 0.00000  0.57860  0.42140  Biso   1.000  O
  O112     1.0000 0.00000  0.80802  0.19198  Biso   1.000  O
  O113     1.0000 0.42140  0.00000  0.57860  Biso   1.000  O
  O114     1.0000 0.19198  0.00000  0.80802  Biso   1.000  O
  O115     1.0000 0.57860  0.00000  0.42140  Biso   1.000  O
  O116     1.0000 0.80802  0.00000  0.19198  Biso   1.000  O
  O117     1.0000 0.00000  0.57860  0.00000  Biso   1.000  O
  O118     1.0000 0.00000  0.80802  0.00000  Biso   1.000  O
  O119     1.0000 1.00000  0.42140  0.00000  Biso   1.000  O
  O120     1.0000 0.00000  0.19198  0.00000  Biso   1.000  O
