data_image0
_cell_length_a       8.5627
_cell_length_b       14.078
_cell_length_c       20.297
_cell_angle_alpha    88.568
_cell_angle_beta     86.325
_cell_angle_gamma    81.382

_symmetry_space_group_name_H-M    "P 1"
_symmetry_int_tables_number       1

loop_
  _symmetry_equiv_pos_as_xyz
  'x, y, z'

loop_
  _atom_site_label
  _atom_site_occupancy
  _atom_site_fract_x
  _atom_site_fract_y
  _atom_site_fract_z
  _atom_site_thermal_displace_type
  _atom_site_B_iso_or_equiv
  _atom_site_type_symbol
  Tb1      1.0000 0.27365  0.76272  0.98096  Biso   1.000  Tb
  Tb2      1.0000 0.23516  0.48561  0.24797  Biso   1.000  Tb
  O1       1.0000 0.21270  0.67510  0.07920  Biso   1.000  O
  O2       1.0000 0.01800  0.61440  0.26400  Biso   1.000  O
  O3       1.0000 0.19000  0.54220  0.13580  Biso   1.000  O
  O4       1.0000 0.10580  0.37380  0.19670  Biso   1.000  O
  O5       1.0000 0.44010  0.41750  0.17520  Biso   1.000  O
  O6       1.0000 0.40230  0.60170  0.23428  Biso   1.000  O
  O7       1.0000 0.58950  0.31130  0.11400  Biso   1.000  O
  O8       1.0000 0.36320  0.34520  0.30550  Biso   1.000  O
  O9       1.0000 0.06420  0.68840  0.94330  Biso   1.000  O
  O10      1.0000 0.80790  0.69980  0.92010  Biso   1.000  O
  O11      1.0000 0.25520  0.89110  0.06470  Biso   1.000  O
  O12      1.0000 0.11140  0.98970  0.13640  Biso   1.000  O
  O13      1.0000 0.52560  0.74660  0.02920  Biso   1.000  O
  O14      1.0000 0.50000  0.85570  0.94930  Biso   1.000  O
  O15      1.0000 0.82870  0.11930  0.09470  Biso   1.000  O
  O16      1.0000 0.69840  0.03650  0.17430  Biso   1.000  O
  O17      1.0000 0.27390  0.53620  0.35570  Biso   1.000  O
  O18      1.0000 0.22400  0.66410  0.41770  Biso   1.000  O
  O19      1.0000 0.02810  0.68160  0.61370  Biso   1.000  O
  O20      1.0000 0.95530  0.56230  0.67520  Biso   1.000  O
  N1       1.0000 0.40040  0.58560  0.98800  Biso   1.000  N
  N2       1.0000 0.07210  0.57430  0.50830  Biso   1.000  N
  N3       1.0000 0.99960  0.83600  0.02290  Biso   1.000  N
  N4       1.0000 0.69460  0.92410  0.05650  Biso   1.000  N
  C1       1.0000 0.25210  0.58660  0.09150  Biso   1.000  C
  C2       1.0000 0.39000  0.53740  0.04640  Biso   1.000  C
  C3       1.0000 0.49210  0.45390  0.06080  Biso   1.000  C
  C4       1.0000 0.50700  0.38860  0.12160  Biso   1.000  C
  C5       1.0000 0.13000  0.93270  0.09090  Biso   1.000  C
  C6       1.0000 0.97600  0.91240  0.06290  Biso   1.000  C
  C7       1.0000 0.82200  0.95470  0.07600  Biso   1.000  C
  C8       1.0000 0.72100  0.84920  0.01630  Biso   1.000  C
  C9       1.0000 0.86500  0.80250  0.99690  Biso   1.000  C
  C10      1.0000 0.92100  0.71910  0.95200  Biso   1.000  C
  C11      1.0000 0.77900  0.04430  0.12030  Biso   1.000  C
  C12      1.0000 0.57400  0.81380  0.99730  Biso   1.000  C
  C13      1.0000 0.20400  0.58120  0.40190  Biso   1.000  C
  C14      1.0000 0.08800  0.53830  0.45300  Biso   1.000  C
  C15      1.0000 0.98010  0.54770  0.55800  Biso   1.000  C
  C16      1.0000 0.98600  0.60160  0.62230  Biso   1.000  C
  H1       1.0000 0.42020  0.64810  0.26680  Biso   1.000  H
  H2       1.0000 0.93010  0.62530  0.29750  Biso   1.000  H
  H3       1.0000 0.02190  0.67700  0.24290  Biso   1.000  H
  H4       1.0000 0.00150  0.36150  0.21380  Biso   1.000  H
  H5       1.0000 0.11670  0.35380  0.15160  Biso   1.000  H
  H6       1.0000 0.49590  0.59570  0.20380  Biso   1.000  H
  H7       1.0000 0.45440  0.30880  0.28170  Biso   1.000  H
  H8       1.0000 0.39260  0.34590  0.35109  Biso   1.000  H
  Tb3      1.0000 0.11784  0.76033  0.51433  Biso   1.000  Tb
  Tb4      1.0000 0.21131  0.02985  0.24113  Biso   1.000  Tb
  O21      1.0000 0.34170  0.15200  0.17200  Biso   1.000  O
  O22      1.0000 0.02330  0.16220  0.19250  Biso   1.000  O
  O23      1.0000 0.19900  0.17540  0.31020  Biso   1.000  O
  O24      1.0000 0.43400  0.94700  0.16980  Biso   1.000  O
  O25      1.0000 0.14460  0.88310  0.59060  Biso   1.000  O
  O26      1.0000 0.45730  0.00750  0.29130  Biso   1.000  O
  O27      1.0000 0.55980  0.09180  0.36670  Biso   1.000  O
  O28      1.0000 0.07690  0.88570  0.43250  Biso   1.000  O
  O29      1.0000 0.14860  0.99970  0.36330  Biso   1.000  O
  O30      1.0000 0.21840  0.86130  0.25670  Biso   1.000  O
  O31      1.0000 0.36490  0.69330  0.55710  Biso   1.000  O
  O32      1.0000 0.94360  0.00680  0.26230  Biso   1.000  O
  O33      1.0000 0.62050  0.68270  0.56680  Biso   1.000  O
  O34      1.0000 0.84580  0.84220  0.54580  Biso   1.000  O
  O35      1.0000 0.87310  0.74030  0.45920  Biso   1.000  O
  N5       1.0000 0.35680  0.83290  0.47230  Biso   1.000  N
  N6       1.0000 0.62280  0.91570  0.43110  Biso   1.000  N
  C17      1.0000 0.49100  0.02310  0.35330  Biso   1.000  C
  C18      1.0000 0.47800  0.94400  0.40650  Biso   1.000  C
  C19      1.0000 0.34600  0.90220  0.42720  Biso   1.000  C
  C20      1.0000 0.49800  0.80010  0.49490  Biso   1.000  C
  C21      1.0000 0.62600  0.83950  0.47470  Biso   1.000  C
  C22      1.0000 0.78800  0.80680  0.49760  Biso   1.000  C
  C23      1.0000 0.49700  0.71700  0.54390  Biso   1.000  C
  C24      1.0000 0.17700  0.93320  0.40230  Biso   1.000  C
  H9       1.0000 0.23440  0.90740  0.60910  Biso   1.000  H
  H10      1.0000 0.05140  0.92710  0.60830  Biso   1.000  H
  H11      1.0000 0.42930  0.12610  0.14130  Biso   1.000  H
  H12      1.0000 0.28120  0.20380  0.14630  Biso   1.000  H
  H13      1.0000 0.94960  0.15210  0.15940  Biso   1.000  H
  H14      1.0000 0.95960  0.20240  0.22570  Biso   1.000  H
  H15      1.0000 0.25400  0.23180  0.30690  Biso   1.000  H
  H16      1.0000 0.17970  0.16510  0.35770  Biso   1.000  H
  H17      1.0000 0.37740  0.93560  0.13120  Biso   1.000  H
  H18      1.0000 0.51300  0.98650  0.15350  Biso   1.000  H
  H19      1.0000 0.28510  0.84150  0.28510  Biso   1.000  H
  H20      1.0000 0.24660  0.83370  0.22030  Biso   1.000  H
  H21      1.0000 0.85240  0.01580  0.24700  Biso   1.000  H
  H22      1.0000 0.93690  0.02630  0.30180  Biso   1.000  H
  Tb5      1.0000 0.72635  0.23728  0.01904  Biso   1.000  Tb
  Tb6      1.0000 0.76484  0.51439  0.75203  Biso   1.000  Tb
  O36      1.0000 0.78730  0.32490  0.92080  Biso   1.000  O
  O37      1.0000 0.98200  0.38560  0.73600  Biso   1.000  O
  O38      1.0000 0.81000  0.45780  0.86420  Biso   1.000  O
  O39      1.0000 0.89420  0.62620  0.80330  Biso   1.000  O
  O40      1.0000 0.55990  0.58250  0.82480  Biso   1.000  O
  O41      1.0000 0.59770  0.39830  0.76572  Biso   1.000  O
  O42      1.0000 0.41050  0.68870  0.88600  Biso   1.000  O
  O43      1.0000 0.63680  0.65480  0.69450  Biso   1.000  O
  O44      1.0000 0.93580  0.31160  0.05670  Biso   1.000  O
  O45      1.0000 0.19210  0.30020  0.07990  Biso   1.000  O
  O46      1.0000 0.74480  0.10890  0.93530  Biso   1.000  O
  O47      1.0000 0.88860  0.01030  0.86360  Biso   1.000  O
  O48      1.0000 0.47440  0.25340  0.97080  Biso   1.000  O
  O49      1.0000 0.50000  0.14430  0.05070  Biso   1.000  O
  O50      1.0000 0.17130  0.88070  0.90530  Biso   1.000  O
  O51      1.0000 0.30160  0.96350  0.82570  Biso   1.000  O
  O52      1.0000 0.72610  0.46380  0.64430  Biso   1.000  O
  O53      1.0000 0.77600  0.33590  0.58230  Biso   1.000  O
  O54      1.0000 0.97190  0.31840  0.38630  Biso   1.000  O
  O55      1.0000 0.04470  0.43770  0.32480  Biso   1.000  O
  N7       1.0000 0.59960  0.41440  0.01200  Biso   1.000  N
  N8       1.0000 0.92790  0.42570  0.49170  Biso   1.000  N
  N9       1.0000 0.00040  0.16400  0.97710  Biso   1.000  N
  N10      1.0000 0.30540  0.07590  0.94350  Biso   1.000  N
  C25      1.0000 0.74790  0.41340  0.90850  Biso   1.000  C
  C26      1.0000 0.61000  0.46260  0.95360  Biso   1.000  C
  C27      1.0000 0.50790  0.54610  0.93920  Biso   1.000  C
  C28      1.0000 0.49300  0.61140  0.87840  Biso   1.000  C
  C29      1.0000 0.87000  0.06730  0.90910  Biso   1.000  C
  C30      1.0000 0.02400  0.08760  0.93710  Biso   1.000  C
  C31      1.0000 0.17800  0.04530  0.92400  Biso   1.000  C
  C32      1.0000 0.27900  0.15080  0.98370  Biso   1.000  C
  C33      1.0000 0.13500  0.19750  0.00310  Biso   1.000  C
  C34      1.0000 0.07900  0.28090  0.04800  Biso   1.000  C
  C35      1.0000 0.22100  0.95570  0.87970  Biso   1.000  C
  C36      1.0000 0.42600  0.18620  0.00270  Biso   1.000  C
  C37      1.0000 0.79600  0.41880  0.59810  Biso   1.000  C
  C38      1.0000 0.91200  0.46170  0.54700  Biso   1.000  C
  C39      1.0000 0.01990  0.45230  0.44200  Biso   1.000  C
  C40      1.0000 0.01400  0.39840  0.37770  Biso   1.000  C
  H23      1.0000 0.57980  0.35190  0.73320  Biso   1.000  H
  H24      1.0000 0.06990  0.37470  0.70250  Biso   1.000  H
  H25      1.0000 0.97810  0.32300  0.75710  Biso   1.000  H
  H26      1.0000 0.99850  0.63850  0.78620  Biso   1.000  H
  H27      1.0000 0.88330  0.64620  0.84840  Biso   1.000  H
  H28      1.0000 0.50410  0.40430  0.79620  Biso   1.000  H
  H29      1.0000 0.54560  0.69120  0.71830  Biso   1.000  H
  H30      1.0000 0.60740  0.65410  0.64891  Biso   1.000  H
  Tb7      1.0000 0.88216  0.23967  0.48567  Biso   1.000  Tb
  Tb8      1.0000 0.78869  0.97015  0.75887  Biso   1.000  Tb
  O56      1.0000 0.65830  0.84800  0.82800  Biso   1.000  O
  O57      1.0000 0.97670  0.83780  0.80750  Biso   1.000  O
  O58      1.0000 0.80100  0.82460  0.68980  Biso   1.000  O
  O59      1.0000 0.56600  0.05300  0.83020  Biso   1.000  O
  O60      1.0000 0.85540  0.11690  0.40940  Biso   1.000  O
  O61      1.0000 0.54270  0.99250  0.70870  Biso   1.000  O
  O62      1.0000 0.44020  0.90820  0.63330  Biso   1.000  O
  O63      1.0000 0.92310  0.11430  0.56750  Biso   1.000  O
  O64      1.0000 0.85140  0.00030  0.63670  Biso   1.000  O
  O65      1.0000 0.78160  0.13870  0.74330  Biso   1.000  O
  O66      1.0000 0.63510  0.30670  0.44290  Biso   1.000  O
  O67      1.0000 0.05640  0.99320  0.73770  Biso   1.000  O
  O68      1.0000 0.37950  0.31730  0.43320  Biso   1.000  O
  O69      1.0000 0.15420  0.15780  0.45420  Biso   1.000  O
  O70      1.0000 0.12690  0.25970  0.54080  Biso   1.000  O
  N11      1.0000 0.64320  0.16710  0.52770  Biso   1.000  N
  N12      1.0000 0.37720  0.08430  0.56890  Biso   1.000  N
  C41      1.0000 0.50900  0.97690  0.64670  Biso   1.000  C
  C42      1.0000 0.52200  0.05600  0.59350  Biso   1.000  C
  C43      1.0000 0.65400  0.09780  0.57280  Biso   1.000  C
  C44      1.0000 0.50200  0.19990  0.50510  Biso   1.000  C
  C45      1.0000 0.37400  0.16050  0.52530  Biso   1.000  C
  C46      1.0000 0.21200  0.19320  0.50240  Biso   1.000  C
  C47      1.0000 0.50300  0.28300  0.45610  Biso   1.000  C
  C48      1.0000 0.82300  0.06680  0.59770  Biso   1.000  C
  H31      1.0000 0.76560  0.09260  0.39090  Biso   1.000  H
  H32      1.0000 0.94860  0.07290  0.39170  Biso   1.000  H
  H33      1.0000 0.57070  0.87390  0.85870  Biso   1.000  H
  H34      1.0000 0.71880  0.79620  0.85370  Biso   1.000  H
  H35      1.0000 0.05040  0.84790  0.84060  Biso   1.000  H
  H36      1.0000 0.04040  0.79760  0.77430  Biso   1.000  H
  H37      1.0000 0.74600  0.76820  0.69310  Biso   1.000  H
  H38      1.0000 0.82030  0.83490  0.64230  Biso   1.000  H
  H39      1.0000 0.62260  0.06440  0.86880  Biso   1.000  H
  H40      1.0000 0.48700  0.01350  0.84650  Biso   1.000  H
  H41      1.0000 0.71490  0.15850  0.71490  Biso   1.000  H
  H42      1.0000 0.75340  0.16630  0.77970  Biso   1.000  H
  H43      1.0000 0.14760  0.98420  0.75300  Biso   1.000  H
  H44      1.0000 0.06310  0.97370  0.69820  Biso   1.000  H
