data_image0
_cell_length_a       15.481
_cell_length_b       15.8657
_cell_length_c       15.8657
_cell_angle_alpha    76.2302
_cell_angle_beta     60.799
_cell_angle_gamma    60.799

_symmetry_space_group_name_H-M    P 1
_symmetry_int_tables_number       1

loop_
  _symmetry_equiv_pos_as_xyz
  'x, y, z'

loop_
  _atom_site_label
  _atom_site_occupancy
  _atom_site_fract_x
  _atom_site_fract_y
  _atom_site_fract_z
  _atom_site_thermal_displace_type
  _atom_site_B_iso_or_equiv
  _atom_site_type_symbol
  Ni1      1.0000 0.50000  0.00000  1.00000  Biso   1.000  Ni
  Ni2      1.0000 0.00000  0.50000  0.50000  Biso   1.000  Ni
  Ni3      1.0000 0.00000  0.00000  0.50000  Biso   1.000  Ni
  Ni4      1.0000 0.00000  0.50000  1.00000  Biso   1.000  Ni
  Mo1      1.0000 0.87500  0.75000  0.75000  Biso   1.000  Mo
  Mo2      1.0000 0.12500  0.25000  0.25000  Biso   1.000  Mo
  H1       1.0000 0.28960  0.97710  0.08850  Biso   1.000  H
  H2       1.0000 0.32260  0.86900  0.07320  Biso   1.000  H
  H3       1.0000 0.47440  0.81180  0.89180  Biso   1.000  H
  H4       1.0000 0.41990  0.83560  0.17640  Biso   1.000  H
  H5       1.0000 0.38860  0.94680  0.17360  Biso   1.000  H
  H6       1.0000 0.49800  0.83820  0.00680  Biso   1.000  H
  H7       1.0000 0.85520  0.52290  0.41150  Biso   1.000  H
  H8       1.0000 0.76480  0.63100  0.42680  Biso   1.000  H
  H9       1.0000 0.67800  0.68820  0.60820  Biso   1.000  H
  H10      1.0000 0.93190  0.66440  0.32360  Biso   1.000  H
  H11      1.0000 0.00900  0.55320  0.32640  Biso   1.000  H
  H12      1.0000 0.84300  0.66180  0.49320  Biso   1.000  H
  H13      1.0000 0.87810  0.91150  0.47710  Biso   1.000  H
  H14      1.0000 0.89580  0.92680  0.36900  Biso   1.000  H
  H15      1.0000 0.86620  0.10820  0.31180  Biso   1.000  H
  H16      1.0000 0.09630  0.82360  0.33560  Biso   1.000  H
  H17      1.0000 0.06220  0.82640  0.44680  Biso   1.000  H
  H18      1.0000 0.00480  0.99320  0.33820  Biso   1.000  H
  H19      1.0000 0.76670  0.58850  0.02290  Biso   1.000  H
  H20      1.0000 0.69160  0.57320  0.13100  Biso   1.000  H
  H21      1.0000 0.78620  0.39180  0.18820  Biso   1.000  H
  H22      1.0000 0.75550  0.67640  0.16440  Biso   1.000  H
  H23      1.0000 0.83540  0.67360  0.05320  Biso   1.000  H
  H24      1.0000 0.83620  0.50680  0.16180  Biso   1.000  H
  H25      1.0000 0.14480  0.58850  0.47710  Biso   1.000  H
  H26      1.0000 0.23520  0.57320  0.36900  Biso   1.000  H
  H27      1.0000 0.32200  0.39180  0.31180  Biso   1.000  H
  H28      1.0000 0.06810  0.67640  0.33560  Biso   1.000  H
  H29      1.0000 0.99100  0.67360  0.44680  Biso   1.000  H
  H30      1.0000 0.15700  0.50680  0.33820  Biso   1.000  H
  H31      1.0000 0.71040  0.91150  0.02290  Biso   1.000  H
  H32      1.0000 0.67740  0.92680  0.13100  Biso   1.000  H
  H33      1.0000 0.52560  0.10820  0.18820  Biso   1.000  H
  H34      1.0000 0.58010  0.82360  0.16440  Biso   1.000  H
  H35      1.0000 0.61140  0.82640  0.05320  Biso   1.000  H
  H36      1.0000 0.50200  0.99320  0.16180  Biso   1.000  H
  H37      1.0000 0.23330  0.97710  0.41150  Biso   1.000  H
  H38      1.0000 0.30840  0.86900  0.42680  Biso   1.000  H
  H39      1.0000 0.21380  0.81180  0.60820  Biso   1.000  H
  H40      1.0000 0.24450  0.83560  0.32360  Biso   1.000  H
  H41      1.0000 0.16460  0.94680  0.32640  Biso   1.000  H
  H42      1.0000 0.16380  0.83820  0.49320  Biso   1.000  H
  H43      1.0000 0.12190  0.52290  0.08850  Biso   1.000  H
  H44      1.0000 0.10420  0.63100  0.07320  Biso   1.000  H
  H45      1.0000 0.13380  0.68820  0.89180  Biso   1.000  H
  H46      1.0000 0.90370  0.66440  0.17640  Biso   1.000  H
  H47      1.0000 0.93780  0.55320  0.17360  Biso   1.000  H
  H48      1.0000 0.99520  0.66180  0.00680  Biso   1.000  H
  H49      1.0000 0.71040  0.02290  0.91150  Biso   1.000  H
  H50      1.0000 0.67740  0.13100  0.92680  Biso   1.000  H
  H51      1.0000 0.52560  0.18820  0.10820  Biso   1.000  H
  H52      1.0000 0.58010  0.16440  0.82360  Biso   1.000  H
  H53      1.0000 0.61140  0.05320  0.82640  Biso   1.000  H
  H54      1.0000 0.50200  0.16180  0.99320  Biso   1.000  H
  H55      1.0000 0.14480  0.47710  0.58850  Biso   1.000  H
  H56      1.0000 0.23520  0.36900  0.57320  Biso   1.000  H
  H57      1.0000 0.32200  0.31180  0.39180  Biso   1.000  H
  H58      1.0000 0.06810  0.33560  0.67640  Biso   1.000  H
  H59      1.0000 0.99100  0.44680  0.67360  Biso   1.000  H
  H60      1.0000 0.15700  0.33820  0.50680  Biso   1.000  H
  H61      1.0000 0.12190  0.08850  0.52290  Biso   1.000  H
  H62      1.0000 0.10420  0.07320  0.63100  Biso   1.000  H
  H63      1.0000 0.13380  0.89180  0.68820  Biso   1.000  H
  H64      1.0000 0.90370  0.17640  0.66440  Biso   1.000  H
  H65      1.0000 0.93780  0.17360  0.55320  Biso   1.000  H
  H66      1.0000 0.99520  0.00680  0.66180  Biso   1.000  H
  H67      1.0000 0.23330  0.41150  0.97710  Biso   1.000  H
  H68      1.0000 0.30840  0.42680  0.86900  Biso   1.000  H
  H69      1.0000 0.21380  0.60820  0.81180  Biso   1.000  H
  H70      1.0000 0.24450  0.32360  0.83560  Biso   1.000  H
  H71      1.0000 0.16460  0.32640  0.94680  Biso   1.000  H
  H72      1.0000 0.16380  0.49320  0.83820  Biso   1.000  H
  H73      1.0000 0.85520  0.41150  0.52290  Biso   1.000  H
  H74      1.0000 0.76480  0.42680  0.63100  Biso   1.000  H
  H75      1.0000 0.67800  0.60820  0.68820  Biso   1.000  H
  H76      1.0000 0.93190  0.32360  0.66440  Biso   1.000  H
  H77      1.0000 0.00900  0.32640  0.55320  Biso   1.000  H
  H78      1.0000 0.84300  0.49320  0.66180  Biso   1.000  H
  H79      1.0000 0.28960  0.08850  0.97710  Biso   1.000  H
  H80      1.0000 0.32260  0.07320  0.86900  Biso   1.000  H
  H81      1.0000 0.47440  0.89180  0.81180  Biso   1.000  H
  H82      1.0000 0.41990  0.17640  0.83560  Biso   1.000  H
  H83      1.0000 0.38860  0.17360  0.94680  Biso   1.000  H
  H84      1.0000 0.49800  0.00680  0.83820  Biso   1.000  H
  H85      1.0000 0.76670  0.02290  0.58850  Biso   1.000  H
  H86      1.0000 0.69160  0.13100  0.57320  Biso   1.000  H
  H87      1.0000 0.78620  0.18820  0.39180  Biso   1.000  H
  H88      1.0000 0.75550  0.16440  0.67640  Biso   1.000  H
  H89      1.0000 0.83540  0.05320  0.67360  Biso   1.000  H
  H90      1.0000 0.83620  0.16180  0.50680  Biso   1.000  H
  H91      1.0000 0.87810  0.47710  0.91150  Biso   1.000  H
  H92      1.0000 0.89580  0.36900  0.92680  Biso   1.000  H
  H93      1.0000 0.86620  0.31180  0.10820  Biso   1.000  H
  H94      1.0000 0.09630  0.33560  0.82360  Biso   1.000  H
  H95      1.0000 0.06220  0.44680  0.82640  Biso   1.000  H
  H96      1.0000 0.00480  0.33820  0.99320  Biso   1.000  H
  H97      1.0000 0.28100  0.95610  0.95610  Biso   1.000  H
  H98      1.0000 0.69320  0.54390  0.54390  Biso   1.000  H
  H99      1.0000 0.73710  0.04390  0.45610  Biso   1.000  H
  H100     1.0000 0.73710  0.45610  0.04390  Biso   1.000  H
  H101     1.0000 0.30680  0.45610  0.45610  Biso   1.000  H
  H102     1.0000 0.71900  0.04390  0.04390  Biso   1.000  H
  H103     1.0000 0.26290  0.95610  0.54390  Biso   1.000  H
  H104     1.0000 0.26290  0.54390  0.95610  Biso   1.000  H
  C1       1.0000 0.34417  0.92122  0.04674  Biso   1.000  C
  C2       1.0000 0.44022  0.88637  0.13857  Biso   1.000  C
  C3       1.0000 0.81213  0.57878  0.45326  Biso   1.000  C
  C4       1.0000 0.96516  0.61363  0.36143  Biso   1.000  C
  C5       1.0000 0.89091  0.95326  0.42122  Biso   1.000  C
  C6       1.0000 0.07879  0.86143  0.38637  Biso   1.000  C
  C7       1.0000 0.76539  0.54674  0.07878  Biso   1.000  C
  C8       1.0000 0.82659  0.63857  0.11363  Biso   1.000  C
  C9       1.0000 0.18787  0.54674  0.42122  Biso   1.000  C
  C10      1.0000 0.03484  0.63857  0.38637  Biso   1.000  C
  C11      1.0000 0.65583  0.95326  0.07878  Biso   1.000  C
  C12      1.0000 0.55978  0.86143  0.11363  Biso   1.000  C
  C13      1.0000 0.23461  0.92122  0.45326  Biso   1.000  C
  C14      1.0000 0.17341  0.88637  0.36143  Biso   1.000  C
  C15      1.0000 0.10909  0.57878  0.04674  Biso   1.000  C
  C16      1.0000 0.92121  0.61363  0.13857  Biso   1.000  C
  C17      1.0000 0.65583  0.07878  0.95326  Biso   1.000  C
  C18      1.0000 0.55978  0.11363  0.86143  Biso   1.000  C
  C19      1.0000 0.18787  0.42122  0.54674  Biso   1.000  C
  C20      1.0000 0.03484  0.38637  0.63857  Biso   1.000  C
  C21      1.0000 0.10909  0.04674  0.57878  Biso   1.000  C
  C22      1.0000 0.92121  0.13857  0.61363  Biso   1.000  C
  C23      1.0000 0.23461  0.45326  0.92122  Biso   1.000  C
  C24      1.0000 0.17341  0.36143  0.88637  Biso   1.000  C
  C25      1.0000 0.81213  0.45326  0.57878  Biso   1.000  C
  C26      1.0000 0.96516  0.36143  0.61363  Biso   1.000  C
  C27      1.0000 0.34417  0.04674  0.92122  Biso   1.000  C
  C28      1.0000 0.44022  0.13857  0.88637  Biso   1.000  C
  C29      1.0000 0.76539  0.07878  0.54674  Biso   1.000  C
  C30      1.0000 0.82659  0.11363  0.63857  Biso   1.000  C
  C31      1.0000 0.89091  0.42122  0.95326  Biso   1.000  C
  C32      1.0000 0.07879  0.38637  0.86143  Biso   1.000  C
  C33      1.0000 0.91520  0.81550  0.81550  Biso   1.000  C
  C34      1.0000 0.73030  0.85210  0.85210  Biso   1.000  C
  C35      1.0000 0.35354  0.94536  0.94536  Biso   1.000  C
  C36      1.0000 0.42733  0.86847  0.86847  Biso   1.000  C
  C37      1.0000 0.36500  0.83880  0.83880  Biso   1.000  C
  C38      1.0000 0.04620  0.68450  0.68450  Biso   1.000  C
  C39      1.0000 0.93450  0.64790  0.64790  Biso   1.000  C
  C40      1.0000 0.74426  0.55464  0.55464  Biso   1.000  C
  C41      1.0000 0.66427  0.63153  0.63153  Biso   1.000  C
  C42      1.0000 0.54260  0.66120  0.66120  Biso   1.000  C
  C43      1.0000 0.23070  0.18450  0.31550  Biso   1.000  C
  C44      1.0000 0.08240  0.14790  0.35210  Biso   1.000  C
  C45      1.0000 0.79890  0.05464  0.44536  Biso   1.000  C
  C46      1.0000 0.79580  0.13153  0.36847  Biso   1.000  C
  C47      1.0000 0.70380  0.16120  0.33880  Biso   1.000  C
  C48      1.0000 0.23070  0.31550  0.18450  Biso   1.000  C
  C49      1.0000 0.08240  0.35210  0.14790  Biso   1.000  C
  C50      1.0000 0.79890  0.44536  0.05464  Biso   1.000  C
  C51      1.0000 0.79580  0.36847  0.13153  Biso   1.000  C
  C52      1.0000 0.70380  0.33880  0.16120  Biso   1.000  C
  C53      1.0000 0.95380  0.31550  0.31550  Biso   1.000  C
  C54      1.0000 0.06550  0.35210  0.35210  Biso   1.000  C
  C55      1.0000 0.25574  0.44536  0.44536  Biso   1.000  C
  C56      1.0000 0.33573  0.36847  0.36847  Biso   1.000  C
  C57      1.0000 0.45740  0.33880  0.33880  Biso   1.000  C
  C58      1.0000 0.08480  0.18450  0.18450  Biso   1.000  C
  C59      1.0000 0.26970  0.14790  0.14790  Biso   1.000  C
  C60      1.0000 0.64646  0.05464  0.05464  Biso   1.000  C
  C61      1.0000 0.57267  0.13153  0.13153  Biso   1.000  C
  C62      1.0000 0.63500  0.16120  0.16120  Biso   1.000  C
  C63      1.0000 0.76930  0.81550  0.68450  Biso   1.000  C
  C64      1.0000 0.91760  0.85210  0.64790  Biso   1.000  C
  C65      1.0000 0.20110  0.94536  0.55464  Biso   1.000  C
  C66      1.0000 0.20420  0.86847  0.63153  Biso   1.000  C
  C67      1.0000 0.29620  0.83880  0.66120  Biso   1.000  C
  C68      1.0000 0.76930  0.68450  0.81550  Biso   1.000  C
  C69      1.0000 0.91760  0.64790  0.85210  Biso   1.000  C
  C70      1.0000 0.20110  0.55464  0.94536  Biso   1.000  C
  C71      1.0000 0.20420  0.63153  0.86847  Biso   1.000  C
  C72      1.0000 0.29620  0.66120  0.83880  Biso   1.000  C
  N1       1.0000 0.44504  0.89440  0.03952  Biso   1.000  N
  N2       1.0000 0.87896  0.60560  0.46048  Biso   1.000  N
  N3       1.0000 0.98456  0.96048  0.39440  Biso   1.000  N
  N4       1.0000 0.83944  0.53952  0.10560  Biso   1.000  N
  N5       1.0000 0.12104  0.53952  0.39440  Biso   1.000  N
  N6       1.0000 0.55496  0.96048  0.10560  Biso   1.000  N
  N7       1.0000 0.16056  0.89440  0.46048  Biso   1.000  N
  N8       1.0000 0.01544  0.60560  0.03952  Biso   1.000  N
  N9       1.0000 0.55496  0.10560  0.96048  Biso   1.000  N
  N10      1.0000 0.12104  0.39440  0.53952  Biso   1.000  N
  N11      1.0000 0.01544  0.03952  0.60560  Biso   1.000  N
  N12      1.0000 0.16056  0.46048  0.89440  Biso   1.000  N
  N13      1.0000 0.87896  0.46048  0.60560  Biso   1.000  N
  N14      1.0000 0.44504  0.03952  0.89440  Biso   1.000  N
  N15      1.0000 0.83944  0.10560  0.53952  Biso   1.000  N
  N16      1.0000 0.98456  0.39440  0.96048  Biso   1.000  N
  N17      1.0000 0.93988  0.85240  0.85240  Biso   1.000  N
  N18      1.0000 0.64985  0.90785  0.90785  Biso   1.000  N
  N19      1.0000 0.14468  0.64760  0.64760  Biso   1.000  N
  N20      1.0000 0.96555  0.59215  0.59215  Biso   1.000  N
  N21      1.0000 0.29228  0.14760  0.35240  Biso   1.000  N
  N22      1.0000 0.05770  0.09215  0.40785  Biso   1.000  N
  N23      1.0000 0.29228  0.35240  0.14760  Biso   1.000  N
  N24      1.0000 0.05770  0.40785  0.09215  Biso   1.000  N
  N25      1.0000 0.85532  0.35240  0.35240  Biso   1.000  N
  N26      1.0000 0.03445  0.40785  0.40785  Biso   1.000  N
  N27      1.0000 0.06012  0.14760  0.14760  Biso   1.000  N
  N28      1.0000 0.35015  0.09215  0.09215  Biso   1.000  N
  N29      1.0000 0.70772  0.85240  0.64760  Biso   1.000  N
  N30      1.0000 0.94230  0.90785  0.59215  Biso   1.000  N
  N31      1.0000 0.70772  0.64760  0.85240  Biso   1.000  N
  N32      1.0000 0.94230  0.59215  0.90785  Biso   1.000  N
