data_image0
_cell_length_a       17.927
_cell_length_b       12.869
_cell_length_c       11.055
_cell_angle_alpha    90
_cell_angle_beta     93.14
_cell_angle_gamma    90

_symmetry_space_group_name_H-M    "P 1"
_symmetry_int_tables_number       1

loop_
  _symmetry_equiv_pos_as_xyz
  'x, y, z'

loop_
  _atom_site_label
  _atom_site_occupancy
  _atom_site_fract_x
  _atom_site_fract_y
  _atom_site_fract_z
  _atom_site_thermal_displace_type
  _atom_site_B_iso_or_equiv
  _atom_site_type_symbol
  Zn1      1.0000 0.41923  0.05185  0.99894  Biso   1.000  Zn
  C1       1.0000 0.36510  0.22560  0.82970  Biso   1.000  C
  C2       1.0000 0.30120  0.29300  0.77900  Biso   1.000  C
  C3       1.0000 0.24720  0.32920  0.85220  Biso   1.000  C
  H1       1.0000 0.24910  0.31540  0.93480  Biso   1.000  H
  C4       1.0000 0.18890  0.38840  0.79530  Biso   1.000  C
  C5       1.0000 0.18750  0.41010  0.67150  Biso   1.000  C
  C6       1.0000 0.24310  0.37470  0.59900  Biso   1.000  C
  H2       1.0000 0.24210  0.39000  0.51670  Biso   1.000  H
  C7       1.0000 0.29880  0.31690  0.65300  Biso   1.000  C
  H3       1.0000 0.33660  0.29220  0.60640  Biso   1.000  H
  H4       1.0000 0.53800  0.14000  0.96700  Biso   1.000  H
  N1       1.0000 0.12728  0.43520  0.83890  Biso   1.000  N
  N2       1.0000 0.09047  0.48240  0.74610  Biso   1.000  N
  N3       1.0000 0.12593  0.46870  0.64440  Biso   1.000  N
  O1       1.0000 0.35978  0.18700  0.93310  Biso   1.000  O
  O2       1.0000 0.41789  0.21230  0.76100  Biso   1.000  O
  O3       1.0000 0.51720  0.08540  0.93490  Biso   1.000  O
  Zn2      1.0000 0.91923  0.55185  0.99894  Biso   1.000  Zn
  C8       1.0000 0.86510  0.72560  0.82970  Biso   1.000  C
  C9       1.0000 0.80120  0.79300  0.77900  Biso   1.000  C
  C10      1.0000 0.74720  0.82920  0.85220  Biso   1.000  C
  H5       1.0000 0.74910  0.81540  0.93480  Biso   1.000  H
  C11      1.0000 0.68890  0.88840  0.79530  Biso   1.000  C
  C12      1.0000 0.68750  0.91010  0.67150  Biso   1.000  C
  C13      1.0000 0.74310  0.87470  0.59900  Biso   1.000  C
  H6       1.0000 0.74210  0.89000  0.51670  Biso   1.000  H
  C14      1.0000 0.79880  0.81690  0.65300  Biso   1.000  C
  H7       1.0000 0.83660  0.79220  0.60640  Biso   1.000  H
  H8       1.0000 0.03800  0.64000  0.96700  Biso   1.000  H
  N4       1.0000 0.62728  0.93520  0.83890  Biso   1.000  N
  N5       1.0000 0.59047  0.98240  0.74610  Biso   1.000  N
  N6       1.0000 0.62593  0.96870  0.64440  Biso   1.000  N
  O4       1.0000 0.85978  0.68700  0.93310  Biso   1.000  O
  O5       1.0000 0.91789  0.71230  0.76100  Biso   1.000  O
  O6       1.0000 0.01720  0.58540  0.93490  Biso   1.000  O
  Zn3      1.0000 0.58077  0.05185  0.50106  Biso   1.000  Zn
  C15      1.0000 0.63490  0.22560  0.67030  Biso   1.000  C
  C16      1.0000 0.69880  0.29300  0.72100  Biso   1.000  C
  C17      1.0000 0.75280  0.32920  0.64780  Biso   1.000  C
  H9       1.0000 0.75090  0.31540  0.56520  Biso   1.000  H
  C18      1.0000 0.81110  0.38840  0.70470  Biso   1.000  C
  C19      1.0000 0.81250  0.41010  0.82850  Biso   1.000  C
  C20      1.0000 0.75690  0.37470  0.90100  Biso   1.000  C
  H10      1.0000 0.75790  0.39000  0.98330  Biso   1.000  H
  C21      1.0000 0.70120  0.31690  0.84700  Biso   1.000  C
  H11      1.0000 0.66340  0.29220  0.89360  Biso   1.000  H
  H12      1.0000 0.46200  0.14000  0.53300  Biso   1.000  H
  N7       1.0000 0.87272  0.43520  0.66110  Biso   1.000  N
  N8       1.0000 0.90953  0.48240  0.75390  Biso   1.000  N
  N9       1.0000 0.87407  0.46870  0.85560  Biso   1.000  N
  O7       1.0000 0.64022  0.18700  0.56690  Biso   1.000  O
  O8       1.0000 0.58211  0.21230  0.73900  Biso   1.000  O
  O9       1.0000 0.48280  0.08540  0.56510  Biso   1.000  O
  Zn4      1.0000 0.08077  0.55185  0.50106  Biso   1.000  Zn
  C22      1.0000 0.13490  0.72560  0.67030  Biso   1.000  C
  C23      1.0000 0.19880  0.79300  0.72100  Biso   1.000  C
  C24      1.0000 0.25280  0.82920  0.64780  Biso   1.000  C
  H13      1.0000 0.25090  0.81540  0.56520  Biso   1.000  H
  C25      1.0000 0.31110  0.88840  0.70470  Biso   1.000  C
  C26      1.0000 0.31250  0.91010  0.82850  Biso   1.000  C
  C27      1.0000 0.25690  0.87470  0.90100  Biso   1.000  C
  H14      1.0000 0.25790  0.89000  0.98330  Biso   1.000  H
  C28      1.0000 0.20120  0.81690  0.84700  Biso   1.000  C
  H15      1.0000 0.16340  0.79220  0.89360  Biso   1.000  H
  H16      1.0000 0.96200  0.64000  0.53300  Biso   1.000  H
  N10      1.0000 0.37272  0.93520  0.66110  Biso   1.000  N
  N11      1.0000 0.40953  0.98240  0.75390  Biso   1.000  N
  N12      1.0000 0.37407  0.96870  0.85560  Biso   1.000  N
  O10      1.0000 0.14022  0.68700  0.56690  Biso   1.000  O
  O11      1.0000 0.08211  0.71230  0.73900  Biso   1.000  O
  O12      1.0000 0.98280  0.58540  0.56510  Biso   1.000  O
  Zn5      1.0000 0.58077  0.94815  0.00106  Biso   1.000  Zn
  C29      1.0000 0.63490  0.77440  0.17030  Biso   1.000  C
  C30      1.0000 0.69880  0.70700  0.22100  Biso   1.000  C
  C31      1.0000 0.75280  0.67080  0.14780  Biso   1.000  C
  H17      1.0000 0.75090  0.68460  0.06520  Biso   1.000  H
  C32      1.0000 0.81110  0.61160  0.20470  Biso   1.000  C
  C33      1.0000 0.81250  0.58990  0.32850  Biso   1.000  C
  C34      1.0000 0.75690  0.62530  0.40100  Biso   1.000  C
  H18      1.0000 0.75790  0.61000  0.48330  Biso   1.000  H
  C35      1.0000 0.70120  0.68310  0.34700  Biso   1.000  C
  H19      1.0000 0.66340  0.70780  0.39360  Biso   1.000  H
  H20      1.0000 0.46200  0.86000  0.03300  Biso   1.000  H
  N13      1.0000 0.87272  0.56480  0.16110  Biso   1.000  N
  N14      1.0000 0.90953  0.51760  0.25390  Biso   1.000  N
  N15      1.0000 0.87407  0.53130  0.35560  Biso   1.000  N
  O13      1.0000 0.64022  0.81300  0.06690  Biso   1.000  O
  O14      1.0000 0.58211  0.78770  0.23900  Biso   1.000  O
  O15      1.0000 0.48280  0.91460  0.06510  Biso   1.000  O
  Zn6      1.0000 0.08077  0.44815  0.00106  Biso   1.000  Zn
  C36      1.0000 0.13490  0.27440  0.17030  Biso   1.000  C
  C37      1.0000 0.19880  0.20700  0.22100  Biso   1.000  C
  C38      1.0000 0.25280  0.17080  0.14780  Biso   1.000  C
  H21      1.0000 0.25090  0.18460  0.06520  Biso   1.000  H
  C39      1.0000 0.31110  0.11160  0.20470  Biso   1.000  C
  C40      1.0000 0.31250  0.08990  0.32850  Biso   1.000  C
  C41      1.0000 0.25690  0.12530  0.40100  Biso   1.000  C
  H22      1.0000 0.25790  0.11000  0.48330  Biso   1.000  H
  C42      1.0000 0.20120  0.18310  0.34700  Biso   1.000  C
  H23      1.0000 0.16340  0.20780  0.39360  Biso   1.000  H
  H24      1.0000 0.96200  0.36000  0.03300  Biso   1.000  H
  N16      1.0000 0.37272  0.06480  0.16110  Biso   1.000  N
  N17      1.0000 0.40953  0.01760  0.25390  Biso   1.000  N
  N18      1.0000 0.37407  0.03130  0.35560  Biso   1.000  N
  O16      1.0000 0.14022  0.31300  0.06690  Biso   1.000  O
  O17      1.0000 0.08211  0.28770  0.23900  Biso   1.000  O
  O18      1.0000 0.98280  0.41460  0.06510  Biso   1.000  O
  Zn7      1.0000 0.41923  0.94815  0.49894  Biso   1.000  Zn
  C43      1.0000 0.36510  0.77440  0.32970  Biso   1.000  C
  C44      1.0000 0.30120  0.70700  0.27900  Biso   1.000  C
  C45      1.0000 0.24720  0.67080  0.35220  Biso   1.000  C
  H25      1.0000 0.24910  0.68460  0.43480  Biso   1.000  H
  C46      1.0000 0.18890  0.61160  0.29530  Biso   1.000  C
  C47      1.0000 0.18750  0.58990  0.17150  Biso   1.000  C
  C48      1.0000 0.24310  0.62530  0.09900  Biso   1.000  C
  H26      1.0000 0.24210  0.61000  0.01670  Biso   1.000  H
  C49      1.0000 0.29880  0.68310  0.15300  Biso   1.000  C
  H27      1.0000 0.33660  0.70780  0.10640  Biso   1.000  H
  H28      1.0000 0.53800  0.86000  0.46700  Biso   1.000  H
  N19      1.0000 0.12728  0.56480  0.33890  Biso   1.000  N
  N20      1.0000 0.09047  0.51760  0.24610  Biso   1.000  N
  N21      1.0000 0.12593  0.53130  0.14440  Biso   1.000  N
  O19      1.0000 0.35978  0.81300  0.43310  Biso   1.000  O
  O20      1.0000 0.41789  0.78770  0.26100  Biso   1.000  O
  O21      1.0000 0.51720  0.91460  0.43490  Biso   1.000  O
  Zn8      1.0000 0.91923  0.44815  0.49894  Biso   1.000  Zn
  C50      1.0000 0.86510  0.27440  0.32970  Biso   1.000  C
  C51      1.0000 0.80120  0.20700  0.27900  Biso   1.000  C
  C52      1.0000 0.74720  0.17080  0.35220  Biso   1.000  C
  H29      1.0000 0.74910  0.18460  0.43480  Biso   1.000  H
  C53      1.0000 0.68890  0.11160  0.29530  Biso   1.000  C
  C54      1.0000 0.68750  0.08990  0.17150  Biso   1.000  C
  C55      1.0000 0.74310  0.12530  0.09900  Biso   1.000  C
  H30      1.0000 0.74210  0.11000  0.01670  Biso   1.000  H
  C56      1.0000 0.79880  0.18310  0.15300  Biso   1.000  C
  H31      1.0000 0.83660  0.20780  0.10640  Biso   1.000  H
  H32      1.0000 0.03800  0.36000  0.46700  Biso   1.000  H
  N22      1.0000 0.62728  0.06480  0.33890  Biso   1.000  N
  N23      1.0000 0.59047  0.01760  0.24610  Biso   1.000  N
  N24      1.0000 0.62593  0.03130  0.14440  Biso   1.000  N
  O22      1.0000 0.85978  0.31300  0.43310  Biso   1.000  O
  O23      1.0000 0.91789  0.28770  0.26100  Biso   1.000  O
  O24      1.0000 0.01720  0.41460  0.43490  Biso   1.000  O
  Zn9      1.0000 0.50000  0.10186  0.75000  Biso   1.000  Zn
  Zn10     1.0000 0.00000  0.60186  0.75000  Biso   1.000  Zn
  Zn11     1.0000 0.50000  0.89814  0.25000  Biso   1.000  Zn
  Zn12     1.0000 0.00000  0.39814  0.25000  Biso   1.000  Zn
