data_image0
_cell_length_a       19.003
_cell_length_b       19.003
_cell_length_c       16.916
_cell_angle_alpha    90
_cell_angle_beta     90
_cell_angle_gamma    120

_symmetry_space_group_name_H-M    "P 1"
_symmetry_int_tables_number       1

loop_
  _symmetry_equiv_pos_as_xyz
  'x, y, z'

loop_
  _atom_site_label
  _atom_site_occupancy
  _atom_site_fract_x
  _atom_site_fract_y
  _atom_site_fract_z
  _atom_site_thermal_displace_type
  _atom_site_B_iso_or_equiv
  _atom_site_type_symbol
  N1       1.0000 0.48570  0.22980  0.63380  Biso   1.000  N
  H1       1.0000 0.50710  0.20770  0.66190  Biso   1.000  H
  N2       1.0000 0.48900  0.30020  0.65360  Biso   1.000  N
  N3       1.0000 0.28080  0.20330  0.37570  Biso   1.000  N
  H2       1.0000 0.23570  0.17430  0.35120  Biso   1.000  H
  C1       1.0000 0.37420  0.24430  0.46620  Biso   1.000  C
  C2       1.0000 0.29840  0.18240  0.44620  Biso   1.000  C
  C3       1.0000 0.24170  0.10490  0.48570  Biso   1.000  C
  H3       1.0000 0.18680  0.09120  0.47440  Biso   1.000  H
  H4       1.0000 0.25060  0.11080  0.54180  Biso   1.000  H
  H5       1.0000 0.25100  0.06270  0.46660  Biso   1.000  H
  C4       1.0000 0.40100  0.30100  0.40200  Biso   1.000  C
  C5       1.0000 0.42150  0.25150  0.53830  Biso   1.000  C
  C6       1.0000 0.44570  0.19770  0.56560  Biso   1.000  C
  C7       1.0000 0.44980  0.31440  0.59530  Biso   1.000  C
  C8       1.0000 0.43750  0.12240  0.53130  Biso   1.000  C
  H6       1.0000 0.45100  0.09460  0.57050  Biso   1.000  H
  H7       1.0000 0.47350  0.13590  0.48700  Biso   1.000  H
  H8       1.0000 0.38250  0.08790  0.51410  Biso   1.000  H
  C9       1.0000 0.43760  0.38600  0.59880  Biso   1.000  C
  H9       1.0000 0.45490  0.41180  0.64950  Biso   1.000  H
  H10      1.0000 0.38110  0.36840  0.59130  Biso   1.000  H
  H11      1.0000 0.46900  0.42390  0.55800  Biso   1.000  H
  C10      1.0000 0.47950  0.37800  0.39040  Biso   1.000  C
  H12      1.0000 0.47490  0.42280  0.41040  Biso   1.000  H
  H13      1.0000 0.49220  0.38590  0.33500  Biso   1.000  H
  H14      1.0000 0.52190  0.37490  0.41810  Biso   1.000  H
  N4       1.0000 0.34280  0.27600  0.34740  Biso   1.000  N
  H15      1.0000 0.94540  0.70150  0.70370  Biso   1.000  H
  N5       1.0000 0.77020  0.25590  0.63380  Biso   1.000  N
  H16      1.0000 0.79230  0.29940  0.66190  Biso   1.000  H
  N6       1.0000 0.69980  0.18880  0.65360  Biso   1.000  N
  N7       1.0000 0.79670  0.07750  0.37570  Biso   1.000  N
  H17      1.0000 0.82570  0.06140  0.35120  Biso   1.000  H
  C11      1.0000 0.75570  0.12990  0.46620  Biso   1.000  C
  C12      1.0000 0.81760  0.11600  0.44620  Biso   1.000  C
  C13      1.0000 0.89510  0.13680  0.48570  Biso   1.000  C
  H18      1.0000 0.90880  0.09560  0.47440  Biso   1.000  H
  H19      1.0000 0.88920  0.13980  0.54180  Biso   1.000  H
  H20      1.0000 0.93730  0.18830  0.46660  Biso   1.000  H
  C14      1.0000 0.69900  0.10000  0.40200  Biso   1.000  C
  C15      1.0000 0.74850  0.17000  0.53830  Biso   1.000  C
  C16      1.0000 0.80230  0.24800  0.56560  Biso   1.000  C
  C17      1.0000 0.68560  0.13540  0.59530  Biso   1.000  C
  C18      1.0000 0.87760  0.31510  0.53130  Biso   1.000  C
  H21      1.0000 0.90540  0.35640  0.57050  Biso   1.000  H
  H22      1.0000 0.86410  0.33760  0.48700  Biso   1.000  H
  H23      1.0000 0.91210  0.29460  0.51410  Biso   1.000  H
  C19      1.0000 0.61400  0.05160  0.59880  Biso   1.000  C
  H24      1.0000 0.58820  0.04310  0.64950  Biso   1.000  H
  H25      1.0000 0.63160  0.01270  0.59130  Biso   1.000  H
  H26      1.0000 0.57610  0.04510  0.55800  Biso   1.000  H
  C20      1.0000 0.62200  0.10150  0.39040  Biso   1.000  C
  H27      1.0000 0.57720  0.05210  0.41040  Biso   1.000  H
  H28      1.0000 0.61410  0.10630  0.33500  Biso   1.000  H
  H29      1.0000 0.62510  0.14700  0.41810  Biso   1.000  H
  N8       1.0000 0.72400  0.06680  0.34740  Biso   1.000  N
  H30      1.0000 0.29850  0.24390  0.70370  Biso   1.000  H
  N9       1.0000 0.74410  0.51430  0.63380  Biso   1.000  N
  H31      1.0000 0.70060  0.49290  0.66190  Biso   1.000  H
  N10      1.0000 0.81120  0.51100  0.65360  Biso   1.000  N
  N11      1.0000 0.92250  0.71920  0.37570  Biso   1.000  N
  H32      1.0000 0.93860  0.76430  0.35120  Biso   1.000  H
  C21      1.0000 0.87010  0.62580  0.46620  Biso   1.000  C
  C22      1.0000 0.88400  0.70160  0.44620  Biso   1.000  C
  C23      1.0000 0.86320  0.75830  0.48570  Biso   1.000  C
  H33      1.0000 0.90440  0.81320  0.47440  Biso   1.000  H
  H34      1.0000 0.86020  0.74940  0.54180  Biso   1.000  H
  H35      1.0000 0.81170  0.74900  0.46660  Biso   1.000  H
  C24      1.0000 0.90000  0.59900  0.40200  Biso   1.000  C
  C25      1.0000 0.83000  0.57850  0.53830  Biso   1.000  C
  C26      1.0000 0.75200  0.55430  0.56560  Biso   1.000  C
  C27      1.0000 0.86460  0.55020  0.59530  Biso   1.000  C
  C28      1.0000 0.68490  0.56250  0.53130  Biso   1.000  C
  H36      1.0000 0.64360  0.54900  0.57050  Biso   1.000  H
  H37      1.0000 0.66240  0.52650  0.48700  Biso   1.000  H
  H38      1.0000 0.70540  0.61750  0.51410  Biso   1.000  H
  C29      1.0000 0.94840  0.56240  0.59880  Biso   1.000  C
  H39      1.0000 0.95690  0.54510  0.64950  Biso   1.000  H
  H40      1.0000 0.98730  0.61890  0.59130  Biso   1.000  H
  H41      1.0000 0.95490  0.53100  0.55800  Biso   1.000  H
  C30      1.0000 0.89850  0.52050  0.39040  Biso   1.000  C
  H42      1.0000 0.94790  0.52510  0.41040  Biso   1.000  H
  H43      1.0000 0.89370  0.50780  0.33500  Biso   1.000  H
  H44      1.0000 0.85300  0.47810  0.41810  Biso   1.000  H
  N12      1.0000 0.93320  0.65720  0.34740  Biso   1.000  N
  H45      1.0000 0.75610  0.05460  0.70370  Biso   1.000  H
  N13      1.0000 0.51430  0.77020  0.13380  Biso   1.000  N
  H46      1.0000 0.49290  0.79230  0.16190  Biso   1.000  H
  N14      1.0000 0.51100  0.69980  0.15360  Biso   1.000  N
  N15      1.0000 0.71920  0.79670  0.87570  Biso   1.000  N
  H47      1.0000 0.76430  0.82570  0.85120  Biso   1.000  H
  C31      1.0000 0.62580  0.75570  0.96620  Biso   1.000  C
  C32      1.0000 0.70160  0.81760  0.94620  Biso   1.000  C
  C33      1.0000 0.75830  0.89510  0.98570  Biso   1.000  C
  H48      1.0000 0.81320  0.90880  0.97440  Biso   1.000  H
  H49      1.0000 0.74940  0.88920  0.04180  Biso   1.000  H
  H50      1.0000 0.74900  0.93730  0.96660  Biso   1.000  H
  C34      1.0000 0.59900  0.69900  0.90200  Biso   1.000  C
  C35      1.0000 0.57850  0.74850  0.03830  Biso   1.000  C
  C36      1.0000 0.55430  0.80230  0.06560  Biso   1.000  C
  C37      1.0000 0.55020  0.68560  0.09530  Biso   1.000  C
  C38      1.0000 0.56250  0.87760  0.03130  Biso   1.000  C
  H51      1.0000 0.54900  0.90540  0.07050  Biso   1.000  H
  H52      1.0000 0.52650  0.86410  0.98700  Biso   1.000  H
  H53      1.0000 0.61750  0.91210  0.01410  Biso   1.000  H
  C39      1.0000 0.56240  0.61400  0.09880  Biso   1.000  C
  H54      1.0000 0.54510  0.58820  0.14950  Biso   1.000  H
  H55      1.0000 0.61890  0.63160  0.09130  Biso   1.000  H
  H56      1.0000 0.53100  0.57610  0.05800  Biso   1.000  H
  C40      1.0000 0.52050  0.62200  0.89040  Biso   1.000  C
  H57      1.0000 0.52510  0.57720  0.91040  Biso   1.000  H
  H58      1.0000 0.50780  0.61410  0.83500  Biso   1.000  H
  H59      1.0000 0.47810  0.62510  0.91810  Biso   1.000  H
  N16      1.0000 0.65720  0.72400  0.84740  Biso   1.000  N
  H60      1.0000 0.05460  0.29850  0.20370  Biso   1.000  H
  N17      1.0000 0.22980  0.74410  0.13380  Biso   1.000  N
  H61      1.0000 0.20770  0.70060  0.16190  Biso   1.000  H
  N18      1.0000 0.30020  0.81120  0.15360  Biso   1.000  N
  N19      1.0000 0.20330  0.92250  0.87570  Biso   1.000  N
  H62      1.0000 0.17430  0.93860  0.85120  Biso   1.000  H
  C41      1.0000 0.24430  0.87010  0.96620  Biso   1.000  C
  C42      1.0000 0.18240  0.88400  0.94620  Biso   1.000  C
  C43      1.0000 0.10490  0.86320  0.98570  Biso   1.000  C
  H63      1.0000 0.09120  0.90440  0.97440  Biso   1.000  H
  H64      1.0000 0.11080  0.86020  0.04180  Biso   1.000  H
  H65      1.0000 0.06270  0.81170  0.96660  Biso   1.000  H
  C44      1.0000 0.30100  0.90000  0.90200  Biso   1.000  C
  C45      1.0000 0.25150  0.83000  0.03830  Biso   1.000  C
  C46      1.0000 0.19770  0.75200  0.06560  Biso   1.000  C
  C47      1.0000 0.31440  0.86460  0.09530  Biso   1.000  C
  C48      1.0000 0.12240  0.68490  0.03130  Biso   1.000  C
  H66      1.0000 0.09460  0.64360  0.07050  Biso   1.000  H
  H67      1.0000 0.13590  0.66240  0.98700  Biso   1.000  H
  H68      1.0000 0.08790  0.70540  0.01410  Biso   1.000  H
  C49      1.0000 0.38600  0.94840  0.09880  Biso   1.000  C
  H69      1.0000 0.41180  0.95690  0.14950  Biso   1.000  H
  H70      1.0000 0.36840  0.98730  0.09130  Biso   1.000  H
  H71      1.0000 0.42390  0.95490  0.05800  Biso   1.000  H
  C50      1.0000 0.37800  0.89850  0.89040  Biso   1.000  C
  H72      1.0000 0.42280  0.94790  0.91040  Biso   1.000  H
  H73      1.0000 0.38590  0.89370  0.83500  Biso   1.000  H
  H74      1.0000 0.37490  0.85300  0.91810  Biso   1.000  H
  N20      1.0000 0.27600  0.93320  0.84740  Biso   1.000  N
  H75      1.0000 0.70150  0.75610  0.20370  Biso   1.000  H
  N21      1.0000 0.25590  0.48570  0.13380  Biso   1.000  N
  H76      1.0000 0.29940  0.50710  0.16190  Biso   1.000  H
  N22      1.0000 0.18880  0.48900  0.15360  Biso   1.000  N
  N23      1.0000 0.07750  0.28080  0.87570  Biso   1.000  N
  H77      1.0000 0.06140  0.23570  0.85120  Biso   1.000  H
  C51      1.0000 0.12990  0.37420  0.96620  Biso   1.000  C
  C52      1.0000 0.11600  0.29840  0.94620  Biso   1.000  C
  C53      1.0000 0.13680  0.24170  0.98570  Biso   1.000  C
  H78      1.0000 0.09560  0.18680  0.97440  Biso   1.000  H
  H79      1.0000 0.13980  0.25060  0.04180  Biso   1.000  H
  H80      1.0000 0.18830  0.25100  0.96660  Biso   1.000  H
  C54      1.0000 0.10000  0.40100  0.90200  Biso   1.000  C
  C55      1.0000 0.17000  0.42150  0.03830  Biso   1.000  C
  C56      1.0000 0.24800  0.44570  0.06560  Biso   1.000  C
  C57      1.0000 0.13540  0.44980  0.09530  Biso   1.000  C
  C58      1.0000 0.31510  0.43750  0.03130  Biso   1.000  C
  H81      1.0000 0.35640  0.45100  0.07050  Biso   1.000  H
  H82      1.0000 0.33760  0.47350  0.98700  Biso   1.000  H
  H83      1.0000 0.29460  0.38250  0.01410  Biso   1.000  H
  C59      1.0000 0.05160  0.43760  0.09880  Biso   1.000  C
  H84      1.0000 0.04310  0.45490  0.14950  Biso   1.000  H
  H85      1.0000 0.01270  0.38110  0.09130  Biso   1.000  H
  H86      1.0000 0.04510  0.46900  0.05800  Biso   1.000  H
  C60      1.0000 0.10150  0.47950  0.89040  Biso   1.000  C
  H87      1.0000 0.05210  0.47490  0.91040  Biso   1.000  H
  H88      1.0000 0.10630  0.49220  0.83500  Biso   1.000  H
  H89      1.0000 0.14700  0.52190  0.91810  Biso   1.000  H
  N24      1.0000 0.06680  0.34280  0.84740  Biso   1.000  N
  H90      1.0000 0.24390  0.94540  0.20370  Biso   1.000  H
  N25      1.0000 0.51430  0.77020  0.36620  Biso   1.000  N
  H91      1.0000 0.49290  0.79230  0.33810  Biso   1.000  H
  N26      1.0000 0.51100  0.69980  0.34640  Biso   1.000  N
  N27      1.0000 0.71920  0.79670  0.62430  Biso   1.000  N
  H92      1.0000 0.76430  0.82570  0.64880  Biso   1.000  H
  C61      1.0000 0.62580  0.75570  0.53380  Biso   1.000  C
  C62      1.0000 0.70160  0.81760  0.55380  Biso   1.000  C
  C63      1.0000 0.75830  0.89510  0.51430  Biso   1.000  C
  H93      1.0000 0.81320  0.90880  0.52560  Biso   1.000  H
  H94      1.0000 0.74940  0.88920  0.45820  Biso   1.000  H
  H95      1.0000 0.74900  0.93730  0.53340  Biso   1.000  H
  C64      1.0000 0.59900  0.69900  0.59800  Biso   1.000  C
  C65      1.0000 0.57850  0.74850  0.46170  Biso   1.000  C
  C66      1.0000 0.55430  0.80230  0.43440  Biso   1.000  C
  C67      1.0000 0.55020  0.68560  0.40470  Biso   1.000  C
  C68      1.0000 0.56250  0.87760  0.46870  Biso   1.000  C
  H96      1.0000 0.54900  0.90540  0.42950  Biso   1.000  H
  H97      1.0000 0.52650  0.86410  0.51300  Biso   1.000  H
  H98      1.0000 0.61750  0.91210  0.48590  Biso   1.000  H
  C69      1.0000 0.56240  0.61400  0.40120  Biso   1.000  C
  H99      1.0000 0.54510  0.58820  0.35050  Biso   1.000  H
  H100     1.0000 0.61890  0.63160  0.40870  Biso   1.000  H
  H101     1.0000 0.53100  0.57610  0.44200  Biso   1.000  H
  C70      1.0000 0.52050  0.62200  0.60960  Biso   1.000  C
  H102     1.0000 0.52510  0.57720  0.58960  Biso   1.000  H
  H103     1.0000 0.50780  0.61410  0.66500  Biso   1.000  H
  H104     1.0000 0.47810  0.62510  0.58190  Biso   1.000  H
  N28      1.0000 0.65720  0.72400  0.65260  Biso   1.000  N
  H105     1.0000 0.05460  0.29850  0.29630  Biso   1.000  H
  N29      1.0000 0.22980  0.74410  0.36620  Biso   1.000  N
  H106     1.0000 0.20770  0.70060  0.33810  Biso   1.000  H
  N30      1.0000 0.30020  0.81120  0.34640  Biso   1.000  N
  N31      1.0000 0.20330  0.92250  0.62430  Biso   1.000  N
  H107     1.0000 0.17430  0.93860  0.64880  Biso   1.000  H
  C71      1.0000 0.24430  0.87010  0.53380  Biso   1.000  C
  C72      1.0000 0.18240  0.88400  0.55380  Biso   1.000  C
  C73      1.0000 0.10490  0.86320  0.51430  Biso   1.000  C
  H108     1.0000 0.09120  0.90440  0.52560  Biso   1.000  H
  H109     1.0000 0.11080  0.86020  0.45820  Biso   1.000  H
  H110     1.0000 0.06270  0.81170  0.53340  Biso   1.000  H
  C74      1.0000 0.30100  0.90000  0.59800  Biso   1.000  C
  C75      1.0000 0.25150  0.83000  0.46170  Biso   1.000  C
  C76      1.0000 0.19770  0.75200  0.43440  Biso   1.000  C
  C77      1.0000 0.31440  0.86460  0.40470  Biso   1.000  C
  C78      1.0000 0.12240  0.68490  0.46870  Biso   1.000  C
  H111     1.0000 0.09460  0.64360  0.42950  Biso   1.000  H
  H112     1.0000 0.13590  0.66240  0.51300  Biso   1.000  H
  H113     1.0000 0.08790  0.70540  0.48590  Biso   1.000  H
  C79      1.0000 0.38600  0.94840  0.40120  Biso   1.000  C
  H114     1.0000 0.41180  0.95690  0.35050  Biso   1.000  H
  H115     1.0000 0.36840  0.98730  0.40870  Biso   1.000  H
  H116     1.0000 0.42390  0.95490  0.44200  Biso   1.000  H
  C80      1.0000 0.37800  0.89850  0.60960  Biso   1.000  C
  H117     1.0000 0.42280  0.94790  0.58960  Biso   1.000  H
  H118     1.0000 0.38590  0.89370  0.66500  Biso   1.000  H
  H119     1.0000 0.37490  0.85300  0.58190  Biso   1.000  H
  N32      1.0000 0.27600  0.93320  0.65260  Biso   1.000  N
  H120     1.0000 0.70150  0.75610  0.29630  Biso   1.000  H
  N33      1.0000 0.25590  0.48570  0.36620  Biso   1.000  N
  H121     1.0000 0.29940  0.50710  0.33810  Biso   1.000  H
  N34      1.0000 0.18880  0.48900  0.34640  Biso   1.000  N
  N35      1.0000 0.07750  0.28080  0.62430  Biso   1.000  N
  H122     1.0000 0.06140  0.23570  0.64880  Biso   1.000  H
  C81      1.0000 0.12990  0.37420  0.53380  Biso   1.000  C
  C82      1.0000 0.11600  0.29840  0.55380  Biso   1.000  C
  C83      1.0000 0.13680  0.24170  0.51430  Biso   1.000  C
  H123     1.0000 0.09560  0.18680  0.52560  Biso   1.000  H
  H124     1.0000 0.13980  0.25060  0.45820  Biso   1.000  H
  H125     1.0000 0.18830  0.25100  0.53340  Biso   1.000  H
  C84      1.0000 0.10000  0.40100  0.59800  Biso   1.000  C
  C85      1.0000 0.17000  0.42150  0.46170  Biso   1.000  C
  C86      1.0000 0.24800  0.44570  0.43440  Biso   1.000  C
  C87      1.0000 0.13540  0.44980  0.40470  Biso   1.000  C
  C88      1.0000 0.31510  0.43750  0.46870  Biso   1.000  C
  H126     1.0000 0.35640  0.45100  0.42950  Biso   1.000  H
  H127     1.0000 0.33760  0.47350  0.51300  Biso   1.000  H
  H128     1.0000 0.29460  0.38250  0.48590  Biso   1.000  H
  C89      1.0000 0.05160  0.43760  0.40120  Biso   1.000  C
  H129     1.0000 0.04310  0.45490  0.35050  Biso   1.000  H
  H130     1.0000 0.01270  0.38110  0.40870  Biso   1.000  H
  H131     1.0000 0.04510  0.46900  0.44200  Biso   1.000  H
  C90      1.0000 0.10150  0.47950  0.60960  Biso   1.000  C
  H132     1.0000 0.05210  0.47490  0.58960  Biso   1.000  H
  H133     1.0000 0.10630  0.49220  0.66500  Biso   1.000  H
  H134     1.0000 0.14700  0.52190  0.58190  Biso   1.000  H
  N36      1.0000 0.06680  0.34280  0.65260  Biso   1.000  N
  H135     1.0000 0.24390  0.94540  0.29630  Biso   1.000  H
  N37      1.0000 0.48570  0.22980  0.86620  Biso   1.000  N
  H136     1.0000 0.50710  0.20770  0.83810  Biso   1.000  H
  N38      1.0000 0.48900  0.30020  0.84640  Biso   1.000  N
  N39      1.0000 0.28080  0.20330  0.12430  Biso   1.000  N
  H137     1.0000 0.23570  0.17430  0.14880  Biso   1.000  H
  C91      1.0000 0.37420  0.24430  0.03380  Biso   1.000  C
  C92      1.0000 0.29840  0.18240  0.05380  Biso   1.000  C
  C93      1.0000 0.24170  0.10490  0.01430  Biso   1.000  C
  H138     1.0000 0.18680  0.09120  0.02560  Biso   1.000  H
  H139     1.0000 0.25060  0.11080  0.95820  Biso   1.000  H
  H140     1.0000 0.25100  0.06270  0.03340  Biso   1.000  H
  C94      1.0000 0.40100  0.30100  0.09800  Biso   1.000  C
  C95      1.0000 0.42150  0.25150  0.96170  Biso   1.000  C
  C96      1.0000 0.44570  0.19770  0.93440  Biso   1.000  C
  C97      1.0000 0.44980  0.31440  0.90470  Biso   1.000  C
  C98      1.0000 0.43750  0.12240  0.96870  Biso   1.000  C
  H141     1.0000 0.45100  0.09460  0.92950  Biso   1.000  H
  H142     1.0000 0.47350  0.13590  0.01300  Biso   1.000  H
  H143     1.0000 0.38250  0.08790  0.98590  Biso   1.000  H
  C99      1.0000 0.43760  0.38600  0.90120  Biso   1.000  C
  H144     1.0000 0.45490  0.41180  0.85050  Biso   1.000  H
  H145     1.0000 0.38110  0.36840  0.90870  Biso   1.000  H
  H146     1.0000 0.46900  0.42390  0.94200  Biso   1.000  H
  C100     1.0000 0.47950  0.37800  0.10960  Biso   1.000  C
  H147     1.0000 0.47490  0.42280  0.08960  Biso   1.000  H
  H148     1.0000 0.49220  0.38590  0.16500  Biso   1.000  H
  H149     1.0000 0.52190  0.37490  0.08190  Biso   1.000  H
  N40      1.0000 0.34280  0.27600  0.15260  Biso   1.000  N
  H150     1.0000 0.94540  0.70150  0.79630  Biso   1.000  H
  N41      1.0000 0.77020  0.25590  0.86620  Biso   1.000  N
  H151     1.0000 0.79230  0.29940  0.83810  Biso   1.000  H
  N42      1.0000 0.69980  0.18880  0.84640  Biso   1.000  N
  N43      1.0000 0.79670  0.07750  0.12430  Biso   1.000  N
  H152     1.0000 0.82570  0.06140  0.14880  Biso   1.000  H
  C101     1.0000 0.75570  0.12990  0.03380  Biso   1.000  C
  C102     1.0000 0.81760  0.11600  0.05380  Biso   1.000  C
  C103     1.0000 0.89510  0.13680  0.01430  Biso   1.000  C
  H153     1.0000 0.90880  0.09560  0.02560  Biso   1.000  H
  H154     1.0000 0.88920  0.13980  0.95820  Biso   1.000  H
  H155     1.0000 0.93730  0.18830  0.03340  Biso   1.000  H
  C104     1.0000 0.69900  0.10000  0.09800  Biso   1.000  C
  C105     1.0000 0.74850  0.17000  0.96170  Biso   1.000  C
  C106     1.0000 0.80230  0.24800  0.93440  Biso   1.000  C
  C107     1.0000 0.68560  0.13540  0.90470  Biso   1.000  C
  C108     1.0000 0.87760  0.31510  0.96870  Biso   1.000  C
  H156     1.0000 0.90540  0.35640  0.92950  Biso   1.000  H
  H157     1.0000 0.86410  0.33760  0.01300  Biso   1.000  H
  H158     1.0000 0.91210  0.29460  0.98590  Biso   1.000  H
  C109     1.0000 0.61400  0.05160  0.90120  Biso   1.000  C
  H159     1.0000 0.58820  0.04310  0.85050  Biso   1.000  H
  H160     1.0000 0.63160  0.01270  0.90870  Biso   1.000  H
  H161     1.0000 0.57610  0.04510  0.94200  Biso   1.000  H
  C110     1.0000 0.62200  0.10150  0.10960  Biso   1.000  C
  H162     1.0000 0.57720  0.05210  0.08960  Biso   1.000  H
  H163     1.0000 0.61410  0.10630  0.16500  Biso   1.000  H
  H164     1.0000 0.62510  0.14700  0.08190  Biso   1.000  H
  N44      1.0000 0.72400  0.06680  0.15260  Biso   1.000  N
  H165     1.0000 0.29850  0.24390  0.79630  Biso   1.000  H
  N45      1.0000 0.74410  0.51430  0.86620  Biso   1.000  N
  H166     1.0000 0.70060  0.49290  0.83810  Biso   1.000  H
  N46      1.0000 0.81120  0.51100  0.84640  Biso   1.000  N
  N47      1.0000 0.92250  0.71920  0.12430  Biso   1.000  N
  H167     1.0000 0.93860  0.76430  0.14880  Biso   1.000  H
  C111     1.0000 0.87010  0.62580  0.03380  Biso   1.000  C
  C112     1.0000 0.88400  0.70160  0.05380  Biso   1.000  C
  C113     1.0000 0.86320  0.75830  0.01430  Biso   1.000  C
  H168     1.0000 0.90440  0.81320  0.02560  Biso   1.000  H
  H169     1.0000 0.86020  0.74940  0.95820  Biso   1.000  H
  H170     1.0000 0.81170  0.74900  0.03340  Biso   1.000  H
  C114     1.0000 0.90000  0.59900  0.09800  Biso   1.000  C
  C115     1.0000 0.83000  0.57850  0.96170  Biso   1.000  C
  C116     1.0000 0.75200  0.55430  0.93440  Biso   1.000  C
  C117     1.0000 0.86460  0.55020  0.90470  Biso   1.000  C
  C118     1.0000 0.68490  0.56250  0.96870  Biso   1.000  C
  H171     1.0000 0.64360  0.54900  0.92950  Biso   1.000  H
  H172     1.0000 0.66240  0.52650  0.01300  Biso   1.000  H
  H173     1.0000 0.70540  0.61750  0.98590  Biso   1.000  H
  C119     1.0000 0.94840  0.56240  0.90120  Biso   1.000  C
  H174     1.0000 0.95690  0.54510  0.85050  Biso   1.000  H
  H175     1.0000 0.98730  0.61890  0.90870  Biso   1.000  H
  H176     1.0000 0.95490  0.53100  0.94200  Biso   1.000  H
  C120     1.0000 0.89850  0.52050  0.10960  Biso   1.000  C
  H177     1.0000 0.94790  0.52510  0.08960  Biso   1.000  H
  H178     1.0000 0.89370  0.50780  0.16500  Biso   1.000  H
  H179     1.0000 0.85300  0.47810  0.08190  Biso   1.000  H
  N48      1.0000 0.93320  0.65720  0.15260  Biso   1.000  N
  H180     1.0000 0.75610  0.05460  0.79630  Biso   1.000  H
  Cu1      1.0000 0.66932  0.66706  0.75000  Biso   1.000  Cu
  Cu2      1.0000 0.54774  0.36667  0.75000  Biso   1.000  Cu
  C121     1.0000 0.61830  0.55370  0.75000  Biso   1.000  C
  N49      1.0000 0.59290  0.48230  0.75000  Biso   1.000  N
  N50      1.0000 0.79200  0.70790  0.75000  Biso   1.000  N
  C122     1.0000 0.85280  0.71510  0.75000  Biso   1.000  C
  C123     1.0000 0.93830  0.72640  0.75000  Biso   1.000  C
  H181     1.0000 0.97770  0.78340  0.75000  Biso   1.000  H
  Cu3      1.0000 0.33294  0.00226  0.75000  Biso   1.000  Cu
  Cu4      1.0000 0.63333  0.18107  0.75000  Biso   1.000  Cu
  C124     1.0000 0.44630  0.06460  0.75000  Biso   1.000  C
  N51      1.0000 0.51770  0.11060  0.75000  Biso   1.000  N
  N52      1.0000 0.29210  0.08410  0.75000  Biso   1.000  N
  C125     1.0000 0.28490  0.13770  0.75000  Biso   1.000  C
  C126     1.0000 0.27360  0.21190  0.75000  Biso   1.000  C
  H182     1.0000 0.21660  0.19430  0.75000  Biso   1.000  H
  Cu5      1.0000 0.99774  0.33068  0.75000  Biso   1.000  Cu
  Cu6      1.0000 0.81893  0.45226  0.75000  Biso   1.000  Cu
  C127     1.0000 0.93540  0.38170  0.75000  Biso   1.000  C
  N53      1.0000 0.88940  0.40710  0.75000  Biso   1.000  N
  N54      1.0000 0.91590  0.20800  0.75000  Biso   1.000  N
  C128     1.0000 0.86230  0.14720  0.75000  Biso   1.000  C
  C129     1.0000 0.78810  0.06170  0.75000  Biso   1.000  C
  H183     1.0000 0.80570  0.02230  0.75000  Biso   1.000  H
  Cu7      1.0000 0.33068  0.33294  0.25000  Biso   1.000  Cu
  Cu8      1.0000 0.45226  0.63333  0.25000  Biso   1.000  Cu
  C130     1.0000 0.38170  0.44630  0.25000  Biso   1.000  C
  N55      1.0000 0.40710  0.51770  0.25000  Biso   1.000  N
  N56      1.0000 0.20800  0.29210  0.25000  Biso   1.000  N
  C131     1.0000 0.14720  0.28490  0.25000  Biso   1.000  C
  C132     1.0000 0.06170  0.27360  0.25000  Biso   1.000  C
  H184     1.0000 0.02230  0.21660  0.25000  Biso   1.000  H
  Cu9      1.0000 0.66706  0.99774  0.25000  Biso   1.000  Cu
  Cu10     1.0000 0.36667  0.81893  0.25000  Biso   1.000  Cu
  C133     1.0000 0.55370  0.93540  0.25000  Biso   1.000  C
  N57      1.0000 0.48230  0.88940  0.25000  Biso   1.000  N
  N58      1.0000 0.70790  0.91590  0.25000  Biso   1.000  N
  C134     1.0000 0.71510  0.86230  0.25000  Biso   1.000  C
  C135     1.0000 0.72640  0.78810  0.25000  Biso   1.000  C
  H185     1.0000 0.78340  0.80570  0.25000  Biso   1.000  H
  Cu11     1.0000 0.00226  0.66932  0.25000  Biso   1.000  Cu
  Cu12     1.0000 0.18107  0.54774  0.25000  Biso   1.000  Cu
  C136     1.0000 0.06460  0.61830  0.25000  Biso   1.000  C
  N59      1.0000 0.11060  0.59290  0.25000  Biso   1.000  N
  N60      1.0000 0.08410  0.79200  0.25000  Biso   1.000  N
  C137     1.0000 0.13770  0.85280  0.25000  Biso   1.000  C
  C138     1.0000 0.21190  0.93830  0.25000  Biso   1.000  C
  H186     1.0000 0.19430  0.97770  0.25000  Biso   1.000  H
  Br1      1.0000 0.66667  0.33333  0.75000  Biso   1.000  Br
  Br2      1.0000 0.33333  0.66667  0.25000  Biso   1.000  Br
