data_image0
_cell_length_a       12.4143
_cell_length_b       7.7166
_cell_length_c       18.327
_cell_angle_alpha    90
_cell_angle_beta     90
_cell_angle_gamma    90

_symmetry_space_group_name_H-M    "P 1"
_symmetry_int_tables_number       1

loop_
  _symmetry_equiv_pos_as_xyz
  'x, y, z'

loop_
  _atom_site_label
  _atom_site_occupancy
  _atom_site_fract_x
  _atom_site_fract_y
  _atom_site_fract_z
  _atom_site_thermal_displace_type
  _atom_site_B_iso_or_equiv
  _atom_site_type_symbol
  In1      1.0000 0.43362  0.71118  0.30351  Biso   1.000  In
  In2      1.0000 0.62305  0.28402  0.45164  Biso   1.000  In
  P1       1.0000 0.36540  0.37060  0.40590  Biso   1.000  P
  H1       1.0000 0.38200  0.22000  0.36600  Biso   1.000  H
  P2       1.0000 0.19191  0.87170  0.35007  Biso   1.000  P
  H2       1.0000 0.17100  0.72900  0.38400  Biso   1.000  H
  P3       1.0000 0.44711  0.74860  0.12234  Biso   1.000  P
  H3       1.0000 0.54100  0.70300  0.09800  Biso   1.000  H
  O1       1.0000 0.35150  0.49620  0.34230  Biso   1.000  O
  O2       1.0000 0.29030  0.86470  0.29990  Biso   1.000  O
  O3       1.0000 0.46330  0.81410  0.41280  Biso   1.000  O
  O4       1.0000 0.51800  0.96020  0.28360  Biso   1.000  O
  O5       1.0000 0.09100  0.90360  0.30580  Biso   1.000  O
  O6       1.0000 0.42630  0.64990  0.19280  Biso   1.000  O
  O7       1.0000 0.46790  0.40280  0.44870  Biso   1.000  O
  O8       1.0000 0.36920  0.68210  0.06400  Biso   1.000  O
  O9       1.0000 0.26680  0.36780  0.45440  Biso   1.000  O
  O10      1.0000 0.20530  0.99790  0.41310  Biso   1.000  O
  O11      1.0000 0.53660  0.03560  0.47100  Biso   1.000  O
  O12      1.0000 0.59240  0.18120  0.34160  Biso   1.000  O
  O13      1.0000 0.44860  0.94410  0.13130  Biso   1.000  O
  C1       1.0000 0.51090  0.95640  0.41470  Biso   1.000  C
  C2       1.0000 0.54250  0.03890  0.34000  Biso   1.000  C
  In3      1.0000 0.56638  0.28882  0.80351  Biso   1.000  In
  In4      1.0000 0.37695  0.71598  0.95164  Biso   1.000  In
  P4       1.0000 0.63460  0.62940  0.90590  Biso   1.000  P
  H4       1.0000 0.61800  0.78000  0.86600  Biso   1.000  H
  P5       1.0000 0.80809  0.12830  0.85007  Biso   1.000  P
  H5       1.0000 0.82900  0.27100  0.88400  Biso   1.000  H
  P6       1.0000 0.55289  0.25140  0.62234  Biso   1.000  P
  H6       1.0000 0.45900  0.29700  0.59800  Biso   1.000  H
  O14      1.0000 0.64850  0.50380  0.84230  Biso   1.000  O
  O15      1.0000 0.70970  0.13530  0.79990  Biso   1.000  O
  O16      1.0000 0.53670  0.18590  0.91280  Biso   1.000  O
  O17      1.0000 0.48200  0.03980  0.78360  Biso   1.000  O
  O18      1.0000 0.90900  0.09640  0.80580  Biso   1.000  O
  O19      1.0000 0.57370  0.35010  0.69280  Biso   1.000  O
  O20      1.0000 0.53210  0.59720  0.94870  Biso   1.000  O
  O21      1.0000 0.63080  0.31790  0.56400  Biso   1.000  O
  O22      1.0000 0.73320  0.63220  0.95440  Biso   1.000  O
  O23      1.0000 0.79470  0.00210  0.91310  Biso   1.000  O
  O24      1.0000 0.46340  0.96440  0.97100  Biso   1.000  O
  O25      1.0000 0.40760  0.81880  0.84160  Biso   1.000  O
  O26      1.0000 0.55140  0.05590  0.63130  Biso   1.000  O
  C3       1.0000 0.48910  0.04360  0.91470  Biso   1.000  C
  C4       1.0000 0.45750  0.96110  0.84000  Biso   1.000  C
  In5      1.0000 0.93362  0.78882  0.30351  Biso   1.000  In
  In6      1.0000 0.12305  0.21598  0.45164  Biso   1.000  In
  P7       1.0000 0.86540  0.12940  0.40590  Biso   1.000  P
  H7       1.0000 0.88200  0.28000  0.36600  Biso   1.000  H
  P8       1.0000 0.69191  0.62830  0.35007  Biso   1.000  P
  H8       1.0000 0.67100  0.77100  0.38400  Biso   1.000  H
  P9       1.0000 0.94711  0.75140  0.12234  Biso   1.000  P
  H9       1.0000 0.04100  0.79700  0.09800  Biso   1.000  H
  O27      1.0000 0.85150  0.00380  0.34230  Biso   1.000  O
  O28      1.0000 0.79030  0.63530  0.29990  Biso   1.000  O
  O29      1.0000 0.96330  0.68590  0.41280  Biso   1.000  O
  O30      1.0000 0.01800  0.53980  0.28360  Biso   1.000  O
  O31      1.0000 0.59100  0.59640  0.30580  Biso   1.000  O
  O32      1.0000 0.92630  0.85010  0.19280  Biso   1.000  O
  O33      1.0000 0.96790  0.09720  0.44870  Biso   1.000  O
  O34      1.0000 0.86920  0.81790  0.06400  Biso   1.000  O
  O35      1.0000 0.76680  0.13220  0.45440  Biso   1.000  O
  O36      1.0000 0.70530  0.50210  0.41310  Biso   1.000  O
  O37      1.0000 0.03660  0.46440  0.47100  Biso   1.000  O
  O38      1.0000 0.09240  0.31880  0.34160  Biso   1.000  O
  O39      1.0000 0.94860  0.55590  0.13130  Biso   1.000  O
  C5       1.0000 0.01090  0.54360  0.41470  Biso   1.000  C
  C6       1.0000 0.04250  0.46110  0.34000  Biso   1.000  C
  In7      1.0000 0.06638  0.21118  0.80351  Biso   1.000  In
  In8      1.0000 0.87695  0.78402  0.95164  Biso   1.000  In
  P10      1.0000 0.13460  0.87060  0.90590  Biso   1.000  P
  H10      1.0000 0.11800  0.72000  0.86600  Biso   1.000  H
  P11      1.0000 0.30809  0.37170  0.85007  Biso   1.000  P
  H11      1.0000 0.32900  0.22900  0.88400  Biso   1.000  H
  P12      1.0000 0.05289  0.24860  0.62234  Biso   1.000  P
  H12      1.0000 0.95900  0.20300  0.59800  Biso   1.000  H
  O40      1.0000 0.14850  0.99620  0.84230  Biso   1.000  O
  O41      1.0000 0.20970  0.36470  0.79990  Biso   1.000  O
  O42      1.0000 0.03670  0.31410  0.91280  Biso   1.000  O
  O43      1.0000 0.98200  0.46020  0.78360  Biso   1.000  O
  O44      1.0000 0.40900  0.40360  0.80580  Biso   1.000  O
  O45      1.0000 0.07370  0.14990  0.69280  Biso   1.000  O
  O46      1.0000 0.03210  0.90280  0.94870  Biso   1.000  O
  O47      1.0000 0.13080  0.18210  0.56400  Biso   1.000  O
  O48      1.0000 0.23320  0.86780  0.95440  Biso   1.000  O
  O49      1.0000 0.29470  0.49790  0.91310  Biso   1.000  O
  O50      1.0000 0.96340  0.53560  0.97100  Biso   1.000  O
  O51      1.0000 0.90760  0.68120  0.84160  Biso   1.000  O
  O52      1.0000 0.05140  0.44410  0.63130  Biso   1.000  O
  C7       1.0000 0.98910  0.45640  0.91470  Biso   1.000  C
  C8       1.0000 0.95750  0.53890  0.84000  Biso   1.000  C
