data_image0
_cell_length_a       10.615
_cell_length_b       14.5889
_cell_length_c       29.856
_cell_angle_alpha    90
_cell_angle_beta     90.395
_cell_angle_gamma    90

_symmetry_space_group_name_H-M    P 1
_symmetry_int_tables_number       1

loop_
  _symmetry_equiv_pos_as_xyz
  'x, y, z'

loop_
  _atom_site_label
  _atom_site_occupancy
  _atom_site_fract_x
  _atom_site_fract_y
  _atom_site_fract_z
  _atom_site_thermal_displace_type
  _atom_site_B_iso_or_equiv
  _atom_site_type_symbol
  Cd1      1.0000 0.35457  0.16625  0.22468  Biso   1.000  Cd
  Cd2      1.0000 0.81476  0.95873  0.25048  Biso   1.000  Cd
  Cd3      1.0000 0.64543  0.66625  0.27532  Biso   1.000  Cd
  Cd4      1.0000 0.18524  0.45873  0.24952  Biso   1.000  Cd
  Cd5      1.0000 0.64543  0.83375  0.77532  Biso   1.000  Cd
  Cd6      1.0000 0.18524  0.04127  0.74952  Biso   1.000  Cd
  Cd7      1.0000 0.35457  0.33375  0.72468  Biso   1.000  Cd
  Cd8      1.0000 0.81476  0.54127  0.75048  Biso   1.000  Cd
  H1       1.0000 0.10740  0.87490  0.15720  Biso   1.000  H
  H2       1.0000 0.14010  0.02770  0.17410  Biso   1.000  H
  H3       1.0000 0.69800  0.42790  0.20600  Biso   1.000  H
  H4       1.0000 0.88430  0.50320  0.22080  Biso   1.000  H
  H5       1.0000 0.47210  0.34710  0.18220  Biso   1.000  H
  H6       1.0000 0.56280  0.40250  0.11720  Biso   1.000  H
  H7       1.0000 0.35470  0.21840  0.05050  Biso   1.000  H
  H8       1.0000 0.27960  0.16790  0.11880  Biso   1.000  H
  H9       1.0000 0.34590  0.36450  0.99940  Biso   1.000  H
  H10      1.0000 0.78640  0.41860  0.98880  Biso   1.000  H
  H11      1.0000 0.54940  0.36270  0.86850  Biso   1.000  H
  H12      1.0000 0.61980  0.41140  0.80010  Biso   1.000  H
  H13      1.0000 0.87360  0.56700  0.85660  Biso   1.000  H
  H14      1.0000 0.81030  0.52110  0.92640  Biso   1.000  H
  H15      1.0000 0.25480  0.36290  0.94240  Biso   1.000  H
  H16      1.0000 0.26490  0.45620  0.96930  Biso   1.000  H
  H17      1.0000 0.25440  0.44790  0.87390  Biso   1.000  H
  H18      1.0000 0.25670  0.53990  0.90180  Biso   1.000  H
  H19      1.0000 0.06830  0.41590  0.90500  Biso   1.000  H
  H20      1.0000 0.93740  0.16360  0.11430  Biso   1.000  H
  H21      1.0000 0.90510  0.40330  0.05590  Biso   1.000  H
  H22      1.0000 0.88030  0.32100  0.02390  Biso   1.000  H
  H23      1.0000 0.92390  0.30140  0.11420  Biso   1.000  H
  H24      1.0000 0.03170  0.30340  0.07990  Biso   1.000  H
  H25      1.0000 0.89260  0.37490  0.34280  Biso   1.000  H
  H26      1.0000 0.85990  0.52770  0.32590  Biso   1.000  H
  H27      1.0000 0.30200  0.92790  0.29400  Biso   1.000  H
  H28      1.0000 0.11570  0.00320  0.27920  Biso   1.000  H
  H29      1.0000 0.52790  0.84710  0.31780  Biso   1.000  H
  H30      1.0000 0.43720  0.90250  0.38280  Biso   1.000  H
  H31      1.0000 0.64530  0.71840  0.44950  Biso   1.000  H
  H32      1.0000 0.72040  0.66790  0.38120  Biso   1.000  H
  H33      1.0000 0.65410  0.86450  0.50060  Biso   1.000  H
  H34      1.0000 0.21360  0.91860  0.51120  Biso   1.000  H
  H35      1.0000 0.45060  0.86270  0.63150  Biso   1.000  H
  H36      1.0000 0.38020  0.91140  0.69990  Biso   1.000  H
  H37      1.0000 0.12640  0.06700  0.64340  Biso   1.000  H
  H38      1.0000 0.18970  0.02110  0.57360  Biso   1.000  H
  H39      1.0000 0.74520  0.86290  0.55760  Biso   1.000  H
  H40      1.0000 0.73510  0.95620  0.53070  Biso   1.000  H
  H41      1.0000 0.74560  0.94790  0.62610  Biso   1.000  H
  H42      1.0000 0.74330  0.03990  0.59820  Biso   1.000  H
  H43      1.0000 0.93170  0.91590  0.59500  Biso   1.000  H
  H44      1.0000 0.06260  0.66360  0.38570  Biso   1.000  H
  H45      1.0000 0.09490  0.90330  0.44410  Biso   1.000  H
  H46      1.0000 0.11970  0.82100  0.47610  Biso   1.000  H
  H47      1.0000 0.07610  0.80140  0.38580  Biso   1.000  H
  H48      1.0000 0.96830  0.80340  0.42010  Biso   1.000  H
  H49      1.0000 0.89260  0.12510  0.84280  Biso   1.000  H
  H50      1.0000 0.85990  0.97230  0.82590  Biso   1.000  H
  H51      1.0000 0.30200  0.57210  0.79400  Biso   1.000  H
  H52      1.0000 0.11570  0.49680  0.77920  Biso   1.000  H
  H53      1.0000 0.52790  0.65290  0.81780  Biso   1.000  H
  H54      1.0000 0.43720  0.59750  0.88280  Biso   1.000  H
  H55      1.0000 0.64530  0.78160  0.94950  Biso   1.000  H
  H56      1.0000 0.72040  0.83210  0.88120  Biso   1.000  H
  H57      1.0000 0.65410  0.63550  0.00060  Biso   1.000  H
  H58      1.0000 0.21360  0.58140  0.01120  Biso   1.000  H
  H59      1.0000 0.45060  0.63730  0.13150  Biso   1.000  H
  H60      1.0000 0.38020  0.58860  0.19990  Biso   1.000  H
  H61      1.0000 0.12640  0.43300  0.14340  Biso   1.000  H
  H62      1.0000 0.18970  0.47890  0.07360  Biso   1.000  H
  H63      1.0000 0.74520  0.63710  0.05760  Biso   1.000  H
  H64      1.0000 0.73510  0.54380  0.03070  Biso   1.000  H
  H65      1.0000 0.74560  0.55210  0.12610  Biso   1.000  H
  H66      1.0000 0.74330  0.46010  0.09820  Biso   1.000  H
  H67      1.0000 0.93170  0.58410  0.09500  Biso   1.000  H
  H68      1.0000 0.06260  0.83640  0.88570  Biso   1.000  H
  H69      1.0000 0.09490  0.59670  0.94410  Biso   1.000  H
  H70      1.0000 0.11970  0.67900  0.97610  Biso   1.000  H
  H71      1.0000 0.07610  0.69860  0.88580  Biso   1.000  H
  H72      1.0000 0.96830  0.69660  0.92010  Biso   1.000  H
  H73      1.0000 0.10740  0.62510  0.65720  Biso   1.000  H
  H74      1.0000 0.14010  0.47230  0.67410  Biso   1.000  H
  H75      1.0000 0.69800  0.07210  0.70600  Biso   1.000  H
  H76      1.0000 0.88430  0.99680  0.72080  Biso   1.000  H
  H77      1.0000 0.47210  0.15290  0.68220  Biso   1.000  H
  H78      1.0000 0.56280  0.09750  0.61720  Biso   1.000  H
  H79      1.0000 0.35470  0.28160  0.55050  Biso   1.000  H
  H80      1.0000 0.27960  0.33210  0.61880  Biso   1.000  H
  H81      1.0000 0.34590  0.13550  0.49940  Biso   1.000  H
  H82      1.0000 0.78640  0.08140  0.48880  Biso   1.000  H
  H83      1.0000 0.54940  0.13730  0.36850  Biso   1.000  H
  H84      1.0000 0.61980  0.08860  0.30010  Biso   1.000  H
  H85      1.0000 0.87360  0.93300  0.35660  Biso   1.000  H
  H86      1.0000 0.81030  0.97890  0.42640  Biso   1.000  H
  H87      1.0000 0.25480  0.13710  0.44240  Biso   1.000  H
  H88      1.0000 0.26490  0.04380  0.46930  Biso   1.000  H
  H89      1.0000 0.25440  0.05210  0.37390  Biso   1.000  H
  H90      1.0000 0.25670  0.96010  0.40180  Biso   1.000  H
  H91      1.0000 0.06830  0.08410  0.40500  Biso   1.000  H
  H92      1.0000 0.93740  0.33640  0.61430  Biso   1.000  H
  H93      1.0000 0.90510  0.09670  0.55590  Biso   1.000  H
  H94      1.0000 0.88030  0.17900  0.52390  Biso   1.000  H
  H95      1.0000 0.92390  0.19860  0.61420  Biso   1.000  H
  H96      1.0000 0.03170  0.19660  0.57990  Biso   1.000  H
  C1       1.0000 0.41150  0.95640  0.19977  Biso   1.000  C
  C2       1.0000 0.39860  0.86350  0.19160  Biso   1.000  C
  C3       1.0000 0.18490  0.89440  0.16830  Biso   1.000  C
  C4       1.0000 0.20540  0.98610  0.17845  Biso   1.000  C
  C5       1.0000 0.53400  0.99720  0.21742  Biso   1.000  C
  C6       1.0000 0.49970  0.79270  0.20177  Biso   1.000  C
  C7       1.0000 0.99350  0.30380  0.21861  Biso   1.000  C
  C8       1.0000 0.88350  0.25450  0.21070  Biso   1.000  C
  C9       1.0000 0.77200  0.39450  0.20970  Biso   1.000  C
  C10      1.0000 0.88450  0.43970  0.21823  Biso   1.000  C
  C11      1.0000 0.12200  0.25800  0.22070  Biso   1.000  C
  C12      1.0000 0.87950  0.15130  0.20550  Biso   1.000  C
  C13      1.0000 0.46370  0.31370  0.15580  Biso   1.000  C
  C14      1.0000 0.50830  0.35260  0.11630  Biso   1.000  C
  C15      1.0000 0.47030  0.31570  0.07560  Biso   1.000  C
  C16      1.0000 0.38580  0.24330  0.07700  Biso   1.000  C
  C17      1.0000 0.34750  0.20810  0.11780  Biso   1.000  C
  C18      1.0000 0.50140  0.39880  0.96040  Biso   1.000  C
  C19      1.0000 0.63020  0.40290  0.94990  Biso   1.000  C
  C20      1.0000 0.51730  0.35180  0.03360  Biso   1.000  C
  C21      1.0000 0.43310  0.37030  0.99810  Biso   1.000  C
  C22      1.0000 0.70350  0.39800  0.98840  Biso   1.000  C
  C23      1.0000 0.64750  0.36050  0.02650  Biso   1.000  C
  C24      1.0000 0.67250  0.43530  0.90590  Biso   1.000  C
  C25      1.0000 0.61600  0.40410  0.86700  Biso   1.000  C
  C26      1.0000 0.65830  0.43420  0.82588  Biso   1.000  C
  C27      1.0000 0.80750  0.52550  0.85890  Biso   1.000  C
  C28      1.0000 0.76990  0.49770  0.90110  Biso   1.000  C
  C29      1.0000 0.28380  0.42590  0.94130  Biso   1.000  C
  C30      1.0000 0.22960  0.47640  0.90190  Biso   1.000  C
  C31      1.0000 0.86900  0.34200  0.05430  Biso   1.000  C
  C32      1.0000 0.94700  0.28140  0.08400  Biso   1.000  C
  C33      1.0000 0.58850  0.45640  0.30023  Biso   1.000  C
  C34      1.0000 0.60140  0.36350  0.30840  Biso   1.000  C
  C35      1.0000 0.81510  0.39440  0.33170  Biso   1.000  C
  C36      1.0000 0.79460  0.48610  0.32155  Biso   1.000  C
  C37      1.0000 0.46600  0.49720  0.28258  Biso   1.000  C
  C38      1.0000 0.50030  0.29270  0.29823  Biso   1.000  C
  C39      1.0000 0.00650  0.80380  0.28139  Biso   1.000  C
  C40      1.0000 0.11650  0.75450  0.28930  Biso   1.000  C
  C41      1.0000 0.22800  0.89450  0.29030  Biso   1.000  C
  C42      1.0000 0.11550  0.93970  0.28177  Biso   1.000  C
  C43      1.0000 0.87800  0.75800  0.27930  Biso   1.000  C
  C44      1.0000 0.12050  0.65130  0.29450  Biso   1.000  C
  C45      1.0000 0.53630  0.81370  0.34420  Biso   1.000  C
  C46      1.0000 0.49170  0.85260  0.38370  Biso   1.000  C
  C47      1.0000 0.52970  0.81570  0.42440  Biso   1.000  C
  C48      1.0000 0.61420  0.74330  0.42300  Biso   1.000  C
  C49      1.0000 0.65250  0.70810  0.38220  Biso   1.000  C
  C50      1.0000 0.49860  0.89880  0.53960  Biso   1.000  C
  C51      1.0000 0.36980  0.90290  0.55010  Biso   1.000  C
  C52      1.0000 0.48270  0.85180  0.46640  Biso   1.000  C
  C53      1.0000 0.56690  0.87030  0.50190  Biso   1.000  C
  C54      1.0000 0.29650  0.89800  0.51160  Biso   1.000  C
  C55      1.0000 0.35250  0.86050  0.47350  Biso   1.000  C
  C56      1.0000 0.32750  0.93530  0.59410  Biso   1.000  C
  C57      1.0000 0.38400  0.90410  0.63300  Biso   1.000  C
  C58      1.0000 0.34170  0.93420  0.67412  Biso   1.000  C
  C59      1.0000 0.19250  0.02550  0.64110  Biso   1.000  C
  C60      1.0000 0.23010  0.99770  0.59890  Biso   1.000  C
  C61      1.0000 0.71620  0.92590  0.55870  Biso   1.000  C
  C62      1.0000 0.77040  0.97640  0.59810  Biso   1.000  C
  C63      1.0000 0.13100  0.84200  0.44570  Biso   1.000  C
  C64      1.0000 0.05300  0.78140  0.41600  Biso   1.000  C
  C65      1.0000 0.58850  0.04360  0.80023  Biso   1.000  C
  C66      1.0000 0.60140  0.13650  0.80840  Biso   1.000  C
  C67      1.0000 0.81510  0.10560  0.83170  Biso   1.000  C
  C68      1.0000 0.79460  0.01390  0.82155  Biso   1.000  C
  C69      1.0000 0.46600  0.00280  0.78258  Biso   1.000  C
  C70      1.0000 0.50030  0.20730  0.79823  Biso   1.000  C
  C71      1.0000 0.00650  0.69620  0.78139  Biso   1.000  C
  C72      1.0000 0.11650  0.74550  0.78930  Biso   1.000  C
  C73      1.0000 0.22800  0.60550  0.79030  Biso   1.000  C
  C74      1.0000 0.11550  0.56030  0.78177  Biso   1.000  C
  C75      1.0000 0.87800  0.74200  0.77930  Biso   1.000  C
  C76      1.0000 0.12050  0.84870  0.79450  Biso   1.000  C
  C77      1.0000 0.53630  0.68630  0.84420  Biso   1.000  C
  C78      1.0000 0.49170  0.64740  0.88370  Biso   1.000  C
  C79      1.0000 0.52970  0.68430  0.92440  Biso   1.000  C
  C80      1.0000 0.61420  0.75670  0.92300  Biso   1.000  C
  C81      1.0000 0.65250  0.79190  0.88220  Biso   1.000  C
  C82      1.0000 0.49860  0.60120  0.03960  Biso   1.000  C
  C83      1.0000 0.36980  0.59710  0.05010  Biso   1.000  C
  C84      1.0000 0.48270  0.64820  0.96640  Biso   1.000  C
  C85      1.0000 0.56690  0.62970  0.00190  Biso   1.000  C
  C86      1.0000 0.29650  0.60200  0.01160  Biso   1.000  C
  C87      1.0000 0.35250  0.63950  0.97350  Biso   1.000  C
  C88      1.0000 0.32750  0.56470  0.09410  Biso   1.000  C
  C89      1.0000 0.38400  0.59590  0.13300  Biso   1.000  C
  C90      1.0000 0.34170  0.56580  0.17412  Biso   1.000  C
  C91      1.0000 0.19250  0.47450  0.14110  Biso   1.000  C
  C92      1.0000 0.23010  0.50230  0.09890  Biso   1.000  C
  C93      1.0000 0.71620  0.57410  0.05870  Biso   1.000  C
  C94      1.0000 0.77040  0.52360  0.09810  Biso   1.000  C
  C95      1.0000 0.13100  0.65800  0.94570  Biso   1.000  C
  C96      1.0000 0.05300  0.71860  0.91600  Biso   1.000  C
  C97      1.0000 0.41150  0.54360  0.69977  Biso   1.000  C
  C98      1.0000 0.39860  0.63650  0.69160  Biso   1.000  C
  C99      1.0000 0.18490  0.60560  0.66830  Biso   1.000  C
  C100     1.0000 0.20540  0.51390  0.67845  Biso   1.000  C
  C101     1.0000 0.53400  0.50280  0.71742  Biso   1.000  C
  C102     1.0000 0.49970  0.70730  0.70177  Biso   1.000  C
  C103     1.0000 0.99350  0.19620  0.71861  Biso   1.000  C
  C104     1.0000 0.88350  0.24550  0.71070  Biso   1.000  C
  C105     1.0000 0.77200  0.10550  0.70970  Biso   1.000  C
  C106     1.0000 0.88450  0.06030  0.71823  Biso   1.000  C
  C107     1.0000 0.12200  0.24200  0.72070  Biso   1.000  C
  C108     1.0000 0.87950  0.34870  0.70550  Biso   1.000  C
  C109     1.0000 0.46370  0.18630  0.65580  Biso   1.000  C
  C110     1.0000 0.50830  0.14740  0.61630  Biso   1.000  C
  C111     1.0000 0.47030  0.18430  0.57560  Biso   1.000  C
  C112     1.0000 0.38580  0.25670  0.57700  Biso   1.000  C
  C113     1.0000 0.34750  0.29190  0.61780  Biso   1.000  C
  C114     1.0000 0.50140  0.10120  0.46040  Biso   1.000  C
  C115     1.0000 0.63020  0.09710  0.44990  Biso   1.000  C
  C116     1.0000 0.51730  0.14820  0.53360  Biso   1.000  C
  C117     1.0000 0.43310  0.12970  0.49810  Biso   1.000  C
  C118     1.0000 0.70350  0.10200  0.48840  Biso   1.000  C
  C119     1.0000 0.64750  0.13950  0.52650  Biso   1.000  C
  C120     1.0000 0.67250  0.06470  0.40590  Biso   1.000  C
  C121     1.0000 0.61600  0.09590  0.36700  Biso   1.000  C
  C122     1.0000 0.65830  0.06580  0.32588  Biso   1.000  C
  C123     1.0000 0.80750  0.97450  0.35890  Biso   1.000  C
  C124     1.0000 0.76990  0.00230  0.40110  Biso   1.000  C
  C125     1.0000 0.28380  0.07410  0.44130  Biso   1.000  C
  C126     1.0000 0.22960  0.02360  0.40190  Biso   1.000  C
  C127     1.0000 0.86900  0.15800  0.55430  Biso   1.000  C
  C128     1.0000 0.94700  0.21860  0.58400  Biso   1.000  C
  N1       1.0000 0.31620  0.01670  0.19421  Biso   1.000  N
  N2       1.0000 0.28230  0.83210  0.17520  Biso   1.000  N
  N3       1.0000 0.99360  0.39450  0.22283  Biso   1.000  N
  N4       1.0000 0.76960  0.30140  0.20680  Biso   1.000  N
  N5       1.0000 0.41050  0.23270  0.15790  Biso   1.000  N
  N6       1.0000 0.75280  0.49520  0.82151  Biso   1.000  N
  N7       1.0000 0.68380  0.51670  0.30579  Biso   1.000  N
  N8       1.0000 0.71770  0.33210  0.32480  Biso   1.000  N
  N9       1.0000 0.00640  0.89450  0.27717  Biso   1.000  N
  N10      1.0000 0.23040  0.80140  0.29320  Biso   1.000  N
  N11      1.0000 0.58950  0.73270  0.34210  Biso   1.000  N
  N12      1.0000 0.24720  0.99520  0.67849  Biso   1.000  N
  N13      1.0000 0.68380  0.98330  0.80579  Biso   1.000  N
  N14      1.0000 0.71770  0.16790  0.82480  Biso   1.000  N
  N15      1.0000 0.00640  0.60550  0.77717  Biso   1.000  N
  N16      1.0000 0.23040  0.69860  0.79320  Biso   1.000  N
  N17      1.0000 0.58950  0.76730  0.84210  Biso   1.000  N
  N18      1.0000 0.24720  0.50480  0.17849  Biso   1.000  N
  N19      1.0000 0.31620  0.48330  0.69421  Biso   1.000  N
  N20      1.0000 0.28230  0.66790  0.67520  Biso   1.000  N
  N21      1.0000 0.99360  0.10550  0.72283  Biso   1.000  N
  N22      1.0000 0.76960  0.19860  0.70680  Biso   1.000  N
  N23      1.0000 0.41050  0.26730  0.65790  Biso   1.000  N
  N24      1.0000 0.75280  0.00480  0.32151  Biso   1.000  N
  O1       1.0000 0.29070  0.13040  0.29648  Biso   1.000  O
  O2       1.0000 0.88630  0.93620  0.17679  Biso   1.000  O
  O3       1.0000 0.53830  0.07970  0.22767  Biso   1.000  O
  O4       1.0000 0.62460  0.94160  0.21933  Biso   1.000  O
  O5       1.0000 0.50340  0.76450  0.24101  Biso   1.000  O
  O6       1.0000 0.56340  0.76270  0.16925  Biso   1.000  O
  O7       1.0000 0.21570  0.30540  0.23328  Biso   1.000  O
  O8       1.0000 0.13040  0.17620  0.20943  Biso   1.000  O
  O9       1.0000 0.86840  0.11800  0.16685  Biso   1.000  O
  O10      1.0000 0.87980  0.10850  0.24176  Biso   1.000  O
  O11      1.0000 0.42020  0.43200  0.93010  Biso   1.000  O
  O12      1.0000 0.09070  0.46920  0.90860  Biso   1.000  O
  O13      1.0000 0.72860  0.35270  0.06130  Biso   1.000  O
  O14      1.0000 0.96350  0.17950  0.08970  Biso   1.000  O
  O15      1.0000 0.70930  0.63040  0.20352  Biso   1.000  O
  O16      1.0000 0.11370  0.43620  0.32321  Biso   1.000  O
  O17      1.0000 0.46170  0.57970  0.27233  Biso   1.000  O
  O18      1.0000 0.37540  0.44160  0.28067  Biso   1.000  O
  O19      1.0000 0.49660  0.26450  0.25899  Biso   1.000  O
  O20      1.0000 0.43660  0.26270  0.33075  Biso   1.000  O
  O21      1.0000 0.78430  0.80540  0.26672  Biso   1.000  O
  O22      1.0000 0.86960  0.67620  0.29057  Biso   1.000  O
  O23      1.0000 0.13160  0.61800  0.33315  Biso   1.000  O
  O24      1.0000 0.12020  0.60850  0.25824  Biso   1.000  O
  O25      1.0000 0.57980  0.93200  0.56990  Biso   1.000  O
  O26      1.0000 0.90930  0.96920  0.59140  Biso   1.000  O
  O27      1.0000 0.27140  0.85270  0.43870  Biso   1.000  O
  O28      1.0000 0.03650  0.67950  0.41030  Biso   1.000  O
  O29      1.0000 0.70930  0.86960  0.70352  Biso   1.000  O
  O30      1.0000 0.11370  0.06380  0.82321  Biso   1.000  O
  O31      1.0000 0.46170  0.92030  0.77233  Biso   1.000  O
  O32      1.0000 0.37540  0.05840  0.78067  Biso   1.000  O
  O33      1.0000 0.49660  0.23550  0.75899  Biso   1.000  O
  O34      1.0000 0.43660  0.23730  0.83075  Biso   1.000  O
  O35      1.0000 0.78430  0.69460  0.76672  Biso   1.000  O
  O36      1.0000 0.86960  0.82380  0.79057  Biso   1.000  O
  O37      1.0000 0.13160  0.88200  0.83315  Biso   1.000  O
  O38      1.0000 0.12020  0.89150  0.75824  Biso   1.000  O
  O39      1.0000 0.57980  0.56800  0.06990  Biso   1.000  O
  O40      1.0000 0.90930  0.53080  0.09140  Biso   1.000  O
  O41      1.0000 0.27140  0.64730  0.93870  Biso   1.000  O
  O42      1.0000 0.03650  0.82050  0.91030  Biso   1.000  O
  O43      1.0000 0.29070  0.36960  0.79648  Biso   1.000  O
  O44      1.0000 0.88630  0.56380  0.67679  Biso   1.000  O
  O45      1.0000 0.53830  0.42030  0.72767  Biso   1.000  O
  O46      1.0000 0.62460  0.55840  0.71933  Biso   1.000  O
  O47      1.0000 0.50340  0.73550  0.74101  Biso   1.000  O
  O48      1.0000 0.56340  0.73730  0.66925  Biso   1.000  O
  O49      1.0000 0.21570  0.19460  0.73328  Biso   1.000  O
  O50      1.0000 0.13040  0.32380  0.70943  Biso   1.000  O
  O51      1.0000 0.86840  0.38200  0.66685  Biso   1.000  O
  O52      1.0000 0.87980  0.39150  0.74176  Biso   1.000  O
  O53      1.0000 0.42020  0.06800  0.43010  Biso   1.000  O
  O54      1.0000 0.09070  0.03080  0.40860  Biso   1.000  O
  O55      1.0000 0.72860  0.14730  0.56130  Biso   1.000  O
  O56      1.0000 0.96350  0.32050  0.58970  Biso   1.000  O
