data_image0
_cell_length_a       8.24123
_cell_length_b       10.8347
_cell_length_c       22.8445
_cell_angle_alpha    82.9155
_cell_angle_beta     79.6083
_cell_angle_gamma    67.6467

_symmetry_space_group_name_H-M    P 1
_symmetry_int_tables_number       1

loop_
  _symmetry_equiv_pos_as_xyz
  'x, y, z'

loop_
  _atom_site_label
  _atom_site_occupancy
  _atom_site_fract_x
  _atom_site_fract_y
  _atom_site_fract_z
  _atom_site_thermal_displace_type
  _atom_site_B_iso_or_equiv
  _atom_site_type_symbol
  Ag1      1.0000 0.14057  0.11663  0.15297  Biso   1.000  Ag
  Ag2      1.0000 0.41017  0.38337  0.34703  Biso   1.000  Ag
  Ag3      1.0000 0.85943  0.88337  0.84703  Biso   1.000  Ag
  Ag4      1.0000 0.58983  0.61663  0.65297  Biso   1.000  Ag
  H1       1.0000 0.24800  0.15610  0.99530  Biso   1.000  H
  H2       1.0000 0.81760  0.37410  0.09350  Biso   1.000  H
  H3       1.0000 0.67010  0.86050  0.72210  Biso   1.000  H
  H4       1.0000 0.61750  0.52950  0.79530  Biso   1.000  H
  H5       1.0000 0.99180  0.97320  0.07020  Biso   1.000  H
  H6       1.0000 0.48530  0.82050  0.09910  Biso   1.000  H
  H7       1.0000 0.39940  0.34390  0.50470  Biso   1.000  H
  H8       1.0000 0.28520  0.12590  0.40650  Biso   1.000  H
  H9       1.0000 0.25270  0.63950  0.77790  Biso   1.000  H
  H10      1.0000 0.94230  0.97050  0.70470  Biso   1.000  H
  H11      1.0000 0.03520  0.52680  0.42980  Biso   1.000  H
  H12      1.0000 0.40490  0.67950  0.40090  Biso   1.000  H
  H13      1.0000 0.75200  0.84390  0.00470  Biso   1.000  H
  H14      1.0000 0.18240  0.62590  0.90650  Biso   1.000  H
  H15      1.0000 0.32990  0.13950  0.27790  Biso   1.000  H
  H16      1.0000 0.38250  0.47050  0.20470  Biso   1.000  H
  H17      1.0000 0.00820  0.02680  0.92980  Biso   1.000  H
  H18      1.0000 0.51470  0.17950  0.90090  Biso   1.000  H
  H19      1.0000 0.60060  0.65610  0.49530  Biso   1.000  H
  H20      1.0000 0.71480  0.87410  0.59350  Biso   1.000  H
  H21      1.0000 0.74730  0.36050  0.22210  Biso   1.000  H
  H22      1.0000 0.05770  0.02950  0.29530  Biso   1.000  H
  H23      1.0000 0.96480  0.47320  0.57020  Biso   1.000  H
  H24      1.0000 0.59510  0.32050  0.59910  Biso   1.000  H
  C1       1.0000 0.62336  0.58377  0.02051  Biso   1.000  C
  C2       1.0000 0.76676  0.50018  0.97910  Biso   1.000  C
  C3       1.0000 0.77415  0.53066  0.91824  Biso   1.000  C
  C4       1.0000 0.64985  0.64463  0.89407  Biso   1.000  C
  C5       1.0000 0.51898  0.73016  0.93328  Biso   1.000  C
  C6       1.0000 0.50542  0.70269  0.99427  Biso   1.000  C
  C7       1.0000 0.13662  0.22446  0.00670  Biso   1.000  C
  C8       1.0000 0.90670  0.33920  0.06080  Biso   1.000  C
  C9       1.0000 0.66410  0.79066  0.75094  Biso   1.000  C
  C10      1.0000 0.63540  0.61202  0.78918  Biso   1.000  C
  C11      1.0000 0.11553  0.92223  0.06551  Biso   1.000  C
  C12      1.0000 0.37962  0.84196  0.08240  Biso   1.000  C
  C13      1.0000 0.22764  0.91623  0.47949  Biso   1.000  C
  C14      1.0000 0.24604  0.99982  0.52090  Biso   1.000  C
  C15      1.0000 0.22305  0.96934  0.58176  Biso   1.000  C
  C16      1.0000 0.18855  0.85537  0.60593  Biso   1.000  C
  C17      1.0000 0.18242  0.76984  0.56672  Biso   1.000  C
  C18      1.0000 0.20238  0.79731  0.50573  Biso   1.000  C
  C19      1.0000 0.36778  0.27554  0.49330  Biso   1.000  C
  C20      1.0000 0.30670  0.16080  0.43920  Biso   1.000  C
  C21      1.0000 0.20570  0.70934  0.74906  Biso   1.000  C
  C22      1.0000 0.03660  0.88798  0.71082  Biso   1.000  C
  C23      1.0000 0.10327  0.57777  0.43449  Biso   1.000  C
  C24      1.0000 0.30398  0.65804  0.41760  Biso   1.000  C
  C25      1.0000 0.37664  0.41623  0.97949  Biso   1.000  C
  C26      1.0000 0.23324  0.49982  0.02090  Biso   1.000  C
  C27      1.0000 0.22585  0.46934  0.08176  Biso   1.000  C
  C28      1.0000 0.35015  0.35537  0.10593  Biso   1.000  C
  C29      1.0000 0.48102  0.26984  0.06672  Biso   1.000  C
  C30      1.0000 0.49458  0.29731  0.00573  Biso   1.000  C
  C31      1.0000 0.86338  0.77554  0.99330  Biso   1.000  C
  C32      1.0000 0.09330  0.66080  0.93920  Biso   1.000  C
  C33      1.0000 0.33590  0.20934  0.24906  Biso   1.000  C
  C34      1.0000 0.36460  0.38798  0.21082  Biso   1.000  C
  C35      1.0000 0.88447  0.07777  0.93449  Biso   1.000  C
  C36      1.0000 0.62038  0.15804  0.91760  Biso   1.000  C
  C37      1.0000 0.77236  0.08377  0.52051  Biso   1.000  C
  C38      1.0000 0.75396  0.00018  0.47910  Biso   1.000  C
  C39      1.0000 0.77695  0.03066  0.41824  Biso   1.000  C
  C40      1.0000 0.81145  0.14463  0.39407  Biso   1.000  C
  C41      1.0000 0.81758  0.23016  0.43328  Biso   1.000  C
  C42      1.0000 0.79762  0.20269  0.49427  Biso   1.000  C
  C43      1.0000 0.63222  0.72446  0.50670  Biso   1.000  C
  C44      1.0000 0.69330  0.83920  0.56080  Biso   1.000  C
  C45      1.0000 0.79430  0.29066  0.25094  Biso   1.000  C
  C46      1.0000 0.96340  0.11202  0.28918  Biso   1.000  C
  C47      1.0000 0.89673  0.42223  0.56551  Biso   1.000  C
  C48      1.0000 0.69602  0.34196  0.58240  Biso   1.000  C
  N1       1.0000 0.89962  0.38895  0.00361  Biso   1.000  N
  N2       1.0000 0.05084  0.31419  0.96833  Biso   1.000  N
  N3       1.0000 0.05471  0.23562  0.06456  Biso   1.000  N
  N4       1.0000 0.91185  0.44591  0.87359  Biso   1.000  N
  N5       1.0000 0.66085  0.67514  0.83156  Biso   1.000  N
  N6       1.0000 0.67955  0.79213  0.80717  Biso   1.000  N
  N7       1.0000 0.63895  0.68149  0.73761  Biso   1.000  N
  N8       1.0000 0.39522  0.85544  0.90812  Biso   1.000  N
  N9       1.0000 0.36832  0.79156  0.03300  Biso   1.000  N
  N10      1.0000 0.19622  0.84390  0.02146  Biso   1.000  N
  N11      1.0000 0.22248  0.92539  0.10425  Biso   1.000  N
  N12      1.0000 0.29218  0.11105  0.49639  Biso   1.000  N
  N13      1.0000 0.33336  0.18581  0.53167  Biso   1.000  N
  N14      1.0000 0.35489  0.26438  0.43544  Biso   1.000  N
  N15      1.0000 0.23135  0.05409  0.62641  Biso   1.000  N
  N16      1.0000 0.16755  0.82486  0.66844  Biso   1.000  N
  N17      1.0000 0.27885  0.70787  0.69283  Biso   1.000  N
  N18      1.0000 0.05805  0.81851  0.76239  Biso   1.000  N
  N19      1.0000 0.15878  0.64456  0.59188  Biso   1.000  N
  N20      1.0000 0.19288  0.70844  0.46700  Biso   1.000  N
  N21      1.0000 0.06158  0.65610  0.47854  Biso   1.000  N
  N22      1.0000 0.25212  0.57461  0.39575  Biso   1.000  N
  N23      1.0000 0.10038  0.61105  0.99639  Biso   1.000  N
  N24      1.0000 0.94916  0.68581  0.03167  Biso   1.000  N
  N25      1.0000 0.94529  0.76438  0.93544  Biso   1.000  N
  N26      1.0000 0.08815  0.55409  0.12641  Biso   1.000  N
  N27      1.0000 0.33915  0.32486  0.16844  Biso   1.000  N
  N28      1.0000 0.32045  0.20787  0.19283  Biso   1.000  N
  N29      1.0000 0.36105  0.31851  0.26239  Biso   1.000  N
  N30      1.0000 0.60478  0.14456  0.09188  Biso   1.000  N
  N31      1.0000 0.63168  0.20844  0.96700  Biso   1.000  N
  N32      1.0000 0.80378  0.15610  0.97854  Biso   1.000  N
  N33      1.0000 0.77752  0.07461  0.89575  Biso   1.000  N
  N34      1.0000 0.70782  0.88895  0.50361  Biso   1.000  N
  N35      1.0000 0.66664  0.81419  0.46833  Biso   1.000  N
  N36      1.0000 0.64511  0.73562  0.56456  Biso   1.000  N
  N37      1.0000 0.76865  0.94591  0.37359  Biso   1.000  N
  N38      1.0000 0.83245  0.17514  0.33156  Biso   1.000  N
  N39      1.0000 0.72115  0.29213  0.30717  Biso   1.000  N
  N40      1.0000 0.94195  0.18149  0.23761  Biso   1.000  N
  N41      1.0000 0.84122  0.35544  0.40812  Biso   1.000  N
  N42      1.0000 0.80712  0.29156  0.53300  Biso   1.000  N
  N43      1.0000 0.93842  0.34390  0.52146  Biso   1.000  N
  N44      1.0000 0.74788  0.42539  0.60425  Biso   1.000  N
  O1       1.0000 0.60471  0.55640  0.07598  Biso   1.000  O
  O2       1.0000 0.88916  0.34838  0.86030  Biso   1.000  O
  O3       1.0000 0.03321  0.48412  0.85126  Biso   1.000  O
  O4       1.0000 0.39374  0.96059  0.92353  Biso   1.000  O
  O5       1.0000 0.30394  0.84654  0.87338  Biso   1.000  O
  O6       1.0000 0.23709  0.94360  0.42402  Biso   1.000  O
  O7       1.0000 0.09784  0.15162  0.63970  Biso   1.000  O
  O8       1.0000 0.36859  0.01588  0.64874  Biso   1.000  O
  O9       1.0000 0.27786  0.53941  0.57647  Biso   1.000  O
  O10      1.0000 0.02386  0.65346  0.62662  Biso   1.000  O
  O11      1.0000 0.39529  0.44360  0.92402  Biso   1.000  O
  O12      1.0000 0.11084  0.65162  0.13970  Biso   1.000  O
  O13      1.0000 0.96679  0.51588  0.14874  Biso   1.000  O
  O14      1.0000 0.60626  0.03941  0.07647  Biso   1.000  O
  O15      1.0000 0.69606  0.15346  0.12662  Biso   1.000  O
  O16      1.0000 0.76291  0.05640  0.57598  Biso   1.000  O
  O17      1.0000 0.90216  0.84838  0.36030  Biso   1.000  O
  O18      1.0000 0.63141  0.98412  0.35126  Biso   1.000  O
  O19      1.0000 0.72214  0.46059  0.42353  Biso   1.000  O
  O20      1.0000 0.97614  0.34654  0.37338  Biso   1.000  O
