data_image0
_cell_length_a       11.7437
_cell_length_b       13.0101
_cell_length_c       18.9251
_cell_angle_alpha    90
_cell_angle_beta     90
_cell_angle_gamma    112.316

_symmetry_space_group_name_H-M    P 1
_symmetry_int_tables_number       1

loop_
  _symmetry_equiv_pos_as_xyz
  'x, y, z'

loop_
  _atom_site_label
  _atom_site_occupancy
  _atom_site_fract_x
  _atom_site_fract_y
  _atom_site_fract_z
  _atom_site_thermal_displace_type
  _atom_site_B_iso_or_equiv
  _atom_site_type_symbol
  Zn1      1.0000 0.17610  0.65079  0.62815  Biso   1.000  Zn
  Zn2      1.0000 0.66120  0.62255  0.58563  Biso   1.000  Zn
  Zn3      1.0000 0.55602  0.87889  0.83179  Biso   1.000  Zn
  Zn4      1.0000 0.32390  0.84921  0.12815  Biso   1.000  Zn
  Zn5      1.0000 0.83880  0.87745  0.08563  Biso   1.000  Zn
  Zn6      1.0000 0.94398  0.62111  0.33179  Biso   1.000  Zn
  Zn7      1.0000 0.82390  0.34921  0.37185  Biso   1.000  Zn
  Zn8      1.0000 0.33880  0.37745  0.41437  Biso   1.000  Zn
  Zn9      1.0000 0.44398  0.12111  0.16821  Biso   1.000  Zn
  Zn10     1.0000 0.67610  0.15079  0.87185  Biso   1.000  Zn
  Zn11     1.0000 0.16120  0.12255  0.91437  Biso   1.000  Zn
  Zn12     1.0000 0.05602  0.37889  0.66821  Biso   1.000  Zn
  H1       1.0000 0.16070  0.62170  0.45210  Biso   1.000  H
  H2       1.0000 0.23680  0.53390  0.70540  Biso   1.000  H
  H3       1.0000 0.12180  0.54790  0.73640  Biso   1.000  H
  H4       1.0000 0.69750  0.72880  0.75020  Biso   1.000  H
  H5       1.0000 0.63200  0.42700  0.55400  Biso   1.000  H
  H6       1.0000 0.55300  0.42200  0.61330  Biso   1.000  H
  H7       1.0000 0.33930  0.87830  0.95210  Biso   1.000  H
  H8       1.0000 0.26320  0.96610  0.20540  Biso   1.000  H
  H9       1.0000 0.37820  0.95210  0.23640  Biso   1.000  H
  H10      1.0000 0.80250  0.77120  0.25020  Biso   1.000  H
  H11      1.0000 0.86800  0.07300  0.05400  Biso   1.000  H
  H12      1.0000 0.94700  0.07800  0.11330  Biso   1.000  H
  H13      1.0000 0.83930  0.37830  0.54790  Biso   1.000  H
  H14      1.0000 0.76320  0.46610  0.29460  Biso   1.000  H
  H15      1.0000 0.87820  0.45210  0.26360  Biso   1.000  H
  H16      1.0000 0.30250  0.27120  0.24980  Biso   1.000  H
  H17      1.0000 0.36800  0.57300  0.44600  Biso   1.000  H
  H18      1.0000 0.44700  0.57800  0.38670  Biso   1.000  H
  H19      1.0000 0.66070  0.12170  0.04790  Biso   1.000  H
  H20      1.0000 0.73680  0.03390  0.79460  Biso   1.000  H
  H21      1.0000 0.62180  0.04790  0.76360  Biso   1.000  H
  H22      1.0000 0.19750  0.22880  0.74980  Biso   1.000  H
  H23      1.0000 0.13200  0.92700  0.94600  Biso   1.000  H
  H24      1.0000 0.05300  0.92200  0.88670  Biso   1.000  H
  C1       1.0000 0.09260  0.63130  0.47150  Biso   1.000  C
  C2       1.0000 0.42360  0.65330  0.58200  Biso   1.000  C
  C3       1.0000 0.62740  0.72860  0.72730  Biso   1.000  C
  C4       1.0000 0.45910  0.75310  0.70560  Biso   1.000  C
  C5       1.0000 0.36680  0.80320  0.72240  Biso   1.000  C
  C6       1.0000 0.48320  0.69690  0.65000  Biso   1.000  C
  C7       1.0000 0.91790  0.64830  0.48090  Biso   1.000  C
  C8       1.0000 0.92920  0.66470  0.62030  Biso   1.000  C
  C9       1.0000 0.96570  0.65100  0.54790  Biso   1.000  C
  C10      1.0000 0.80510  0.66030  0.45080  Biso   1.000  C
  C11      1.0000 0.40740  0.86870  0.97150  Biso   1.000  C
  C12      1.0000 0.07640  0.84670  0.08200  Biso   1.000  C
  C13      1.0000 0.87260  0.77140  0.22730  Biso   1.000  C
  C14      1.0000 0.04090  0.74690  0.20560  Biso   1.000  C
  C15      1.0000 0.13320  0.69680  0.22240  Biso   1.000  C
  C16      1.0000 0.01680  0.80310  0.15000  Biso   1.000  C
  C17      1.0000 0.58210  0.85170  0.98090  Biso   1.000  C
  C18      1.0000 0.57080  0.83530  0.12030  Biso   1.000  C
  C19      1.0000 0.53430  0.84900  0.04790  Biso   1.000  C
  C20      1.0000 0.69490  0.83970  0.95080  Biso   1.000  C
  C21      1.0000 0.90740  0.36870  0.52850  Biso   1.000  C
  C22      1.0000 0.57640  0.34670  0.41800  Biso   1.000  C
  C23      1.0000 0.37260  0.27140  0.27270  Biso   1.000  C
  C24      1.0000 0.54090  0.24690  0.29440  Biso   1.000  C
  C25      1.0000 0.63320  0.19680  0.27760  Biso   1.000  C
  C26      1.0000 0.51680  0.30310  0.35000  Biso   1.000  C
  C27      1.0000 0.08210  0.35170  0.51910  Biso   1.000  C
  C28      1.0000 0.07080  0.33530  0.37970  Biso   1.000  C
  C29      1.0000 0.03430  0.34900  0.45210  Biso   1.000  C
  C30      1.0000 0.19490  0.33970  0.54920  Biso   1.000  C
  C31      1.0000 0.59260  0.13130  0.02850  Biso   1.000  C
  C32      1.0000 0.92360  0.15330  0.91800  Biso   1.000  C
  C33      1.0000 0.12740  0.22860  0.77270  Biso   1.000  C
  C34      1.0000 0.95910  0.25310  0.79440  Biso   1.000  C
  C35      1.0000 0.86680  0.30320  0.77760  Biso   1.000  C
  C36      1.0000 0.98320  0.19690  0.85000  Biso   1.000  C
  C37      1.0000 0.41790  0.14830  0.01910  Biso   1.000  C
  C38      1.0000 0.42920  0.16470  0.87970  Biso   1.000  C
  C39      1.0000 0.46570  0.15100  0.95210  Biso   1.000  C
  C40      1.0000 0.30510  0.16030  0.04920  Biso   1.000  C
  N1       1.0000 0.07810  0.64170  0.53970  Biso   1.000  N
  N2       1.0000 0.59010  0.68300  0.66420  Biso   1.000  N
  N3       1.0000 0.55230  0.77390  0.75370  Biso   1.000  N
  N4       1.0000 0.99870  0.63580  0.43300  Biso   1.000  N
  N5       1.0000 0.42190  0.85830  0.03970  Biso   1.000  N
  N6       1.0000 0.90990  0.81700  0.16420  Biso   1.000  N
  N7       1.0000 0.94770  0.72610  0.25370  Biso   1.000  N
  N8       1.0000 0.50130  0.86420  0.93300  Biso   1.000  N
  N9       1.0000 0.92190  0.35830  0.46030  Biso   1.000  N
  N10      1.0000 0.40990  0.31700  0.33580  Biso   1.000  N
  N11      1.0000 0.44770  0.22610  0.24630  Biso   1.000  N
  N12      1.0000 0.00130  0.36420  0.56700  Biso   1.000  N
  N13      1.0000 0.57810  0.14170  0.96030  Biso   1.000  N
  N14      1.0000 0.09010  0.18300  0.83580  Biso   1.000  N
  N15      1.0000 0.05230  0.27390  0.74630  Biso   1.000  N
  N16      1.0000 0.49870  0.13580  0.06700  Biso   1.000  N
  O1       1.0000 0.32000  0.65260  0.56620  Biso   1.000  O
  O2       1.0000 0.48620  0.61840  0.54130  Biso   1.000  O
  O3       1.0000 0.38540  0.86060  0.77770  Biso   1.000  O
  O4       1.0000 0.60530  0.45990  0.58410  Biso   1.000  O
  O5       1.0000 0.27660  0.78950  0.68180  Biso   1.000  O
  O6       1.0000 0.15580  0.53060  0.69310  Biso   1.000  O
  O7       1.0000 0.00890  0.67360  0.66700  Biso   1.000  O
  O8       1.0000 0.82670  0.66770  0.63520  Biso   1.000  O
  O9       1.0000 0.72540  0.67390  0.49060  Biso   1.000  O
  O10      1.0000 0.79740  0.65770  0.38430  Biso   1.000  O
  O11      1.0000 0.18000  0.84740  0.06620  Biso   1.000  O
  O12      1.0000 0.01380  0.88160  0.04130  Biso   1.000  O
  O13      1.0000 0.11460  0.63940  0.27770  Biso   1.000  O
  O14      1.0000 0.89470  0.04010  0.08410  Biso   1.000  O
  O15      1.0000 0.22340  0.71050  0.18180  Biso   1.000  O
  O16      1.0000 0.34420  0.96940  0.19310  Biso   1.000  O
  O17      1.0000 0.49110  0.82640  0.16700  Biso   1.000  O
  O18      1.0000 0.67330  0.83230  0.13520  Biso   1.000  O
  O19      1.0000 0.77460  0.82610  0.99060  Biso   1.000  O
  O20      1.0000 0.70260  0.84230  0.88430  Biso   1.000  O
  O21      1.0000 0.68000  0.34740  0.43380  Biso   1.000  O
  O22      1.0000 0.51380  0.38160  0.45870  Biso   1.000  O
  O23      1.0000 0.61460  0.13940  0.22230  Biso   1.000  O
  O24      1.0000 0.39470  0.54010  0.41590  Biso   1.000  O
  O25      1.0000 0.72340  0.21050  0.31820  Biso   1.000  O
  O26      1.0000 0.84420  0.46940  0.30690  Biso   1.000  O
  O27      1.0000 0.99110  0.32640  0.33300  Biso   1.000  O
  O28      1.0000 0.17330  0.33230  0.36480  Biso   1.000  O
  O29      1.0000 0.27460  0.32610  0.50940  Biso   1.000  O
  O30      1.0000 0.20260  0.34230  0.61570  Biso   1.000  O
  O31      1.0000 0.82000  0.15260  0.93380  Biso   1.000  O
  O32      1.0000 0.98620  0.11840  0.95870  Biso   1.000  O
  O33      1.0000 0.88540  0.36060  0.72230  Biso   1.000  O
  O34      1.0000 0.10530  0.95990  0.91590  Biso   1.000  O
  O35      1.0000 0.77660  0.28950  0.81820  Biso   1.000  O
  O36      1.0000 0.65580  0.03060  0.80690  Biso   1.000  O
  O37      1.0000 0.50890  0.17360  0.83300  Biso   1.000  O
  O38      1.0000 0.32670  0.16770  0.86480  Biso   1.000  O
  O39      1.0000 0.22540  0.17390  0.00940  Biso   1.000  O
  O40      1.0000 0.29740  0.15770  0.11570  Biso   1.000  O
