data_image0
_cell_length_a       15.1173
_cell_length_b       16.7483
_cell_length_c       16.9101
_cell_angle_alpha    110.566
_cell_angle_beta     90.03
_cell_angle_gamma    100.933

_symmetry_space_group_name_H-M    "P 1"
_symmetry_int_tables_number       1

loop_
  _symmetry_equiv_pos_as_xyz
  'x, y, z'

loop_
  _atom_site_label
  _atom_site_occupancy
  _atom_site_fract_x
  _atom_site_fract_y
  _atom_site_fract_z
  _atom_site_thermal_displace_type
  _atom_site_B_iso_or_equiv
  _atom_site_type_symbol
  Tb1      1.0000 0.56199  0.12357  0.52812  Biso   1.000  Tb
  Tb2      1.0000 0.52200  0.36574  0.64743  Biso   1.000  Tb
  Tb3      1.0000 0.45351  0.47118  0.88233  Biso   1.000  Tb
  O1       1.0000 0.54340  0.78290  0.46440  Biso   1.000  O
  O2       1.0000 0.62600  0.67980  0.42590  Biso   1.000  O
  O3       1.0000 0.31090  0.93300  0.54000  Biso   1.000  O
  O4       1.0000 0.42130  0.03610  0.53220  Biso   1.000  O
  O5       1.0000 0.43360  0.33600  0.75280  Biso   1.000  O
  O6       1.0000 0.30980  0.36770  0.81300  Biso   1.000  O
  O7       1.0000 0.63300  0.22780  0.47370  Biso   1.000  O
  O8       1.0000 0.58970  0.35490  0.52590  Biso   1.000  O
  O9       1.0000 0.52260  0.50860  0.34410  Biso   1.000  O
  O10      1.0000 0.58950  0.48200  0.22240  Biso   1.000  O
  O11      1.0000 0.49050  0.93840  0.61640  Biso   1.000  O
  O12      1.0000 0.56110  0.07670  0.64210  Biso   1.000  O
  O13      1.0000 0.67570  0.44670  0.69130  Biso   1.000  O
  O14      1.0000 0.58020  0.47380  0.79110  Biso   1.000  O
  O15      1.0000 0.32780  0.53800  0.94130  Biso   1.000  O
  O16      1.0000 0.42260  0.53470  0.03890  Biso   1.000  O
  O17      1.0000 0.41230  0.74370  0.33640  Biso   1.000  O
  O18      1.0000 0.29320  0.80380  0.37330  Biso   1.000  O
  O19      1.0000 0.42380  0.34680  0.92720  Biso   1.000  O
  O20      1.0000 0.48200  0.37990  0.06040  Biso   1.000  O
  N1       1.0000 0.01310  0.01550  0.62050  Biso   1.000  N
  H1       1.0000 0.03400  0.96990  0.58860  Biso   1.000  H
  N2       1.0000 0.91790  0.09960  0.68600  Biso   1.000  N
  N3       1.0000 0.00340  0.14610  0.70290  Biso   1.000  N
  N4       1.0000 0.59890  0.16690  0.07430  Biso   1.000  N
  H2       1.0000 0.57980  0.20860  0.06310  Biso   1.000  H
  N5       1.0000 0.64090  0.04470  0.05910  Biso   1.000  N
  N6       1.0000 0.64900  0.09370  0.14410  Biso   1.000  N
  N7       1.0000 0.03100  0.62270  0.02250  Biso   1.000  N
  H3       1.0000 0.05180  0.58650  0.97850  Biso   1.000  H
  N8       1.0000 0.01850  0.71160  0.14970  Biso   1.000  N
  N9       1.0000 0.93840  0.69690  0.10380  Biso   1.000  N
  C1       1.0000 0.62040  0.75640  0.46910  Biso   1.000  C
  C2       1.0000 0.69830  0.81970  0.51960  Biso   1.000  C
  C3       1.0000 0.78650  0.80520  0.50470  Biso   1.000  C
  H4       1.0000 0.79490  0.75040  0.46670  Biso   1.000  H
  C4       1.0000 0.86050  0.86890  0.54410  Biso   1.000  C
  H5       1.0000 0.91960  0.85800  0.53330  Biso   1.000  H
  C5       1.0000 0.84920  0.94880  0.59950  Biso   1.000  C
  C6       1.0000 0.76360  0.96420  0.61960  Biso   1.000  C
  H6       1.0000 0.75600  0.01820  0.66000  Biso   1.000  H
  C7       1.0000 0.68860  0.89880  0.57930  Biso   1.000  C
  H7       1.0000 0.62970  0.90870  0.59300  Biso   1.000  H
  C8       1.0000 0.92610  0.02140  0.63540  Biso   1.000  C
  C9       1.0000 0.05960  0.09450  0.66510  Biso   1.000  C
  C10      1.0000 0.16000  0.12140  0.66680  Biso   1.000  C
  C11      1.0000 0.20640  0.05880  0.61730  Biso   1.000  C
  H8       1.0000 0.17400  0.00240  0.58390  Biso   1.000  H
  C12      1.0000 0.29860  0.07860  0.61680  Biso   1.000  C
  C13      1.0000 0.34630  0.01160  0.56010  Biso   1.000  C
  C14      1.0000 0.34760  0.16170  0.66460  Biso   1.000  C
  H9       1.0000 0.41160  0.17530  0.66500  Biso   1.000  H
  C15      1.0000 0.29880  0.22560  0.71290  Biso   1.000  C
  C16      1.0000 0.35090  0.31510  0.76210  Biso   1.000  C
  C17      1.0000 0.20680  0.20520  0.71380  Biso   1.000  C
  H10      1.0000 0.17500  0.24810  0.74620  Biso   1.000  H
  C18      1.0000 0.61090  0.29310  0.46550  Biso   1.000  C
  C19      1.0000 0.61090  0.30200  0.38080  Biso   1.000  C
  C20      1.0000 0.62250  0.23180  0.30840  Biso   1.000  C
  H11      1.0000 0.63410  0.17990  0.31330  Biso   1.000  H
  C21      1.0000 0.61650  0.23960  0.22930  Biso   1.000  C
  C22      1.0000 0.62410  0.16610  0.15110  Biso   1.000  C
  C23      1.0000 0.60080  0.31620  0.22260  Biso   1.000  C
  H12      1.0000 0.59990  0.32190  0.16870  Biso   1.000  H
  C24      1.0000 0.58630  0.38440  0.29360  Biso   1.000  C
  C25      1.0000 0.56350  0.46430  0.28640  Biso   1.000  C
  C26      1.0000 0.59070  0.37540  0.37310  Biso   1.000  C
  H13      1.0000 0.57940  0.42090  0.42210  Biso   1.000  H
  C27      1.0000 0.60990  0.08910  0.01880  Biso   1.000  C
  C28      1.0000 0.58910  0.06680  0.92830  Biso   1.000  C
  C29      1.0000 0.57860  0.98260  0.87110  Biso   1.000  C
  H14      1.0000 0.58710  0.93740  0.89030  Biso   1.000  H
  C30      1.0000 0.55610  0.96320  0.78660  Biso   1.000  C
  H15      1.0000 0.54350  0.90430  0.74890  Biso   1.000  H
  C31      1.0000 0.55170  0.02970  0.75590  Biso   1.000  C
  C32      1.0000 0.53230  0.01380  0.66480  Biso   1.000  C
  C33      1.0000 0.56440  0.11360  0.81300  Biso   1.000  C
  H16      1.0000 0.56230  0.15990  0.79330  Biso   1.000  H
  C34      1.0000 0.58000  0.13190  0.89840  Biso   1.000  C
  H17      1.0000 0.58450  0.18980  0.93710  Biso   1.000  H
  C35      1.0000 0.66190  0.48370  0.76620  Biso   1.000  C
  C36      1.0000 0.74080  0.53480  0.83120  Biso   1.000  C
  C37      1.0000 0.82740  0.52160  0.81250  Biso   1.000  C
  H18      1.0000 0.83910  0.48790  0.75680  Biso   1.000  H
  C38      1.0000 0.89640  0.55810  0.87620  Biso   1.000  C
  H19      1.0000 0.95580  0.54880  0.86400  Biso   1.000  H
  C39      1.0000 0.87980  0.60870  0.95820  Biso   1.000  C
  C40      1.0000 0.79300  0.62580  0.97510  Biso   1.000  C
  H20      1.0000 0.78190  0.66270  0.02970  Biso   1.000  H
  C41      1.0000 0.72310  0.58830  0.91130  Biso   1.000  C
  H21      1.0000 0.66410  0.59910  0.92230  Biso   1.000  H
  C42      1.0000 0.95220  0.64290  0.02680  Biso   1.000  C
  C43      1.0000 0.07550  0.66940  0.10050  Biso   1.000  C
  C44      1.0000 0.16680  0.66730  0.12510  Biso   1.000  C
  C45      1.0000 0.21690  0.61930  0.06390  Biso   1.000  C
  H22      1.0000 0.19080  0.58760  0.00790  Biso   1.000  H
  C46      1.0000 0.30580  0.61810  0.08540  Biso   1.000  C
  C47      1.0000 0.35260  0.56050  0.01820  Biso   1.000  C
  C48      1.0000 0.34440  0.66370  0.16620  Biso   1.000  C
  H23      1.0000 0.40560  0.66410  0.17950  Biso   1.000  H
  C49      1.0000 0.29300  0.71010  0.22940  Biso   1.000  C
  C50      1.0000 0.33360  0.75630  0.31730  Biso   1.000  C
  C51      1.0000 0.20480  0.71300  0.20750  Biso   1.000  C
  H24      1.0000 0.17070  0.74620  0.24900  Biso   1.000  H
  C52      1.0000 0.44820  0.32720  0.98700  Biso   1.000  C
  H25      1.0000 0.44110  0.26680  0.97720  Biso   1.000  H
  Tb4      1.0000 0.43801  0.87643  0.47188  Biso   1.000  Tb
  Tb5      1.0000 0.47800  0.63426  0.35257  Biso   1.000  Tb
  Tb6      1.0000 0.54649  0.52882  0.11767  Biso   1.000  Tb
  O21      1.0000 0.45660  0.21710  0.53560  Biso   1.000  O
  O22      1.0000 0.37400  0.32020  0.57410  Biso   1.000  O
  O23      1.0000 0.68910  0.06700  0.46000  Biso   1.000  O
  O24      1.0000 0.57870  0.96390  0.46780  Biso   1.000  O
  O25      1.0000 0.56640  0.66400  0.24720  Biso   1.000  O
  O26      1.0000 0.69020  0.63230  0.18700  Biso   1.000  O
  O27      1.0000 0.36700  0.77220  0.52630  Biso   1.000  O
  O28      1.0000 0.41030  0.64510  0.47410  Biso   1.000  O
  O29      1.0000 0.47740  0.49140  0.65590  Biso   1.000  O
  O30      1.0000 0.41050  0.51800  0.77760  Biso   1.000  O
  O31      1.0000 0.50950  0.06160  0.38360  Biso   1.000  O
  O32      1.0000 0.43890  0.92330  0.35790  Biso   1.000  O
  O33      1.0000 0.32430  0.55330  0.30870  Biso   1.000  O
  O34      1.0000 0.41980  0.52620  0.20890  Biso   1.000  O
  O35      1.0000 0.67220  0.46200  0.05870  Biso   1.000  O
  O36      1.0000 0.57740  0.46530  0.96110  Biso   1.000  O
  O37      1.0000 0.58770  0.25630  0.66360  Biso   1.000  O
  O38      1.0000 0.70680  0.19620  0.62670  Biso   1.000  O
  O39      1.0000 0.57620  0.65320  0.07280  Biso   1.000  O
  O40      1.0000 0.51800  0.62010  0.93960  Biso   1.000  O
  N10      1.0000 0.98690  0.98450  0.37950  Biso   1.000  N
  H26      1.0000 0.96600  0.03010  0.41140  Biso   1.000  H
  N11      1.0000 0.08210  0.90040  0.31400  Biso   1.000  N
  N12      1.0000 0.99660  0.85390  0.29710  Biso   1.000  N
  N13      1.0000 0.40110  0.83310  0.92570  Biso   1.000  N
  H27      1.0000 0.42020  0.79140  0.93690  Biso   1.000  H
  N14      1.0000 0.35910  0.95530  0.94090  Biso   1.000  N
  N15      1.0000 0.35100  0.90630  0.85590  Biso   1.000  N
  N16      1.0000 0.96900  0.37730  0.97750  Biso   1.000  N
  H28      1.0000 0.94820  0.41350  0.02150  Biso   1.000  H
  N17      1.0000 0.98150  0.28840  0.85030  Biso   1.000  N
  N18      1.0000 0.06160  0.30310  0.89620  Biso   1.000  N
  C53      1.0000 0.37960  0.24360  0.53090  Biso   1.000  C
  C54      1.0000 0.30170  0.18030  0.48040  Biso   1.000  C
  C55      1.0000 0.21350  0.19480  0.49530  Biso   1.000  C
  H29      1.0000 0.20510  0.24960  0.53330  Biso   1.000  H
  C56      1.0000 0.13950  0.13110  0.45590  Biso   1.000  C
  H30      1.0000 0.08040  0.14200  0.46670  Biso   1.000  H
  C57      1.0000 0.15080  0.05120  0.40050  Biso   1.000  C
  C58      1.0000 0.23640  0.03580  0.38040  Biso   1.000  C
  H31      1.0000 0.24400  0.98180  0.34000  Biso   1.000  H
  C59      1.0000 0.31140  0.10120  0.42070  Biso   1.000  C
  H32      1.0000 0.37030  0.09130  0.40700  Biso   1.000  H
  C60      1.0000 0.07390  0.97860  0.36460  Biso   1.000  C
  C61      1.0000 0.94040  0.90550  0.33490  Biso   1.000  C
  C62      1.0000 0.84000  0.87860  0.33320  Biso   1.000  C
  C63      1.0000 0.79360  0.94120  0.38270  Biso   1.000  C
  H33      1.0000 0.82600  0.99760  0.41610  Biso   1.000  H
  C64      1.0000 0.70140  0.92140  0.38320  Biso   1.000  C
  C65      1.0000 0.65370  0.98840  0.43990  Biso   1.000  C
  C66      1.0000 0.65240  0.83830  0.33540  Biso   1.000  C
  H34      1.0000 0.58840  0.82470  0.33500  Biso   1.000  H
  C67      1.0000 0.70120  0.77440  0.28710  Biso   1.000  C
  C68      1.0000 0.64910  0.68490  0.23790  Biso   1.000  C
  C69      1.0000 0.79320  0.79480  0.28620  Biso   1.000  C
  H35      1.0000 0.82500  0.75190  0.25380  Biso   1.000  H
  C70      1.0000 0.38910  0.70690  0.53450  Biso   1.000  C
  C71      1.0000 0.38910  0.69800  0.61920  Biso   1.000  C
  C72      1.0000 0.37750  0.76820  0.69160  Biso   1.000  C
  H36      1.0000 0.36590  0.82010  0.68670  Biso   1.000  H
  C73      1.0000 0.38350  0.76040  0.77070  Biso   1.000  C
  C74      1.0000 0.37590  0.83390  0.84890  Biso   1.000  C
  C75      1.0000 0.39920  0.68380  0.77740  Biso   1.000  C
  H37      1.0000 0.40010  0.67810  0.83130  Biso   1.000  H
  C76      1.0000 0.41370  0.61560  0.70640  Biso   1.000  C
  C77      1.0000 0.43650  0.53570  0.71360  Biso   1.000  C
  C78      1.0000 0.40930  0.62460  0.62690  Biso   1.000  C
  H38      1.0000 0.42060  0.57910  0.57790  Biso   1.000  H
  C79      1.0000 0.39010  0.91090  0.98120  Biso   1.000  C
  C80      1.0000 0.41090  0.93320  0.07170  Biso   1.000  C
  C81      1.0000 0.42140  0.01740  0.12890  Biso   1.000  C
  H39      1.0000 0.41290  0.06260  0.10970  Biso   1.000  H
  C82      1.0000 0.44390  0.03680  0.21340  Biso   1.000  C
  H40      1.0000 0.45650  0.09570  0.25110  Biso   1.000  H
  C83      1.0000 0.44830  0.97030  0.24410  Biso   1.000  C
  C84      1.0000 0.46770  0.98620  0.33520  Biso   1.000  C
  C85      1.0000 0.43560  0.88640  0.18700  Biso   1.000  C
  H41      1.0000 0.43770  0.84010  0.20670  Biso   1.000  H
  C86      1.0000 0.42000  0.86810  0.10160  Biso   1.000  C
  H42      1.0000 0.41550  0.81020  0.06290  Biso   1.000  H
  C87      1.0000 0.33810  0.51630  0.23380  Biso   1.000  C
  C88      1.0000 0.25920  0.46520  0.16880  Biso   1.000  C
  C89      1.0000 0.17260  0.47840  0.18750  Biso   1.000  C
  H43      1.0000 0.16090  0.51210  0.24320  Biso   1.000  H
  C90      1.0000 0.10360  0.44190  0.12380  Biso   1.000  C
  H44      1.0000 0.04420  0.45120  0.13600  Biso   1.000  H
  C91      1.0000 0.12020  0.39130  0.04180  Biso   1.000  C
  C92      1.0000 0.20700  0.37420  0.02490  Biso   1.000  C
  H45      1.0000 0.21810  0.33730  0.97030  Biso   1.000  H
  C93      1.0000 0.27690  0.41170  0.08870  Biso   1.000  C
  H46      1.0000 0.33590  0.40090  0.07770  Biso   1.000  H
  C94      1.0000 0.04780  0.35710  0.97320  Biso   1.000  C
  C95      1.0000 0.92450  0.33060  0.89950  Biso   1.000  C
  C96      1.0000 0.83320  0.33270  0.87490  Biso   1.000  C
  C97      1.0000 0.78310  0.38070  0.93610  Biso   1.000  C
  H47      1.0000 0.80920  0.41240  0.99210  Biso   1.000  H
  C98      1.0000 0.69420  0.38190  0.91460  Biso   1.000  C
  C99      1.0000 0.64740  0.43950  0.98180  Biso   1.000  C
  C100     1.0000 0.65560  0.33630  0.83380  Biso   1.000  C
  H48      1.0000 0.59440  0.33590  0.82050  Biso   1.000  H
  C101     1.0000 0.70700  0.28990  0.77060  Biso   1.000  C
  C102     1.0000 0.66640  0.24370  0.68270  Biso   1.000  C
  C103     1.0000 0.79520  0.28700  0.79250  Biso   1.000  C
  H49      1.0000 0.82930  0.25380  0.75100  Biso   1.000  H
  C104     1.0000 0.55180  0.67280  0.01300  Biso   1.000  C
  H50      1.0000 0.55890  0.73320  0.02280  Biso   1.000  H
