data_image0
_cell_length_a       7.8516
_cell_length_b       10.7383
_cell_length_c       14.1928
_cell_angle_alpha    112.229
_cell_angle_beta     90
_cell_angle_gamma    90

_symmetry_space_group_name_H-M    P 1
_symmetry_int_tables_number       1

loop_
  _symmetry_equiv_pos_as_xyz
  'x, y, z'

loop_
  _atom_site_label
  _atom_site_occupancy
  _atom_site_fract_x
  _atom_site_fract_y
  _atom_site_fract_z
  _atom_site_thermal_displace_type
  _atom_site_B_iso_or_equiv
  _atom_site_type_symbol
  Cd1      1.0000 0.03270  0.01092  0.02184  Biso   1.000  Cd
  Cd2      1.0000 0.45390  0.23973  0.47946  Biso   1.000  Cd
  Cd3      1.0000 0.53270  0.98908  0.97816  Biso   1.000  Cd
  Cd4      1.0000 0.95390  0.76027  0.52054  Biso   1.000  Cd
  Cd5      1.0000 0.74600  0.62408  0.24816  Biso   1.000  Cd
  Cd6      1.0000 0.24600  0.37592  0.75184  Biso   1.000  Cd
  H1       1.0000 0.99570  0.81420  0.16520  Biso   1.000  H
  H2       1.0000 0.52300  0.73340  0.07340  Biso   1.000  H
  H3       1.0000 0.56210  0.36880  0.30020  Biso   1.000  H
  H4       1.0000 0.74380  0.50300  0.57240  Biso   1.000  H
  H5       1.0000 0.49570  0.18580  0.83480  Biso   1.000  H
  H6       1.0000 0.02300  0.26660  0.92660  Biso   1.000  H
  H7       1.0000 0.06210  0.63120  0.69980  Biso   1.000  H
  H8       1.0000 0.24380  0.49700  0.42760  Biso   1.000  H
  H9       1.0000 0.49570  0.64900  0.83480  Biso   1.000  H
  H10      1.0000 0.02300  0.66000  0.92660  Biso   1.000  H
  H11      1.0000 0.06210  0.06860  0.69980  Biso   1.000  H
  H12      1.0000 0.24380  0.93060  0.42760  Biso   1.000  H
  H13      1.0000 0.99570  0.35100  0.16520  Biso   1.000  H
  H14      1.0000 0.52300  0.34000  0.07340  Biso   1.000  H
  H15      1.0000 0.56210  0.93140  0.30020  Biso   1.000  H
  H16      1.0000 0.74380  0.06940  0.57240  Biso   1.000  H
  H17      1.0000 0.57840  0.11930  0.23860  Biso   1.000  H
  H18      1.0000 0.09320  0.14880  0.29760  Biso   1.000  H
  H19      1.0000 0.07840  0.88070  0.76140  Biso   1.000  H
  H20      1.0000 0.59320  0.85120  0.70240  Biso   1.000  H
  C1       1.0000 0.89100  0.81310  0.13420  Biso   1.000  C
  C2       1.0000 0.63300  0.76800  0.08400  Biso   1.000  C
  C3       1.0000 0.61700  0.42190  0.35980  Biso   1.000  C
  C4       1.0000 0.71500  0.49430  0.50660  Biso   1.000  C
  C5       1.0000 0.39100  0.18690  0.86580  Biso   1.000  C
  C6       1.0000 0.13300  0.23200  0.91600  Biso   1.000  C
  C7       1.0000 0.11700  0.57810  0.64020  Biso   1.000  C
  C8       1.0000 0.21500  0.50570  0.49340  Biso   1.000  C
  C9       1.0000 0.39100  0.67890  0.86580  Biso   1.000  C
  C10      1.0000 0.13300  0.68400  0.91600  Biso   1.000  C
  C11      1.0000 0.11700  0.06210  0.64020  Biso   1.000  C
  C12      1.0000 0.21500  0.98770  0.49340  Biso   1.000  C
  C13      1.0000 0.89100  0.32110  0.13420  Biso   1.000  C
  C14      1.0000 0.63300  0.31600  0.08400  Biso   1.000  C
  C15      1.0000 0.61700  0.93790  0.35980  Biso   1.000  C
  C16      1.0000 0.71500  0.01230  0.50660  Biso   1.000  C
  C17      1.0000 0.46100  0.11490  0.22980  Biso   1.000  C
  C18      1.0000 0.19500  0.13090  0.26180  Biso   1.000  C
  C19      1.0000 0.96100  0.88510  0.77020  Biso   1.000  C
  C20      1.0000 0.69500  0.86910  0.73820  Biso   1.000  C
  Br1      1.0000 0.05990  0.65536  0.31072  Biso   1.000  Br
  Br2      1.0000 0.55990  0.34464  0.68928  Biso   1.000  Br
  N1       1.0000 0.85600  0.88820  0.08440  Biso   1.000  N
  N2       1.0000 0.68900  0.85980  0.05000  Biso   1.000  N
  N3       1.0000 0.75700  0.73050  0.13660  Biso   1.000  N
  N4       1.0000 0.69600  0.53300  0.37060  Biso   1.000  N
  N5       1.0000 0.75900  0.58260  0.46520  Biso   1.000  N
  N6       1.0000 0.62400  0.39270  0.44240  Biso   1.000  N
  N7       1.0000 0.35600  0.11180  0.91560  Biso   1.000  N
  N8       1.0000 0.18900  0.14020  0.95000  Biso   1.000  N
  N9       1.0000 0.25700  0.26950  0.86340  Biso   1.000  N
  N10      1.0000 0.19600  0.46700  0.62940  Biso   1.000  N
  N11      1.0000 0.25900  0.41740  0.53480  Biso   1.000  N
  N12      1.0000 0.12400  0.60730  0.55760  Biso   1.000  N
  N13      1.0000 0.35600  0.80380  0.91560  Biso   1.000  N
  N14      1.0000 0.18900  0.80980  0.95000  Biso   1.000  N
  N15      1.0000 0.25700  0.59390  0.86340  Biso   1.000  N
  N16      1.0000 0.19600  0.16240  0.62940  Biso   1.000  N
  N17      1.0000 0.25900  0.11740  0.53480  Biso   1.000  N
  N18      1.0000 0.12400  0.95030  0.55760  Biso   1.000  N
  N19      1.0000 0.85600  0.19620  0.08440  Biso   1.000  N
  N20      1.0000 0.68900  0.19020  0.05000  Biso   1.000  N
  N21      1.0000 0.75700  0.40610  0.13660  Biso   1.000  N
  N22      1.0000 0.69600  0.83760  0.37060  Biso   1.000  N
  N23      1.0000 0.75900  0.88260  0.46520  Biso   1.000  N
  N24      1.0000 0.62400  0.04970  0.44240  Biso   1.000  N
  N25      1.0000 0.34700  0.15200  0.30400  Biso   1.000  N
  N26      1.0000 0.37300  0.06630  0.13260  Biso   1.000  N
  N27      1.0000 0.20800  0.08040  0.16080  Biso   1.000  N
  N28      1.0000 0.84700  0.84800  0.69600  Biso   1.000  N
  N29      1.0000 0.87300  0.93370  0.86740  Biso   1.000  N
  N30      1.0000 0.70800  0.91960  0.83920  Biso   1.000  N
