data_image0
_cell_length_a       19.7244
_cell_length_b       17.0814
_cell_length_c       9.9554
_cell_angle_alpha    90
_cell_angle_beta     90
_cell_angle_gamma    90

_symmetry_space_group_name_H-M    "P 1"
_symmetry_int_tables_number       1

loop_
  _symmetry_equiv_pos_as_xyz
  'x, y, z'

loop_
  _atom_site_label
  _atom_site_occupancy
  _atom_site_fract_x
  _atom_site_fract_y
  _atom_site_fract_z
  _atom_site_thermal_displace_type
  _atom_site_B_iso_or_equiv
  _atom_site_type_symbol
  In1      1.0000 0.18128  0.84014  0.91388  Biso   1.000  In
  O1       1.0000 0.29948  0.85524  0.92650  Biso   1.000  O
  O2       1.0000 0.22936  0.95496  0.93020  Biso   1.000  O
  O3       1.0000 0.29863  0.21519  0.06950  Biso   1.000  O
  O4       1.0000 0.40554  0.24392  0.10030  Biso   1.000  O
  O5       1.0000 0.19374  0.83450  0.68380  Biso   1.000  O
  O6       1.0000 0.11067  0.90145  0.77400  Biso   1.000  O
  O7       1.0000 0.19710  0.83410  0.15870  Biso   1.000  O
  O8       1.0000 0.11040  0.88810  0.06190  Biso   1.000  O
  H1       1.0000 0.42350  0.90680  0.95170  Biso   1.000  H
  H2       1.0000 0.28210  0.07610  0.00780  Biso   1.000  H
  H3       1.0000 0.47990  0.12590  0.06540  Biso   1.000  H
  H4       1.0000 0.03950  0.96690  0.61400  Biso   1.000  H
  H5       1.0000 0.18330  0.84010  0.41750  Biso   1.000  H
  H6       1.0000 0.04180  0.95980  0.20820  Biso   1.000  H
  C1       1.0000 0.46390  0.01190  0.00960  Biso   1.000  C
  C2       1.0000 0.41240  0.95910  0.97520  Biso   1.000  C
  C3       1.0000 0.34590  0.98280  0.97540  Biso   1.000  C
  C4       1.0000 0.32810  0.05990  0.00830  Biso   1.000  C
  C5       1.0000 0.37960  0.11210  0.04160  Biso   1.000  C
  C6       1.0000 0.44560  0.08920  0.04230  Biso   1.000  C
  C7       1.0000 0.28920  0.92730  0.93910  Biso   1.000  C
  C8       1.0000 0.36030  0.19550  0.07410  Biso   1.000  C
  C9       1.0000 0.02960  0.97360  0.41370  Biso   1.000  C
  C10      1.0000 0.05890  0.94940  0.53200  Biso   1.000  C
  C11      1.0000 0.11610  0.90030  0.53840  Biso   1.000  C
  C12      1.0000 0.14470  0.87340  0.41740  Biso   1.000  C
  C13      1.0000 0.11520  0.89690  0.29940  Biso   1.000  C
  C14      1.0000 0.05990  0.94520  0.29300  Biso   1.000  C
  C15      1.0000 0.14220  0.87660  0.67250  Biso   1.000  C
  C16      1.0000 0.14290  0.87030  0.16640  Biso   1.000  C
  In2      1.0000 0.81872  0.15986  0.91388  Biso   1.000  In
  O9       1.0000 0.70052  0.14476  0.92650  Biso   1.000  O
  O10      1.0000 0.77064  0.04504  0.93020  Biso   1.000  O
  O11      1.0000 0.70137  0.78481  0.06950  Biso   1.000  O
  O12      1.0000 0.59446  0.75608  0.10030  Biso   1.000  O
  O13      1.0000 0.80626  0.16550  0.68380  Biso   1.000  O
  O14      1.0000 0.88933  0.09855  0.77400  Biso   1.000  O
  O15      1.0000 0.80290  0.16590  0.15870  Biso   1.000  O
  O16      1.0000 0.88960  0.11190  0.06190  Biso   1.000  O
  H7       1.0000 0.57650  0.09320  0.95170  Biso   1.000  H
  H8       1.0000 0.71790  0.92390  0.00780  Biso   1.000  H
  H9       1.0000 0.52010  0.87410  0.06540  Biso   1.000  H
  H10      1.0000 0.96050  0.03310  0.61400  Biso   1.000  H
  H11      1.0000 0.81670  0.15990  0.41750  Biso   1.000  H
  H12      1.0000 0.95820  0.04020  0.20820  Biso   1.000  H
  C17      1.0000 0.53610  0.98810  0.00960  Biso   1.000  C
  C18      1.0000 0.58760  0.04090  0.97520  Biso   1.000  C
  C19      1.0000 0.65410  0.01720  0.97540  Biso   1.000  C
  C20      1.0000 0.67190  0.94010  0.00830  Biso   1.000  C
  C21      1.0000 0.62040  0.88790  0.04160  Biso   1.000  C
  C22      1.0000 0.55440  0.91080  0.04230  Biso   1.000  C
  C23      1.0000 0.71080  0.07270  0.93910  Biso   1.000  C
  C24      1.0000 0.63970  0.80450  0.07410  Biso   1.000  C
  C25      1.0000 0.97040  0.02640  0.41370  Biso   1.000  C
  C26      1.0000 0.94110  0.05060  0.53200  Biso   1.000  C
  C27      1.0000 0.88390  0.09970  0.53840  Biso   1.000  C
  C28      1.0000 0.85530  0.12660  0.41740  Biso   1.000  C
  C29      1.0000 0.88480  0.10310  0.29940  Biso   1.000  C
  C30      1.0000 0.94010  0.05480  0.29300  Biso   1.000  C
  C31      1.0000 0.85780  0.12340  0.67250  Biso   1.000  C
  C32      1.0000 0.85710  0.12970  0.16640  Biso   1.000  C
  In3      1.0000 0.31872  0.34014  0.08612  Biso   1.000  In
  O17      1.0000 0.20052  0.35524  0.07350  Biso   1.000  O
  O18      1.0000 0.27064  0.45496  0.06980  Biso   1.000  O
  O19      1.0000 0.20137  0.71519  0.93050  Biso   1.000  O
  O20      1.0000 0.09446  0.74392  0.89970  Biso   1.000  O
  O21      1.0000 0.30626  0.33450  0.31620  Biso   1.000  O
  O22      1.0000 0.38933  0.40145  0.22600  Biso   1.000  O
  O23      1.0000 0.30290  0.33410  0.84130  Biso   1.000  O
  O24      1.0000 0.38960  0.38810  0.93810  Biso   1.000  O
  H13      1.0000 0.07650  0.40680  0.04830  Biso   1.000  H
  H14      1.0000 0.21790  0.57610  0.99220  Biso   1.000  H
  H15      1.0000 0.02010  0.62590  0.93460  Biso   1.000  H
  H16      1.0000 0.46050  0.46690  0.38600  Biso   1.000  H
  H17      1.0000 0.31670  0.34010  0.58250  Biso   1.000  H
  H18      1.0000 0.45820  0.45980  0.79180  Biso   1.000  H
  C33      1.0000 0.03610  0.51190  0.99040  Biso   1.000  C
  C34      1.0000 0.08760  0.45910  0.02480  Biso   1.000  C
  C35      1.0000 0.15410  0.48280  0.02460  Biso   1.000  C
  C36      1.0000 0.17190  0.55990  0.99170  Biso   1.000  C
  C37      1.0000 0.12040  0.61210  0.95840  Biso   1.000  C
  C38      1.0000 0.05440  0.58920  0.95770  Biso   1.000  C
  C39      1.0000 0.21080  0.42730  0.06090  Biso   1.000  C
  C40      1.0000 0.13970  0.69550  0.92590  Biso   1.000  C
  C41      1.0000 0.47040  0.47360  0.58630  Biso   1.000  C
  C42      1.0000 0.44110  0.44940  0.46800  Biso   1.000  C
  C43      1.0000 0.38390  0.40030  0.46160  Biso   1.000  C
  C44      1.0000 0.35530  0.37340  0.58260  Biso   1.000  C
  C45      1.0000 0.38480  0.39690  0.70060  Biso   1.000  C
  C46      1.0000 0.44010  0.44520  0.70700  Biso   1.000  C
  C47      1.0000 0.35780  0.37660  0.32750  Biso   1.000  C
  C48      1.0000 0.35710  0.37030  0.83360  Biso   1.000  C
  In4      1.0000 0.68128  0.65986  0.08612  Biso   1.000  In
  O25      1.0000 0.79948  0.64476  0.07350  Biso   1.000  O
  O26      1.0000 0.72936  0.54504  0.06980  Biso   1.000  O
  O27      1.0000 0.79863  0.28481  0.93050  Biso   1.000  O
  O28      1.0000 0.90554  0.25608  0.89970  Biso   1.000  O
  O29      1.0000 0.69374  0.66550  0.31620  Biso   1.000  O
  O30      1.0000 0.61067  0.59855  0.22600  Biso   1.000  O
  O31      1.0000 0.69710  0.66590  0.84130  Biso   1.000  O
  O32      1.0000 0.61040  0.61190  0.93810  Biso   1.000  O
  H19      1.0000 0.92350  0.59320  0.04830  Biso   1.000  H
  H20      1.0000 0.78210  0.42390  0.99220  Biso   1.000  H
  H21      1.0000 0.97990  0.37410  0.93460  Biso   1.000  H
  H22      1.0000 0.53950  0.53310  0.38600  Biso   1.000  H
  H23      1.0000 0.68330  0.65990  0.58250  Biso   1.000  H
  H24      1.0000 0.54180  0.54020  0.79180  Biso   1.000  H
  C49      1.0000 0.96390  0.48810  0.99040  Biso   1.000  C
  C50      1.0000 0.91240  0.54090  0.02480  Biso   1.000  C
  C51      1.0000 0.84590  0.51720  0.02460  Biso   1.000  C
  C52      1.0000 0.82810  0.44010  0.99170  Biso   1.000  C
  C53      1.0000 0.87960  0.38790  0.95840  Biso   1.000  C
  C54      1.0000 0.94560  0.41080  0.95770  Biso   1.000  C
  C55      1.0000 0.78920  0.57270  0.06090  Biso   1.000  C
  C56      1.0000 0.86030  0.30450  0.92590  Biso   1.000  C
  C57      1.0000 0.52960  0.52640  0.58630  Biso   1.000  C
  C58      1.0000 0.55890  0.55060  0.46800  Biso   1.000  C
  C59      1.0000 0.61610  0.59970  0.46160  Biso   1.000  C
  C60      1.0000 0.64470  0.62660  0.58260  Biso   1.000  C
  C61      1.0000 0.61520  0.60310  0.70060  Biso   1.000  C
  C62      1.0000 0.55990  0.55480  0.70700  Biso   1.000  C
  C63      1.0000 0.64220  0.62340  0.32750  Biso   1.000  C
  C64      1.0000 0.64290  0.62970  0.83360  Biso   1.000  C
