data_image0
_cell_length_a       5.224
_cell_length_b       8.8
_cell_length_c       26.055
_cell_angle_alpha    90
_cell_angle_beta     90
_cell_angle_gamma    97.38

_symmetry_space_group_name_H-M    P 1
_symmetry_int_tables_number       1

loop_
  _symmetry_equiv_pos_as_xyz
  'x, y, z'

loop_
  _atom_site_label
  _atom_site_occupancy
  _atom_site_fract_x
  _atom_site_fract_y
  _atom_site_fract_z
  _atom_site_thermal_displace_type
  _atom_site_B_iso_or_equiv
  _atom_site_type_symbol
  Lu1      1.0000 0.59652  0.47856  0.65917  Biso   1.000  Lu
  Lu2      1.0000 0.40348  0.02144  0.15917  Biso   1.000  Lu
  Lu3      1.0000 0.40348  0.52144  0.34083  Biso   1.000  Lu
  Lu4      1.0000 0.59652  0.97856  0.84083  Biso   1.000  Lu
  H1       1.0000 0.99500  0.88000  0.64420  Biso   1.000  H
  H2       1.0000 0.94400  0.85100  0.70160  Biso   1.000  H
  H3       1.0000 0.41400  0.98700  0.66470  Biso   1.000  H
  H4       1.0000 0.23100  0.07900  0.69430  Biso   1.000  H
  H5       1.0000 0.77620  0.55000  0.48300  Biso   1.000  H
  H6       1.0000 0.99950  0.65260  0.51110  Biso   1.000  H
  H7       1.0000 0.30400  0.25300  0.59780  Biso   1.000  H
  H8       1.0000 0.15500  0.34000  0.61230  Biso   1.000  H
  H9       1.0000 0.93500  0.31000  0.70150  Biso   1.000  H
  H10      1.0000 0.74500  0.21300  0.71040  Biso   1.000  H
  H11      1.0000 0.00500  0.62000  0.14420  Biso   1.000  H
  H12      1.0000 0.05600  0.64900  0.20160  Biso   1.000  H
  H13      1.0000 0.58600  0.51300  0.16470  Biso   1.000  H
  H14      1.0000 0.76900  0.42100  0.19430  Biso   1.000  H
  H15      1.0000 0.22380  0.95000  0.98300  Biso   1.000  H
  H16      1.0000 0.00050  0.84740  0.01110  Biso   1.000  H
  H17      1.0000 0.69600  0.24700  0.09780  Biso   1.000  H
  H18      1.0000 0.84500  0.16000  0.11230  Biso   1.000  H
  H19      1.0000 0.06500  0.19000  0.20150  Biso   1.000  H
  H20      1.0000 0.25500  0.28700  0.21040  Biso   1.000  H
  H21      1.0000 0.00500  0.12000  0.35580  Biso   1.000  H
  H22      1.0000 0.05600  0.14900  0.29840  Biso   1.000  H
  H23      1.0000 0.58600  0.01300  0.33530  Biso   1.000  H
  H24      1.0000 0.76900  0.92100  0.30570  Biso   1.000  H
  H25      1.0000 0.22380  0.45000  0.51700  Biso   1.000  H
  H26      1.0000 0.00050  0.34740  0.48890  Biso   1.000  H
  H27      1.0000 0.69600  0.74700  0.40220  Biso   1.000  H
  H28      1.0000 0.84500  0.66000  0.38770  Biso   1.000  H
  H29      1.0000 0.06500  0.69000  0.29850  Biso   1.000  H
  H30      1.0000 0.25500  0.78700  0.28960  Biso   1.000  H
  H31      1.0000 0.99500  0.38000  0.85580  Biso   1.000  H
  H32      1.0000 0.94400  0.35100  0.79840  Biso   1.000  H
  H33      1.0000 0.41400  0.48700  0.83530  Biso   1.000  H
  H34      1.0000 0.23100  0.57900  0.80570  Biso   1.000  H
  H35      1.0000 0.77620  0.05000  0.01700  Biso   1.000  H
  H36      1.0000 0.99950  0.15260  0.98890  Biso   1.000  H
  H37      1.0000 0.30400  0.75300  0.90220  Biso   1.000  H
  H38      1.0000 0.15500  0.84000  0.88770  Biso   1.000  H
  H39      1.0000 0.93500  0.81000  0.79850  Biso   1.000  H
  H40      1.0000 0.74500  0.71300  0.78960  Biso   1.000  H
  C1       1.0000 0.16500  0.70460  0.66850  Biso   1.000  C
  C2       1.0000 0.07640  0.85830  0.67597  Biso   1.000  C
  C3       1.0000 0.29000  0.98410  0.68985  Biso   1.000  C
  C4       1.0000 0.41320  0.96700  0.74140  Biso   1.000  C
  C5       1.0000 0.78030  0.51050  0.55961  Biso   1.000  C
  C6       1.0000 0.90970  0.54920  0.50886  Biso   1.000  C
  C7       1.0000 0.83500  0.79540  0.16850  Biso   1.000  C
  C8       1.0000 0.92360  0.64170  0.17597  Biso   1.000  C
  C9       1.0000 0.71000  0.51590  0.18985  Biso   1.000  C
  C10      1.0000 0.58680  0.53300  0.24140  Biso   1.000  C
  C11      1.0000 0.21970  0.98950  0.05961  Biso   1.000  C
  C12      1.0000 0.09030  0.95080  0.00886  Biso   1.000  C
  C13      1.0000 0.83500  0.29540  0.33150  Biso   1.000  C
  C14      1.0000 0.92360  0.14170  0.32403  Biso   1.000  C
  C15      1.0000 0.71000  0.01590  0.31015  Biso   1.000  C
  C16      1.0000 0.58680  0.03300  0.25860  Biso   1.000  C
  C17      1.0000 0.21970  0.48950  0.44039  Biso   1.000  C
  C18      1.0000 0.09030  0.45080  0.49114  Biso   1.000  C
  C19      1.0000 0.16500  0.20460  0.83150  Biso   1.000  C
  C20      1.0000 0.07640  0.35830  0.82403  Biso   1.000  C
  C21      1.0000 0.29000  0.48410  0.81015  Biso   1.000  C
  C22      1.0000 0.41320  0.46700  0.75860  Biso   1.000  C
  C23      1.0000 0.78030  0.01050  0.94039  Biso   1.000  C
  C24      1.0000 0.90970  0.04920  0.99114  Biso   1.000  C
  O1       1.0000 0.40000  0.69240  0.66646  Biso   1.000  O
  O2       1.0000 0.99590  0.58970  0.66387  Biso   1.000  O
  O3       1.0000 0.62690  0.04610  0.75162  Biso   1.000  O
  O4       1.0000 0.30230  0.88020  0.77586  Biso   1.000  O
  O5       1.0000 0.81130  0.39010  0.58401  Biso   1.000  O
  O6       1.0000 0.64220  0.60370  0.57821  Biso   1.000  O
  O7       1.0000 0.28660  0.32060  0.61607  Biso   1.000  O
  O8       1.0000 0.80130  0.28270  0.69077  Biso   1.000  O
  O9       1.0000 0.60000  0.80760  0.16646  Biso   1.000  O
  O10      1.0000 0.00410  0.91030  0.16387  Biso   1.000  O
  O11      1.0000 0.37310  0.45390  0.25162  Biso   1.000  O
  O12      1.0000 0.69770  0.61980  0.27586  Biso   1.000  O
  O13      1.0000 0.18870  0.10990  0.08401  Biso   1.000  O
  O14      1.0000 0.35780  0.89630  0.07821  Biso   1.000  O
  O15      1.0000 0.71340  0.17940  0.11607  Biso   1.000  O
  O16      1.0000 0.19870  0.21730  0.19077  Biso   1.000  O
  O17      1.0000 0.60000  0.30760  0.33354  Biso   1.000  O
  O18      1.0000 0.00410  0.41030  0.33613  Biso   1.000  O
  O19      1.0000 0.37310  0.95390  0.24838  Biso   1.000  O
  O20      1.0000 0.69770  0.11980  0.22414  Biso   1.000  O
  O21      1.0000 0.18870  0.60990  0.41599  Biso   1.000  O
  O22      1.0000 0.35780  0.39630  0.42179  Biso   1.000  O
  O23      1.0000 0.71340  0.67940  0.38393  Biso   1.000  O
  O24      1.0000 0.19870  0.71730  0.30923  Biso   1.000  O
  O25      1.0000 0.40000  0.19240  0.83354  Biso   1.000  O
  O26      1.0000 0.99590  0.08970  0.83613  Biso   1.000  O
  O27      1.0000 0.62690  0.54610  0.74838  Biso   1.000  O
  O28      1.0000 0.30230  0.38020  0.72414  Biso   1.000  O
  O29      1.0000 0.81130  0.89010  0.91599  Biso   1.000  O
  O30      1.0000 0.64220  0.10370  0.92179  Biso   1.000  O
  O31      1.0000 0.28660  0.82060  0.88393  Biso   1.000  O
  O32      1.0000 0.80130  0.78270  0.80923  Biso   1.000  O
