data_image0
_cell_length_a       18.928
_cell_length_b       19.711
_cell_length_c       23.0995
_cell_angle_alpha    112.906
_cell_angle_beta     90
_cell_angle_gamma    90

_symmetry_space_group_name_H-M    P 1
_symmetry_int_tables_number       1

loop_
  _symmetry_equiv_pos_as_xyz
  'x, y, z'

loop_
  _atom_site_label
  _atom_site_occupancy
  _atom_site_fract_x
  _atom_site_fract_y
  _atom_site_fract_z
  _atom_site_thermal_displace_type
  _atom_site_B_iso_or_equiv
  _atom_site_type_symbol
  Ce1      1.0000 0.01376  0.62042  0.02416  Biso   1.000  Ce
  Ce2      1.0000 0.99605  0.88609  0.98359  Biso   1.000  Ce
  Ce3      1.0000 0.51376  0.87958  0.47584  Biso   1.000  Ce
  Ce4      1.0000 0.49605  0.61391  0.51641  Biso   1.000  Ce
  Ce5      1.0000 0.98624  0.37958  0.97584  Biso   1.000  Ce
  Ce6      1.0000 0.00395  0.11391  0.01641  Biso   1.000  Ce
  Ce7      1.0000 0.48624  0.12042  0.52416  Biso   1.000  Ce
  Ce8      1.0000 0.50395  0.38609  0.48359  Biso   1.000  Ce
  H1       1.0000 0.96740  0.94550  0.17490  Biso   1.000  H
  H2       1.0000 0.84480  0.76600  0.13610  Biso   1.000  H
  H3       1.0000 0.90090  0.01040  0.26330  Biso   1.000  H
  H4       1.0000 0.80950  0.06620  0.35000  Biso   1.000  H
  H5       1.0000 0.64170  0.89000  0.34710  Biso   1.000  H
  H6       1.0000 0.71770  0.09680  0.42240  Biso   1.000  H
  H7       1.0000 0.17890  0.36300  0.83040  Biso   1.000  H
  H8       1.0000 0.11210  0.56680  0.85530  Biso   1.000  H
  H9       1.0000 0.26370  0.36680  0.75870  Biso   1.000  H
  H10      1.0000 0.34680  0.39080  0.68500  Biso   1.000  H
  H11      1.0000 0.30560  0.61820  0.67300  Biso   1.000  H
  H12      1.0000 0.41670  0.42900  0.62200  Biso   1.000  H
  H13      1.0000 0.70370  0.43480  0.60400  Biso   1.000  H
  H14      1.0000 0.68220  0.65350  0.65650  Biso   1.000  H
  H15      1.0000 0.79880  0.45160  0.67050  Biso   1.000  H
  H16      1.0000 0.89290  0.49430  0.75970  Biso   1.000  H
  H17      1.0000 0.91460  0.75140  0.84310  Biso   1.000  H
  H18      1.0000 0.97330  0.55280  0.84080  Biso   1.000  H
  H19      1.0000 0.15070  0.77270  0.94880  Biso   1.000  H
  H20      1.0000 0.32830  0.79170  0.94450  Biso   1.000  H
  H21      1.0000 0.27750  0.73370  0.95350  Biso   1.000  H
  H22      1.0000 0.26870  0.75480  0.89510  Biso   1.000  H
  H23      1.0000 0.31070  0.90200  0.00210  Biso   1.000  H
  H24      1.0000 0.23970  0.93690  0.99200  Biso   1.000  H
  H25      1.0000 0.24970  0.91810  0.05150  Biso   1.000  H
  H26      1.0000 0.20520  0.59260  0.00190  Biso   1.000  H
  H27      1.0000 0.28200  0.77630  0.12160  Biso   1.000  H
  H28      1.0000 0.22930  0.78150  0.07110  Biso   1.000  H
  H29      1.0000 0.20090  0.76450  0.12780  Biso   1.000  H
  H30      1.0000 0.31110  0.59690  0.04580  Biso   1.000  H
  H31      1.0000 0.35190  0.67130  0.06200  Biso   1.000  H
  H32      1.0000 0.31590  0.65370  0.11570  Biso   1.000  H
  H33      1.0000 0.83930  0.73760  0.99530  Biso   1.000  H
  H34      1.0000 0.66450  0.77600  0.97390  Biso   1.000  H
  H35      1.0000 0.71010  0.70410  0.95380  Biso   1.000  H
  H36      1.0000 0.70400  0.75630  0.02500  Biso   1.000  H
  H37      1.0000 0.70410  0.85930  0.95160  Biso   1.000  H
  H38      1.0000 0.77300  0.89900  0.98580  Biso   1.000  H
  H39      1.0000 0.77650  0.84270  0.91580  Biso   1.000  H
  H40      1.0000 0.95690  0.69430  0.17840  Biso   1.000  H
  H41      1.0000 0.07940  0.84070  0.29990  Biso   1.000  H
  H42      1.0000 0.11740  0.77020  0.25280  Biso   1.000  H
  H43      1.0000 0.08900  0.82990  0.22950  Biso   1.000  H
  H44      1.0000 0.97680  0.83060  0.32690  Biso   1.000  H
  H45      1.0000 0.91970  0.81290  0.27390  Biso   1.000  H
  H46      1.0000 0.94150  0.75260  0.29910  Biso   1.000  H
  H47      1.0000 0.46740  0.55450  0.32510  Biso   1.000  H
  H48      1.0000 0.34480  0.73400  0.36390  Biso   1.000  H
  H49      1.0000 0.40090  0.48960  0.23670  Biso   1.000  H
  H50      1.0000 0.30950  0.43380  0.15000  Biso   1.000  H
  H51      1.0000 0.14170  0.61000  0.15290  Biso   1.000  H
  H52      1.0000 0.21770  0.40320  0.07760  Biso   1.000  H
  H53      1.0000 0.67890  0.13700  0.66960  Biso   1.000  H
  H54      1.0000 0.61210  0.93320  0.64470  Biso   1.000  H
  H55      1.0000 0.76370  0.13320  0.74130  Biso   1.000  H
  H56      1.0000 0.84680  0.10920  0.81500  Biso   1.000  H
  H57      1.0000 0.80560  0.88180  0.82700  Biso   1.000  H
  H58      1.0000 0.91670  0.07100  0.87800  Biso   1.000  H
  H59      1.0000 0.20370  0.06520  0.89600  Biso   1.000  H
  H60      1.0000 0.18220  0.84650  0.84350  Biso   1.000  H
  H61      1.0000 0.29880  0.04840  0.82950  Biso   1.000  H
  H62      1.0000 0.39290  0.00570  0.74030  Biso   1.000  H
  H63      1.0000 0.41460  0.74860  0.65690  Biso   1.000  H
  H64      1.0000 0.47330  0.94720  0.65920  Biso   1.000  H
  H65      1.0000 0.65070  0.72730  0.55120  Biso   1.000  H
  H66      1.0000 0.82830  0.70830  0.55550  Biso   1.000  H
  H67      1.0000 0.77750  0.76630  0.54650  Biso   1.000  H
  H68      1.0000 0.76870  0.74520  0.60490  Biso   1.000  H
  H69      1.0000 0.81070  0.59800  0.49790  Biso   1.000  H
  H70      1.0000 0.73970  0.56310  0.50800  Biso   1.000  H
  H71      1.0000 0.74970  0.58190  0.44850  Biso   1.000  H
  H72      1.0000 0.70520  0.90740  0.49810  Biso   1.000  H
  H73      1.0000 0.78200  0.72370  0.37840  Biso   1.000  H
  H74      1.0000 0.72930  0.71850  0.42890  Biso   1.000  H
  H75      1.0000 0.70090  0.73550  0.37220  Biso   1.000  H
  H76      1.0000 0.81110  0.90310  0.45420  Biso   1.000  H
  H77      1.0000 0.85190  0.82870  0.43800  Biso   1.000  H
  H78      1.0000 0.81590  0.84630  0.38430  Biso   1.000  H
  H79      1.0000 0.33930  0.76240  0.50470  Biso   1.000  H
  H80      1.0000 0.16450  0.72400  0.52610  Biso   1.000  H
  H81      1.0000 0.21010  0.79590  0.54620  Biso   1.000  H
  H82      1.0000 0.20400  0.74370  0.47500  Biso   1.000  H
  H83      1.0000 0.20410  0.64070  0.54840  Biso   1.000  H
  H84      1.0000 0.27300  0.60100  0.51420  Biso   1.000  H
  H85      1.0000 0.27650  0.65730  0.58420  Biso   1.000  H
  H86      1.0000 0.45690  0.80570  0.32160  Biso   1.000  H
  H87      1.0000 0.57940  0.65930  0.20010  Biso   1.000  H
  H88      1.0000 0.61740  0.72980  0.24720  Biso   1.000  H
  H89      1.0000 0.58900  0.67010  0.27050  Biso   1.000  H
  H90      1.0000 0.47680  0.66940  0.17310  Biso   1.000  H
  H91      1.0000 0.41970  0.68710  0.22610  Biso   1.000  H
  H92      1.0000 0.44150  0.74740  0.20090  Biso   1.000  H
  H93      1.0000 0.03260  0.05450  0.82510  Biso   1.000  H
  H94      1.0000 0.15520  0.23400  0.86390  Biso   1.000  H
  H95      1.0000 0.09910  0.98960  0.73670  Biso   1.000  H
  H96      1.0000 0.19050  0.93380  0.65000  Biso   1.000  H
  H97      1.0000 0.35830  0.11000  0.65290  Biso   1.000  H
  H98      1.0000 0.28230  0.90320  0.57760  Biso   1.000  H
  H99      1.0000 0.82110  0.63700  0.16960  Biso   1.000  H
  H100     1.0000 0.88790  0.43320  0.14470  Biso   1.000  H
  H101     1.0000 0.73630  0.63320  0.24130  Biso   1.000  H
  H102     1.0000 0.65320  0.60920  0.31500  Biso   1.000  H
  H103     1.0000 0.69440  0.38180  0.32700  Biso   1.000  H
  H104     1.0000 0.58330  0.57100  0.37800  Biso   1.000  H
  H105     1.0000 0.29630  0.56520  0.39600  Biso   1.000  H
  H106     1.0000 0.31780  0.34650  0.34350  Biso   1.000  H
  H107     1.0000 0.20120  0.54840  0.32950  Biso   1.000  H
  H108     1.0000 0.10710  0.50570  0.24030  Biso   1.000  H
  H109     1.0000 0.08540  0.24860  0.15690  Biso   1.000  H
  H110     1.0000 0.02670  0.44720  0.15920  Biso   1.000  H
  H111     1.0000 0.84930  0.22730  0.05120  Biso   1.000  H
  H112     1.0000 0.67170  0.20830  0.05550  Biso   1.000  H
  H113     1.0000 0.72250  0.26630  0.04650  Biso   1.000  H
  H114     1.0000 0.73130  0.24520  0.10490  Biso   1.000  H
  H115     1.0000 0.68930  0.09800  0.99790  Biso   1.000  H
  H116     1.0000 0.76030  0.06310  0.00800  Biso   1.000  H
  H117     1.0000 0.75030  0.08190  0.94850  Biso   1.000  H
  H118     1.0000 0.79480  0.40740  0.99810  Biso   1.000  H
  H119     1.0000 0.71800  0.22370  0.87840  Biso   1.000  H
  H120     1.0000 0.77070  0.21850  0.92890  Biso   1.000  H
  H121     1.0000 0.79910  0.23550  0.87220  Biso   1.000  H
  H122     1.0000 0.68890  0.40310  0.95420  Biso   1.000  H
  H123     1.0000 0.64810  0.32870  0.93800  Biso   1.000  H
  H124     1.0000 0.68410  0.34630  0.88430  Biso   1.000  H
  H125     1.0000 0.16070  0.26240  0.00470  Biso   1.000  H
  H126     1.0000 0.33550  0.22400  0.02610  Biso   1.000  H
  H127     1.0000 0.28990  0.29590  0.04620  Biso   1.000  H
  H128     1.0000 0.29600  0.24370  0.97500  Biso   1.000  H
  H129     1.0000 0.29590  0.14070  0.04840  Biso   1.000  H
  H130     1.0000 0.22700  0.10100  0.01420  Biso   1.000  H
  H131     1.0000 0.22350  0.15730  0.08420  Biso   1.000  H
  H132     1.0000 0.04310  0.30570  0.82160  Biso   1.000  H
  H133     1.0000 0.92060  0.15930  0.70010  Biso   1.000  H
  H134     1.0000 0.88260  0.22980  0.74720  Biso   1.000  H
  H135     1.0000 0.91100  0.17010  0.77050  Biso   1.000  H
  H136     1.0000 0.02320  0.16940  0.67310  Biso   1.000  H
  H137     1.0000 0.08030  0.18710  0.72610  Biso   1.000  H
  H138     1.0000 0.05850  0.24740  0.70090  Biso   1.000  H
  H139     1.0000 0.53260  0.44550  0.67490  Biso   1.000  H
  H140     1.0000 0.65520  0.26600  0.63610  Biso   1.000  H
  H141     1.0000 0.59910  0.51040  0.76330  Biso   1.000  H
  H142     1.0000 0.69050  0.56620  0.85000  Biso   1.000  H
  H143     1.0000 0.85830  0.39000  0.84710  Biso   1.000  H
  H144     1.0000 0.78230  0.59680  0.92240  Biso   1.000  H
  H145     1.0000 0.32110  0.86300  0.33040  Biso   1.000  H
  H146     1.0000 0.38790  0.06680  0.35530  Biso   1.000  H
  H147     1.0000 0.23630  0.86680  0.25870  Biso   1.000  H
  H148     1.0000 0.15320  0.89080  0.18500  Biso   1.000  H
  H149     1.0000 0.19440  0.11820  0.17300  Biso   1.000  H
  H150     1.0000 0.08330  0.92900  0.12200  Biso   1.000  H
  H151     1.0000 0.79630  0.93480  0.10400  Biso   1.000  H
  H152     1.0000 0.81780  0.15350  0.15650  Biso   1.000  H
  H153     1.0000 0.70120  0.95160  0.17050  Biso   1.000  H
  H154     1.0000 0.60710  0.99430  0.25970  Biso   1.000  H
  H155     1.0000 0.58540  0.25140  0.34310  Biso   1.000  H
  H156     1.0000 0.52670  0.05280  0.34080  Biso   1.000  H
  H157     1.0000 0.34930  0.27270  0.44880  Biso   1.000  H
  H158     1.0000 0.17170  0.29170  0.44450  Biso   1.000  H
  H159     1.0000 0.22250  0.23370  0.45350  Biso   1.000  H
  H160     1.0000 0.23130  0.25480  0.39510  Biso   1.000  H
  H161     1.0000 0.18930  0.40200  0.50210  Biso   1.000  H
  H162     1.0000 0.26030  0.43690  0.49200  Biso   1.000  H
  H163     1.0000 0.25030  0.41810  0.55150  Biso   1.000  H
  H164     1.0000 0.29480  0.09260  0.50190  Biso   1.000  H
  H165     1.0000 0.21800  0.27630  0.62160  Biso   1.000  H
  H166     1.0000 0.27070  0.28150  0.57110  Biso   1.000  H
  H167     1.0000 0.29910  0.26450  0.62780  Biso   1.000  H
  H168     1.0000 0.18890  0.09690  0.54580  Biso   1.000  H
  H169     1.0000 0.14810  0.17130  0.56200  Biso   1.000  H
  H170     1.0000 0.18410  0.15370  0.61570  Biso   1.000  H
  H171     1.0000 0.66070  0.23760  0.49530  Biso   1.000  H
  H172     1.0000 0.83550  0.27600  0.47390  Biso   1.000  H
  H173     1.0000 0.78990  0.20410  0.45380  Biso   1.000  H
  H174     1.0000 0.79600  0.25630  0.52500  Biso   1.000  H
  H175     1.0000 0.79590  0.35930  0.45160  Biso   1.000  H
  H176     1.0000 0.72700  0.39900  0.48580  Biso   1.000  H
  H177     1.0000 0.72350  0.34270  0.41580  Biso   1.000  H
  H178     1.0000 0.54310  0.19430  0.67840  Biso   1.000  H
  H179     1.0000 0.42060  0.34070  0.79990  Biso   1.000  H
  H180     1.0000 0.38260  0.27020  0.75280  Biso   1.000  H
  H181     1.0000 0.41100  0.32990  0.72950  Biso   1.000  H
  H182     1.0000 0.52320  0.33060  0.82690  Biso   1.000  H
  H183     1.0000 0.58030  0.31290  0.77390  Biso   1.000  H
  H184     1.0000 0.55850  0.25260  0.79910  Biso   1.000  H
  C1       1.0000 0.95840  0.80690  0.09050  Biso   1.000  C
  C2       1.0000 0.91390  0.84940  0.14750  Biso   1.000  C
  C3       1.0000 0.92930  0.92260  0.18530  Biso   1.000  C
  C4       1.0000 0.85600  0.81450  0.16090  Biso   1.000  C
  C5       1.0000 0.88920  0.96210  0.23790  Biso   1.000  C
  C6       1.0000 0.81570  0.85550  0.21310  Biso   1.000  C
  C7       1.0000 0.83160  0.92820  0.25180  Biso   1.000  C
  C8       1.0000 0.77960  0.95990  0.30370  Biso   1.000  C
  C9       1.0000 0.72750  0.90890  0.30400  Biso   1.000  C
  C10      1.0000 0.77600  0.03120  0.34880  Biso   1.000  C
  C11      1.0000 0.67430  0.92550  0.34740  Biso   1.000  C
  C12      1.0000 0.72080  0.04890  0.39230  Biso   1.000  C
  C13      1.0000 0.67080  0.99820  0.39240  Biso   1.000  C
  C14      1.0000 0.61160  0.02240  0.43950  Biso   1.000  C
  C15      1.0000 0.08920  0.46480  0.90240  Biso   1.000  C
  C16      1.0000 0.13860  0.46470  0.85140  Biso   1.000  C
  C17      1.0000 0.18270  0.40470  0.82100  Biso   1.000  C
  C18      1.0000 0.14110  0.52630  0.83550  Biso   1.000  C
  C19      1.0000 0.18790  0.52490  0.78960  Biso   1.000  C
  C20      1.0000 0.23440  0.46700  0.75990  Biso   1.000  C
  C21      1.0000 0.23250  0.40590  0.77670  Biso   1.000  C
  C22      1.0000 0.28310  0.48030  0.71610  Biso   1.000  C
  C23      1.0000 0.27250  0.54890  0.71180  Biso   1.000  C
  C24      1.0000 0.33820  0.43600  0.68230  Biso   1.000  C
  C25      1.0000 0.31370  0.57270  0.67500  Biso   1.000  C
  C26      1.0000 0.38010  0.45910  0.64470  Biso   1.000  C
  C27      1.0000 0.36860  0.52690  0.64010  Biso   1.000  C
  C28      1.0000 0.41410  0.55140  0.59830  Biso   1.000  C
  C29      1.0000 0.61630  0.52880  0.58350  Biso   1.000  C
  C30      1.0000 0.68180  0.54220  0.62440  Biso   1.000  C
  C31      1.0000 0.71840  0.48240  0.62860  Biso   1.000  C
  C32      1.0000 0.70520  0.61310  0.65920  Biso   1.000  C
  C33      1.0000 0.76350  0.62300  0.69790  Biso   1.000  C
  C34      1.0000 0.77570  0.49210  0.66830  Biso   1.000  C
  C35      1.0000 0.79840  0.56280  0.70490  Biso   1.000  C
  C36      1.0000 0.85470  0.58680  0.75300  Biso   1.000  C
  C37      1.0000 0.89680  0.54540  0.77640  Biso   1.000  C
  C38      1.0000 0.86270  0.66410  0.78020  Biso   1.000  C
  C39      1.0000 0.91020  0.70030  0.82730  Biso   1.000  C
  C40      1.0000 0.94530  0.58070  0.82530  Biso   1.000  C
  C41      1.0000 0.95140  0.65780  0.85060  Biso   1.000  C
  C42      1.0000 0.00210  0.69730  0.90380  Biso   1.000  C
  C43      1.0000 0.16660  0.81930  0.97450  Biso   1.000  C
  C44      1.0000 0.28080  0.77310  0.93890  Biso   1.000  C
  C45      1.0000 0.26040  0.90290  0.00770  Biso   1.000  C
  C46      1.0000 0.19570  0.64120  0.02800  Biso   1.000  C
  C47      1.0000 0.23930  0.75680  0.09880  Biso   1.000  C
  C48      1.0000 0.31210  0.64830  0.07270  Biso   1.000  C
  C49      1.0000 0.83320  0.77740  0.98370  Biso   1.000  C
  C50      1.0000 0.70640  0.75450  0.98290  Biso   1.000  C
  C51      1.0000 0.75400  0.85390  0.95570  Biso   1.000  C
  C52      1.0000 0.00170  0.71530  0.18620  Biso   1.000  C
  C53      1.0000 0.08040  0.80530  0.25740  Biso   1.000  C
  C54      1.0000 0.95810  0.79300  0.28950  Biso   1.000  C
  C55      1.0000 0.45840  0.69310  0.40950  Biso   1.000  C
  C56      1.0000 0.41390  0.65060  0.35250  Biso   1.000  C
  C57      1.0000 0.42930  0.57740  0.31470  Biso   1.000  C
  C58      1.0000 0.35600  0.68550  0.33910  Biso   1.000  C
  C59      1.0000 0.38920  0.53790  0.26210  Biso   1.000  C
  C60      1.0000 0.31570  0.64450  0.28690  Biso   1.000  C
  C61      1.0000 0.33160  0.57180  0.24820  Biso   1.000  C
  C62      1.0000 0.27960  0.54010  0.19630  Biso   1.000  C
  C63      1.0000 0.22750  0.59110  0.19600  Biso   1.000  C
  C64      1.0000 0.27600  0.46880  0.15120  Biso   1.000  C
  C65      1.0000 0.17430  0.57450  0.15260  Biso   1.000  C
  C66      1.0000 0.22080  0.45110  0.10770  Biso   1.000  C
  C67      1.0000 0.17080  0.50180  0.10760  Biso   1.000  C
  C68      1.0000 0.11160  0.47760  0.06050  Biso   1.000  C
  C69      1.0000 0.58920  0.03520  0.59760  Biso   1.000  C
  C70      1.0000 0.63860  0.03530  0.64860  Biso   1.000  C
  C71      1.0000 0.68270  0.09530  0.67900  Biso   1.000  C
  C72      1.0000 0.64110  0.97370  0.66450  Biso   1.000  C
  C73      1.0000 0.68790  0.97510  0.71040  Biso   1.000  C
  C74      1.0000 0.73440  0.03300  0.74010  Biso   1.000  C
  C75      1.0000 0.73250  0.09410  0.72330  Biso   1.000  C
  C76      1.0000 0.78310  0.01970  0.78390  Biso   1.000  C
  C77      1.0000 0.77250  0.95110  0.78820  Biso   1.000  C
  C78      1.0000 0.83820  0.06400  0.81770  Biso   1.000  C
  C79      1.0000 0.81370  0.92730  0.82500  Biso   1.000  C
  C80      1.0000 0.88010  0.04090  0.85530  Biso   1.000  C
  C81      1.0000 0.86860  0.97310  0.85990  Biso   1.000  C
  C82      1.0000 0.91410  0.94860  0.90170  Biso   1.000  C
  C83      1.0000 0.11630  0.97120  0.91650  Biso   1.000  C
  C84      1.0000 0.18180  0.95780  0.87560  Biso   1.000  C
  C85      1.0000 0.21840  0.01760  0.87140  Biso   1.000  C
  C86      1.0000 0.20520  0.88690  0.84080  Biso   1.000  C
  C87      1.0000 0.26350  0.87700  0.80210  Biso   1.000  C
  C88      1.0000 0.27570  0.00790  0.83170  Biso   1.000  C
  C89      1.0000 0.29840  0.93720  0.79510  Biso   1.000  C
  C90      1.0000 0.35470  0.91320  0.74700  Biso   1.000  C
  C91      1.0000 0.39680  0.95460  0.72360  Biso   1.000  C
  C92      1.0000 0.36270  0.83590  0.71980  Biso   1.000  C
  C93      1.0000 0.41020  0.79970  0.67270  Biso   1.000  C
  C94      1.0000 0.44530  0.91930  0.67470  Biso   1.000  C
  C95      1.0000 0.45140  0.84220  0.64940  Biso   1.000  C
  C96      1.0000 0.50210  0.80270  0.59620  Biso   1.000  C
  C97      1.0000 0.66660  0.68070  0.52550  Biso   1.000  C
  C98      1.0000 0.78080  0.72690  0.56110  Biso   1.000  C
  C99      1.0000 0.76040  0.59710  0.49230  Biso   1.000  C
  C100     1.0000 0.69570  0.85880  0.47200  Biso   1.000  C
  C101     1.0000 0.73930  0.74320  0.40120  Biso   1.000  C
  C102     1.0000 0.81210  0.85170  0.42730  Biso   1.000  C
  C103     1.0000 0.33320  0.72260  0.51630  Biso   1.000  C
  C104     1.0000 0.20640  0.74550  0.51710  Biso   1.000  C
  C105     1.0000 0.25400  0.64610  0.54430  Biso   1.000  C
  C106     1.0000 0.50170  0.78470  0.31380  Biso   1.000  C
  C107     1.0000 0.58040  0.69470  0.24260  Biso   1.000  C
  C108     1.0000 0.45810  0.70700  0.21050  Biso   1.000  C
  C109     1.0000 0.04160  0.19310  0.90950  Biso   1.000  C
  C110     1.0000 0.08610  0.15060  0.85250  Biso   1.000  C
  C111     1.0000 0.07070  0.07740  0.81470  Biso   1.000  C
  C112     1.0000 0.14400  0.18550  0.83910  Biso   1.000  C
  C113     1.0000 0.11080  0.03790  0.76210  Biso   1.000  C
  C114     1.0000 0.18430  0.14450  0.78690  Biso   1.000  C
  C115     1.0000 0.16840  0.07180  0.74820  Biso   1.000  C
  C116     1.0000 0.22040  0.04010  0.69630  Biso   1.000  C
  C117     1.0000 0.27250  0.09110  0.69600  Biso   1.000  C
  C118     1.0000 0.22400  0.96880  0.65120  Biso   1.000  C
  C119     1.0000 0.32570  0.07450  0.65260  Biso   1.000  C
  C120     1.0000 0.27920  0.95110  0.60770  Biso   1.000  C
  C121     1.0000 0.32920  0.00180  0.60760  Biso   1.000  C
  C122     1.0000 0.38840  0.97760  0.56050  Biso   1.000  C
  C123     1.0000 0.91080  0.53520  0.09760  Biso   1.000  C
  C124     1.0000 0.86140  0.53530  0.14860  Biso   1.000  C
  C125     1.0000 0.81730  0.59530  0.17900  Biso   1.000  C
  C126     1.0000 0.85890  0.47370  0.16450  Biso   1.000  C
  C127     1.0000 0.81210  0.47510  0.21040  Biso   1.000  C
  C128     1.0000 0.76560  0.53300  0.24010  Biso   1.000  C
  C129     1.0000 0.76750  0.59410  0.22330  Biso   1.000  C
  C130     1.0000 0.71690  0.51970  0.28390  Biso   1.000  C
  C131     1.0000 0.72750  0.45110  0.28820  Biso   1.000  C
  C132     1.0000 0.66180  0.56400  0.31770  Biso   1.000  C
  C133     1.0000 0.68630  0.42730  0.32500  Biso   1.000  C
  C134     1.0000 0.61990  0.54090  0.35530  Biso   1.000  C
  C135     1.0000 0.63140  0.47310  0.35990  Biso   1.000  C
  C136     1.0000 0.58590  0.44860  0.40170  Biso   1.000  C
  C137     1.0000 0.38370  0.47120  0.41650  Biso   1.000  C
  C138     1.0000 0.31820  0.45780  0.37560  Biso   1.000  C
  C139     1.0000 0.28160  0.51760  0.37140  Biso   1.000  C
  C140     1.0000 0.29480  0.38690  0.34080  Biso   1.000  C
  C141     1.0000 0.23650  0.37700  0.30210  Biso   1.000  C
  C142     1.0000 0.22430  0.50790  0.33170  Biso   1.000  C
  C143     1.0000 0.20160  0.43720  0.29510  Biso   1.000  C
  C144     1.0000 0.14530  0.41320  0.24700  Biso   1.000  C
  C145     1.0000 0.10320  0.45460  0.22360  Biso   1.000  C
  C146     1.0000 0.13730  0.33590  0.21980  Biso   1.000  C
  C147     1.0000 0.08980  0.29970  0.17270  Biso   1.000  C
  C148     1.0000 0.05470  0.41930  0.17470  Biso   1.000  C
  C149     1.0000 0.04860  0.34220  0.14940  Biso   1.000  C
  C150     1.0000 0.99790  0.30270  0.09620  Biso   1.000  C
  C151     1.0000 0.83340  0.18070  0.02550  Biso   1.000  C
  C152     1.0000 0.71920  0.22690  0.06110  Biso   1.000  C
  C153     1.0000 0.73960  0.09710  0.99230  Biso   1.000  C
  C154     1.0000 0.80430  0.35880  0.97200  Biso   1.000  C
  C155     1.0000 0.76070  0.24320  0.90120  Biso   1.000  C
  C156     1.0000 0.68790  0.35170  0.92730  Biso   1.000  C
  C157     1.0000 0.16680  0.22260  0.01630  Biso   1.000  C
  C158     1.0000 0.29360  0.24550  0.01710  Biso   1.000  C
  C159     1.0000 0.24600  0.14610  0.04430  Biso   1.000  C
  C160     1.0000 0.99830  0.28470  0.81380  Biso   1.000  C
  C161     1.0000 0.91960  0.19470  0.74260  Biso   1.000  C
  C162     1.0000 0.04190  0.20700  0.71050  Biso   1.000  C
  C163     1.0000 0.54160  0.30690  0.59050  Biso   1.000  C
  C164     1.0000 0.58610  0.34940  0.64750  Biso   1.000  C
  C165     1.0000 0.57070  0.42260  0.68530  Biso   1.000  C
  C166     1.0000 0.64400  0.31450  0.66090  Biso   1.000  C
  C167     1.0000 0.61080  0.46210  0.73790  Biso   1.000  C
  C168     1.0000 0.68430  0.35550  0.71310  Biso   1.000  C
  C169     1.0000 0.66840  0.42820  0.75180  Biso   1.000  C
  C170     1.0000 0.72040  0.45990  0.80370  Biso   1.000  C
  C171     1.0000 0.77250  0.40890  0.80400  Biso   1.000  C
  C172     1.0000 0.72400  0.53120  0.84880  Biso   1.000  C
  C173     1.0000 0.82570  0.42550  0.84740  Biso   1.000  C
  C174     1.0000 0.77920  0.54890  0.89230  Biso   1.000  C
  C175     1.0000 0.82920  0.49820  0.89240  Biso   1.000  C
  C176     1.0000 0.88840  0.52240  0.93950  Biso   1.000  C
  C177     1.0000 0.41080  0.96480  0.40240  Biso   1.000  C
  C178     1.0000 0.36140  0.96470  0.35140  Biso   1.000  C
  C179     1.0000 0.31730  0.90470  0.32100  Biso   1.000  C
  C180     1.0000 0.35890  0.02630  0.33550  Biso   1.000  C
  C181     1.0000 0.31210  0.02490  0.28960  Biso   1.000  C
  C182     1.0000 0.26560  0.96700  0.25990  Biso   1.000  C
  C183     1.0000 0.26750  0.90590  0.27670  Biso   1.000  C
  C184     1.0000 0.21690  0.98030  0.21610  Biso   1.000  C
  C185     1.0000 0.22750  0.04890  0.21180  Biso   1.000  C
  C186     1.0000 0.16180  0.93600  0.18230  Biso   1.000  C
  C187     1.0000 0.18630  0.07270  0.17500  Biso   1.000  C
  C188     1.0000 0.11990  0.95910  0.14470  Biso   1.000  C
  C189     1.0000 0.13140  0.02690  0.14010  Biso   1.000  C
  C190     1.0000 0.08590  0.05140  0.09830  Biso   1.000  C
  C191     1.0000 0.88370  0.02880  0.08350  Biso   1.000  C
  C192     1.0000 0.81820  0.04220  0.12440  Biso   1.000  C
  C193     1.0000 0.78160  0.98240  0.12860  Biso   1.000  C
  C194     1.0000 0.79480  0.11310  0.15920  Biso   1.000  C
  C195     1.0000 0.73650  0.12300  0.19790  Biso   1.000  C
  C196     1.0000 0.72430  0.99210  0.16830  Biso   1.000  C
  C197     1.0000 0.70160  0.06280  0.20490  Biso   1.000  C
  C198     1.0000 0.64530  0.08680  0.25300  Biso   1.000  C
  C199     1.0000 0.60320  0.04540  0.27640  Biso   1.000  C
  C200     1.0000 0.63730  0.16410  0.28020  Biso   1.000  C
  C201     1.0000 0.58980  0.20030  0.32730  Biso   1.000  C
  C202     1.0000 0.55470  0.08070  0.32530  Biso   1.000  C
  C203     1.0000 0.54860  0.15780  0.35060  Biso   1.000  C
  C204     1.0000 0.49790  0.19730  0.40380  Biso   1.000  C
  C205     1.0000 0.33340  0.31930  0.47450  Biso   1.000  C
  C206     1.0000 0.21920  0.27310  0.43890  Biso   1.000  C
  C207     1.0000 0.23960  0.40290  0.50770  Biso   1.000  C
  C208     1.0000 0.30430  0.14120  0.52800  Biso   1.000  C
  C209     1.0000 0.26070  0.25680  0.59880  Biso   1.000  C
  C210     1.0000 0.18790  0.14830  0.57270  Biso   1.000  C
  C211     1.0000 0.66680  0.27740  0.48370  Biso   1.000  C
  C212     1.0000 0.79360  0.25450  0.48290  Biso   1.000  C
  C213     1.0000 0.74600  0.35390  0.45570  Biso   1.000  C
  C214     1.0000 0.49830  0.21530  0.68620  Biso   1.000  C
  C215     1.0000 0.41960  0.30530  0.75740  Biso   1.000  C
  C216     1.0000 0.54190  0.29300  0.78950  Biso   1.000  C
  S1       1.0000 0.73873  0.82431  0.23875  Biso   1.000  S
  S2       1.0000 0.19791  0.59398  0.75846  Biso   1.000  S
  S3       1.0000 0.80402  0.70727  0.74555  Biso   1.000  S
  S4       1.0000 0.23873  0.67569  0.26125  Biso   1.000  S
  S5       1.0000 0.69791  0.90602  0.74154  Biso   1.000  S
  S6       1.0000 0.30402  0.79273  0.75445  Biso   1.000  S
  S7       1.0000 0.26127  0.17569  0.76125  Biso   1.000  S
  S8       1.0000 0.80209  0.40602  0.24154  Biso   1.000  S
  S9       1.0000 0.19598  0.29273  0.25445  Biso   1.000  S
  S10      1.0000 0.76127  0.32431  0.73875  Biso   1.000  S
  S11      1.0000 0.30209  0.09398  0.25846  Biso   1.000  S
  S12      1.0000 0.69598  0.20727  0.24555  Biso   1.000  S
  N1       1.0000 0.23260  0.83160  0.97430  Biso   1.000  N
  N2       1.0000 0.24730  0.68310  0.06430  Biso   1.000  N
  N3       1.0000 0.76700  0.79470  0.97680  Biso   1.000  N
  N4       1.0000 0.01330  0.76740  0.24210  Biso   1.000  N
  N5       1.0000 0.73260  0.66840  0.52570  Biso   1.000  N
  N6       1.0000 0.74730  0.81690  0.43570  Biso   1.000  N
  N7       1.0000 0.26700  0.70530  0.52320  Biso   1.000  N
  N8       1.0000 0.51330  0.73260  0.25790  Biso   1.000  N
  N9       1.0000 0.76740  0.16840  0.02570  Biso   1.000  N
  N10      1.0000 0.75270  0.31690  0.93570  Biso   1.000  N
  N11      1.0000 0.23300  0.20530  0.02320  Biso   1.000  N
  N12      1.0000 0.98670  0.23260  0.75790  Biso   1.000  N
  N13      1.0000 0.26740  0.33160  0.47430  Biso   1.000  N
  N14      1.0000 0.25270  0.18310  0.56430  Biso   1.000  N
  N15      1.0000 0.73300  0.29470  0.47680  Biso   1.000  N
  N16      1.0000 0.48670  0.26740  0.74210  Biso   1.000  N
  O1       1.0000 0.00050  0.84286  0.07096  Biso   1.000  O
  O2       1.0000 0.95210  0.73751  0.06731  Biso   1.000  O
  O3       1.0000 0.57460  0.97180  0.44490  Biso   1.000  O
  O4       1.0000 0.60200  0.08850  0.46960  Biso   1.000  O
  O5       1.0000 0.68170  0.81190  0.19400  Biso   1.000  O
  O6       1.0000 0.75510  0.76560  0.25850  Biso   1.000  O
  O7       1.0000 0.07550  0.40552  0.90742  Biso   1.000  O
  O8       1.0000 0.06080  0.52420  0.93440  Biso   1.000  O
  O9       1.0000 0.41400  0.61807  0.60627  Biso   1.000  O
  O10      1.0000 0.13850  0.59180  0.71790  Biso   1.000  O
  O11      1.0000 0.21580  0.66344  0.80674  Biso   1.000  O
  O12      1.0000 0.60060  0.46364  0.55044  Biso   1.000  O
  O13      1.0000 0.58220  0.58567  0.58727  Biso   1.000  O
  O14      1.0000 0.75540  0.75530  0.79060  Biso   1.000  O
  O15      1.0000 0.84370  0.73730  0.70720  Biso   1.000  O
  O16      1.0000 0.02330  0.66282  0.93622  Biso   1.000  O
  O17      1.0000 0.02070  0.76122  0.91122  Biso   1.000  O
  O18      1.0000 0.45190  0.50294  0.55644  Biso   1.000  O
  O19      1.0000 0.12380  0.86219  0.00459  Biso   1.000  O
  O20      1.0000 0.13740  0.66560  0.02870  Biso   1.000  O
  O21      1.0000 0.88710  0.80707  0.97687  Biso   1.000  O
  O22      1.0000 0.04640  0.69210  0.14300  Biso   1.000  O
  O23      1.0000 0.50050  0.65714  0.42904  Biso   1.000  O
  O24      1.0000 0.45210  0.76249  0.43269  Biso   1.000  O
  O25      1.0000 0.07460  0.52820  0.05510  Biso   1.000  O
  O26      1.0000 0.10200  0.41150  0.03040  Biso   1.000  O
  O27      1.0000 0.18170  0.68810  0.30600  Biso   1.000  O
  O28      1.0000 0.25510  0.73440  0.24150  Biso   1.000  O
  O29      1.0000 0.57550  0.09448  0.59258  Biso   1.000  O
  O30      1.0000 0.56080  0.97580  0.56560  Biso   1.000  O
  O31      1.0000 0.91400  0.88193  0.89373  Biso   1.000  O
  O32      1.0000 0.63850  0.90820  0.78210  Biso   1.000  O
  O33      1.0000 0.71580  0.83656  0.69326  Biso   1.000  O
  O34      1.0000 0.10060  0.03636  0.94956  Biso   1.000  O
  O35      1.0000 0.08220  0.91433  0.91273  Biso   1.000  O
  O36      1.0000 0.25540  0.74470  0.70940  Biso   1.000  O
  O37      1.0000 0.34370  0.76270  0.79280  Biso   1.000  O
  O38      1.0000 0.52330  0.83718  0.56378  Biso   1.000  O
  O39      1.0000 0.52070  0.73878  0.58878  Biso   1.000  O
  O40      1.0000 0.95190  0.99706  0.94356  Biso   1.000  O
  O41      1.0000 0.62380  0.63781  0.49541  Biso   1.000  O
  O42      1.0000 0.63740  0.83440  0.47130  Biso   1.000  O
  O43      1.0000 0.38710  0.69293  0.52313  Biso   1.000  O
  O44      1.0000 0.54640  0.80790  0.35700  Biso   1.000  O
  O45      1.0000 0.99950  0.15714  0.92904  Biso   1.000  O
  O46      1.0000 0.04790  0.26249  0.93269  Biso   1.000  O
  O47      1.0000 0.42540  0.02820  0.55510  Biso   1.000  O
  O48      1.0000 0.39800  0.91150  0.53040  Biso   1.000  O
  O49      1.0000 0.31830  0.18810  0.80600  Biso   1.000  O
  O50      1.0000 0.24490  0.23440  0.74150  Biso   1.000  O
  O51      1.0000 0.92450  0.59448  0.09258  Biso   1.000  O
  O52      1.0000 0.93920  0.47580  0.06560  Biso   1.000  O
  O53      1.0000 0.58600  0.38193  0.39373  Biso   1.000  O
  O54      1.0000 0.86150  0.40820  0.28210  Biso   1.000  O
  O55      1.0000 0.78420  0.33656  0.19326  Biso   1.000  O
  O56      1.0000 0.39940  0.53636  0.44956  Biso   1.000  O
  O57      1.0000 0.41780  0.41433  0.41273  Biso   1.000  O
  O58      1.0000 0.24460  0.24470  0.20940  Biso   1.000  O
  O59      1.0000 0.15630  0.26270  0.29280  Biso   1.000  O
  O60      1.0000 0.97670  0.33718  0.06378  Biso   1.000  O
  O61      1.0000 0.97930  0.23878  0.08878  Biso   1.000  O
  O62      1.0000 0.54810  0.49706  0.44356  Biso   1.000  O
  O63      1.0000 0.87620  0.13781  0.99541  Biso   1.000  O
  O64      1.0000 0.86260  0.33440  0.97130  Biso   1.000  O
  O65      1.0000 0.11290  0.19293  0.02313  Biso   1.000  O
  O66      1.0000 0.95360  0.30790  0.85700  Biso   1.000  O
  O67      1.0000 0.49950  0.34286  0.57096  Biso   1.000  O
  O68      1.0000 0.54790  0.23751  0.56731  Biso   1.000  O
  O69      1.0000 0.92540  0.47180  0.94490  Biso   1.000  O
  O70      1.0000 0.89800  0.58850  0.96960  Biso   1.000  O
  O71      1.0000 0.81830  0.31190  0.69400  Biso   1.000  O
  O72      1.0000 0.74490  0.26560  0.75850  Biso   1.000  O
  O73      1.0000 0.42450  0.90552  0.40742  Biso   1.000  O
  O74      1.0000 0.43920  0.02420  0.43440  Biso   1.000  O
  O75      1.0000 0.08600  0.11807  0.10627  Biso   1.000  O
  O76      1.0000 0.36150  0.09180  0.21790  Biso   1.000  O
  O77      1.0000 0.28420  0.16344  0.30674  Biso   1.000  O
  O78      1.0000 0.89940  0.96364  0.05044  Biso   1.000  O
  O79      1.0000 0.91780  0.08567  0.08727  Biso   1.000  O
  O80      1.0000 0.74460  0.25530  0.29060  Biso   1.000  O
  O81      1.0000 0.65630  0.23730  0.20720  Biso   1.000  O
  O82      1.0000 0.47670  0.16282  0.43622  Biso   1.000  O
  O83      1.0000 0.47930  0.26122  0.41122  Biso   1.000  O
  O84      1.0000 0.04810  0.00294  0.05644  Biso   1.000  O
  O85      1.0000 0.37620  0.36219  0.50459  Biso   1.000  O
  O86      1.0000 0.36260  0.16560  0.52870  Biso   1.000  O
  O87      1.0000 0.61290  0.30707  0.47687  Biso   1.000  O
  O88      1.0000 0.45360  0.19210  0.64300  Biso   1.000  O
