data_image0
_cell_length_a       18.0026
_cell_length_b       18.0026
_cell_length_c       13.3316
_cell_angle_alpha    90
_cell_angle_beta     90
_cell_angle_gamma    120

_symmetry_space_group_name_H-M    "P 1"
_symmetry_int_tables_number       1

loop_
  _symmetry_equiv_pos_as_xyz
  'x, y, z'

loop_
  _atom_site_label
  _atom_site_occupancy
  _atom_site_fract_x
  _atom_site_fract_y
  _atom_site_fract_z
  _atom_site_thermal_displace_type
  _atom_site_B_iso_or_equiv
  _atom_site_type_symbol
  Be1      1.0000 0.40450  0.04760  0.61840  Biso   1.000  Be
  P1       1.0000 0.08082  0.70125  0.58981  Biso   1.000  P
  H1       1.0000 0.12550  0.78160  0.54650  Biso   1.000  H
  O1       1.0000 0.38510  0.12130  0.65590  Biso   1.000  O
  O2       1.0000 0.49526  0.06090  0.65560  Biso   1.000  O
  O3       1.0000 0.32860  0.95283  0.65480  Biso   1.000  O
  O4       1.0000 0.14423  0.68720  0.65010  Biso   1.000  O
  O5       1.0000 0.04940  0.63940  0.50270  Biso   1.000  O
  O6       1.0000 0.00870  0.69600  0.65170  Biso   1.000  O
  Be2      1.0000 0.95240  0.35690  0.61840  Biso   1.000  Be
  P2       1.0000 0.29875  0.37957  0.58981  Biso   1.000  P
  H2       1.0000 0.21840  0.34390  0.54650  Biso   1.000  H
  O7       1.0000 0.87870  0.26380  0.65590  Biso   1.000  O
  O8       1.0000 0.93910  0.43436  0.65560  Biso   1.000  O
  O9       1.0000 0.04717  0.37577  0.65480  Biso   1.000  O
  O10      1.0000 0.31280  0.45703  0.65010  Biso   1.000  O
  O11      1.0000 0.36060  0.41000  0.50270  Biso   1.000  O
  O12      1.0000 0.30400  0.31270  0.65170  Biso   1.000  O
  Be3      1.0000 0.64310  0.59550  0.61840  Biso   1.000  Be
  P3       1.0000 0.62043  0.91918  0.58981  Biso   1.000  P
  H3       1.0000 0.65610  0.87450  0.54650  Biso   1.000  H
  O13      1.0000 0.73620  0.61490  0.65590  Biso   1.000  O
  O14      1.0000 0.56564  0.50474  0.65560  Biso   1.000  O
  O15      1.0000 0.62423  0.67140  0.65480  Biso   1.000  O
  O16      1.0000 0.54297  0.85577  0.65010  Biso   1.000  O
  O17      1.0000 0.59000  0.95060  0.50270  Biso   1.000  O
  O18      1.0000 0.68730  0.99130  0.65170  Biso   1.000  O
  Be4      1.0000 0.59550  0.95240  0.11840  Biso   1.000  Be
  P4       1.0000 0.91918  0.29875  0.08981  Biso   1.000  P
  H4       1.0000 0.87450  0.21840  0.04650  Biso   1.000  H
  O19      1.0000 0.61490  0.87870  0.15590  Biso   1.000  O
  O20      1.0000 0.50474  0.93910  0.15560  Biso   1.000  O
  O21      1.0000 0.67140  0.04717  0.15480  Biso   1.000  O
  O22      1.0000 0.85577  0.31280  0.15010  Biso   1.000  O
  O23      1.0000 0.95060  0.36060  0.00270  Biso   1.000  O
  O24      1.0000 0.99130  0.30400  0.15170  Biso   1.000  O
  Be5      1.0000 0.04760  0.64310  0.11840  Biso   1.000  Be
  P5       1.0000 0.70125  0.62043  0.08981  Biso   1.000  P
  H5       1.0000 0.78160  0.65610  0.04650  Biso   1.000  H
  O25      1.0000 0.12130  0.73620  0.15590  Biso   1.000  O
  O26      1.0000 0.06090  0.56564  0.15560  Biso   1.000  O
  O27      1.0000 0.95283  0.62423  0.15480  Biso   1.000  O
  O28      1.0000 0.68720  0.54297  0.15010  Biso   1.000  O
  O29      1.0000 0.63940  0.59000  0.00270  Biso   1.000  O
  O30      1.0000 0.69600  0.68730  0.15170  Biso   1.000  O
  Be6      1.0000 0.35690  0.40450  0.11840  Biso   1.000  Be
  P6       1.0000 0.37957  0.08082  0.08981  Biso   1.000  P
  H6       1.0000 0.34390  0.12550  0.04650  Biso   1.000  H
  O31      1.0000 0.26380  0.38510  0.15590  Biso   1.000  O
  O32      1.0000 0.43436  0.49526  0.15560  Biso   1.000  O
  O33      1.0000 0.37577  0.32860  0.15480  Biso   1.000  O
  O34      1.0000 0.45703  0.14423  0.15010  Biso   1.000  O
  O35      1.0000 0.41000  0.04940  0.00270  Biso   1.000  O
  O36      1.0000 0.31270  0.00870  0.15170  Biso   1.000  O
  Be7      1.0000 0.59550  0.95240  0.38160  Biso   1.000  Be
  P7       1.0000 0.91918  0.29875  0.41019  Biso   1.000  P
  H7       1.0000 0.87450  0.21840  0.45350  Biso   1.000  H
  O37      1.0000 0.61490  0.87870  0.34410  Biso   1.000  O
  O38      1.0000 0.50474  0.93910  0.34440  Biso   1.000  O
  O39      1.0000 0.67140  0.04717  0.34520  Biso   1.000  O
  O40      1.0000 0.85577  0.31280  0.34990  Biso   1.000  O
  O41      1.0000 0.95060  0.36060  0.49730  Biso   1.000  O
  O42      1.0000 0.99130  0.30400  0.34830  Biso   1.000  O
  Be8      1.0000 0.04760  0.64310  0.38160  Biso   1.000  Be
  P8       1.0000 0.70125  0.62043  0.41019  Biso   1.000  P
  H8       1.0000 0.78160  0.65610  0.45350  Biso   1.000  H
  O43      1.0000 0.12130  0.73620  0.34410  Biso   1.000  O
  O44      1.0000 0.06090  0.56564  0.34440  Biso   1.000  O
  O45      1.0000 0.95283  0.62423  0.34520  Biso   1.000  O
  O46      1.0000 0.68720  0.54297  0.34990  Biso   1.000  O
  O47      1.0000 0.63940  0.59000  0.49730  Biso   1.000  O
  O48      1.0000 0.69600  0.68730  0.34830  Biso   1.000  O
  Be9      1.0000 0.35690  0.40450  0.38160  Biso   1.000  Be
  P9       1.0000 0.37957  0.08082  0.41019  Biso   1.000  P
  H9       1.0000 0.34390  0.12550  0.45350  Biso   1.000  H
  O49      1.0000 0.26380  0.38510  0.34410  Biso   1.000  O
  O50      1.0000 0.43436  0.49526  0.34440  Biso   1.000  O
  O51      1.0000 0.37577  0.32860  0.34520  Biso   1.000  O
  O52      1.0000 0.45703  0.14423  0.34990  Biso   1.000  O
  O53      1.0000 0.41000  0.04940  0.49730  Biso   1.000  O
  O54      1.0000 0.31270  0.00870  0.34830  Biso   1.000  O
  Be10     1.0000 0.40450  0.04760  0.88160  Biso   1.000  Be
  P10      1.0000 0.08082  0.70125  0.91019  Biso   1.000  P
  H10      1.0000 0.12550  0.78160  0.95350  Biso   1.000  H
  O55      1.0000 0.38510  0.12130  0.84410  Biso   1.000  O
  O56      1.0000 0.49526  0.06090  0.84440  Biso   1.000  O
  O57      1.0000 0.32860  0.95283  0.84520  Biso   1.000  O
  O58      1.0000 0.14423  0.68720  0.84990  Biso   1.000  O
  O59      1.0000 0.04940  0.63940  0.99730  Biso   1.000  O
  O60      1.0000 0.00870  0.69600  0.84830  Biso   1.000  O
  Be11     1.0000 0.95240  0.35690  0.88160  Biso   1.000  Be
  P11      1.0000 0.29875  0.37957  0.91019  Biso   1.000  P
  H11      1.0000 0.21840  0.34390  0.95350  Biso   1.000  H
  O61      1.0000 0.87870  0.26380  0.84410  Biso   1.000  O
  O62      1.0000 0.93910  0.43436  0.84440  Biso   1.000  O
  O63      1.0000 0.04717  0.37577  0.84520  Biso   1.000  O
  O64      1.0000 0.31280  0.45703  0.84990  Biso   1.000  O
  O65      1.0000 0.36060  0.41000  0.99730  Biso   1.000  O
  O66      1.0000 0.30400  0.31270  0.84830  Biso   1.000  O
  Be12     1.0000 0.64310  0.59550  0.88160  Biso   1.000  Be
  P12      1.0000 0.62043  0.91918  0.91019  Biso   1.000  P
  H12      1.0000 0.65610  0.87450  0.95350  Biso   1.000  H
  O67      1.0000 0.73620  0.61490  0.84410  Biso   1.000  O
  O68      1.0000 0.56564  0.50474  0.84440  Biso   1.000  O
  O69      1.0000 0.62423  0.67140  0.84520  Biso   1.000  O
  O70      1.0000 0.54297  0.85577  0.84990  Biso   1.000  O
  O71      1.0000 0.59000  0.95060  0.99730  Biso   1.000  O
  O72      1.0000 0.68730  0.99130  0.84830  Biso   1.000  O
  Be13     1.0000 0.35390  0.30790  0.75000  Biso   1.000  Be
  Be14     1.0000 0.20090  0.71510  0.75000  Biso   1.000  Be
  P13      1.0000 0.39807  0.17228  0.75000  Biso   1.000  P
  H13      1.0000 0.48270  0.23680  0.75000  Biso   1.000  H
  P14      1.0000 0.52521  0.03717  0.75000  Biso   1.000  P
  H14      1.0000 0.49600  0.96230  0.75000  Biso   1.000  H
  P15      1.0000 0.28302  0.90626  0.75000  Biso   1.000  P
  H15      1.0000 0.20170  0.90050  0.75000  Biso   1.000  H
  O73      1.0000 0.34270  0.21310  0.75000  Biso   1.000  O
  O74      1.0000 0.62120  0.07530  0.75000  Biso   1.000  O
  O75      1.0000 0.27050  0.81740  0.75000  Biso   1.000  O
  O76      1.0000 0.25230  0.66380  0.75000  Biso   1.000  O
  Be15     1.0000 0.69210  0.04600  0.75000  Biso   1.000  Be
  Be16     1.0000 0.28490  0.48580  0.75000  Biso   1.000  Be
  P16      1.0000 0.82772  0.22579  0.75000  Biso   1.000  P
  H16      1.0000 0.76320  0.24590  0.75000  Biso   1.000  H
  P17      1.0000 0.96283  0.48804  0.75000  Biso   1.000  P
  H17      1.0000 0.03770  0.53370  0.75000  Biso   1.000  H
  P18      1.0000 0.09374  0.37676  0.75000  Biso   1.000  P
  H18      1.0000 0.09950  0.30120  0.75000  Biso   1.000  H
  O77      1.0000 0.78690  0.12960  0.75000  Biso   1.000  O
  O78      1.0000 0.92470  0.54590  0.75000  Biso   1.000  O
  O79      1.0000 0.18260  0.45310  0.75000  Biso   1.000  O
  O80      1.0000 0.33620  0.58850  0.75000  Biso   1.000  O
  Be17     1.0000 0.95400  0.64610  0.75000  Biso   1.000  Be
  Be18     1.0000 0.51420  0.79910  0.75000  Biso   1.000  Be
  P19      1.0000 0.77421  0.60193  0.75000  Biso   1.000  P
  H19      1.0000 0.75410  0.51730  0.75000  Biso   1.000  H
  P20      1.0000 0.51196  0.47479  0.75000  Biso   1.000  P
  H20      1.0000 0.46630  0.50400  0.75000  Biso   1.000  H
  P21      1.0000 0.62324  0.71698  0.75000  Biso   1.000  P
  H21      1.0000 0.69880  0.79830  0.75000  Biso   1.000  H
  O81      1.0000 0.87040  0.65730  0.75000  Biso   1.000  O
  O82      1.0000 0.45410  0.37880  0.75000  Biso   1.000  O
  O83      1.0000 0.54690  0.72950  0.75000  Biso   1.000  O
  O84      1.0000 0.41150  0.74770  0.75000  Biso   1.000  O
  Be19     1.0000 0.64610  0.69210  0.25000  Biso   1.000  Be
  Be20     1.0000 0.79910  0.28490  0.25000  Biso   1.000  Be
  P22      1.0000 0.60193  0.82772  0.25000  Biso   1.000  P
  H22      1.0000 0.51730  0.76320  0.25000  Biso   1.000  H
  P23      1.0000 0.47479  0.96283  0.25000  Biso   1.000  P
  H23      1.0000 0.50400  0.03770  0.25000  Biso   1.000  H
  P24      1.0000 0.71698  0.09374  0.25000  Biso   1.000  P
  H24      1.0000 0.79830  0.09950  0.25000  Biso   1.000  H
  O85      1.0000 0.65730  0.78690  0.25000  Biso   1.000  O
  O86      1.0000 0.37880  0.92470  0.25000  Biso   1.000  O
  O87      1.0000 0.72950  0.18260  0.25000  Biso   1.000  O
  O88      1.0000 0.74770  0.33620  0.25000  Biso   1.000  O
  Be21     1.0000 0.30790  0.95400  0.25000  Biso   1.000  Be
  Be22     1.0000 0.71510  0.51420  0.25000  Biso   1.000  Be
  P25      1.0000 0.17228  0.77421  0.25000  Biso   1.000  P
  H25      1.0000 0.23680  0.75410  0.25000  Biso   1.000  H
  P26      1.0000 0.03717  0.51196  0.25000  Biso   1.000  P
  H26      1.0000 0.96230  0.46630  0.25000  Biso   1.000  H
  P27      1.0000 0.90626  0.62324  0.25000  Biso   1.000  P
  H27      1.0000 0.90050  0.69880  0.25000  Biso   1.000  H
  O89      1.0000 0.21310  0.87040  0.25000  Biso   1.000  O
  O90      1.0000 0.07530  0.45410  0.25000  Biso   1.000  O
  O91      1.0000 0.81740  0.54690  0.25000  Biso   1.000  O
  O92      1.0000 0.66380  0.41150  0.25000  Biso   1.000  O
  Be23     1.0000 0.04600  0.35390  0.25000  Biso   1.000  Be
  Be24     1.0000 0.48580  0.20090  0.25000  Biso   1.000  Be
  P28      1.0000 0.22579  0.39807  0.25000  Biso   1.000  P
  H28      1.0000 0.24590  0.48270  0.25000  Biso   1.000  H
  P29      1.0000 0.48804  0.52521  0.25000  Biso   1.000  P
  H29      1.0000 0.53370  0.49600  0.25000  Biso   1.000  H
  P30      1.0000 0.37676  0.28302  0.25000  Biso   1.000  P
  H30      1.0000 0.30120  0.20170  0.25000  Biso   1.000  H
  O93      1.0000 0.12960  0.34270  0.25000  Biso   1.000  O
  O94      1.0000 0.54590  0.62120  0.25000  Biso   1.000  O
  O95      1.0000 0.45310  0.27050  0.25000  Biso   1.000  O
  O96      1.0000 0.58850  0.25230  0.25000  Biso   1.000  O
  P31      1.0000 0.33333  0.66667  0.75000  Biso   1.000  P
  P32      1.0000 0.66667  0.33333  0.25000  Biso   1.000  P
  H31      1.0000 0.33333  0.66667  0.65810  Biso   1.000  H
  H32      1.0000 0.66667  0.33333  0.15810  Biso   1.000  H
  H33      1.0000 0.66667  0.33333  0.34190  Biso   1.000  H
  H34      1.0000 0.33333  0.66667  0.84190  Biso   1.000  H
