data_image0
_cell_length_a       9.33449
_cell_length_b       12.0427
_cell_length_c       27.514
_cell_angle_alpha    90
_cell_angle_beta     90
_cell_angle_gamma    112.803

_symmetry_space_group_name_H-M    P 1
_symmetry_int_tables_number       1

loop_
  _symmetry_equiv_pos_as_xyz
  'x, y, z'

loop_
  _atom_site_label
  _atom_site_occupancy
  _atom_site_fract_x
  _atom_site_fract_y
  _atom_site_fract_z
  _atom_site_thermal_displace_type
  _atom_site_B_iso_or_equiv
  _atom_site_type_symbol
  Cd1      1.0000 0.64916  0.00000  0.50000  Biso   1.000  Cd
  Cd2      1.0000 0.35084  0.00000  0.00000  Biso   1.000  Cd
  Cd3      1.0000 0.74404  0.48808  0.25000  Biso   1.000  Cd
  Cd4      1.0000 0.25596  0.51192  0.75000  Biso   1.000  Cd
  H1       1.0000 0.74290  0.62820  0.50900  Biso   1.000  H
  H2       1.0000 0.88930  0.51540  0.49390  Biso   1.000  H
  H3       1.0000 0.13480  0.75160  0.39340  Biso   1.000  H
  H4       1.0000 0.97970  0.86220  0.40690  Biso   1.000  H
  H5       1.0000 0.41330  0.64580  0.44740  Biso   1.000  H
  H6       1.0000 0.59090  0.64620  0.38960  Biso   1.000  H
  H7       1.0000 0.25260  0.52060  0.29110  Biso   1.000  H
  H8       1.0000 0.07460  0.52340  0.34960  Biso   1.000  H
  H9       1.0000 0.47860  0.23760  0.25910  Biso   1.000  H
  H10      1.0000 0.32050  0.23880  0.24030  Biso   1.000  H
  H11      1.0000 0.36710  0.13040  0.22760  Biso   1.000  H
  H12      1.0000 0.74530  0.45520  0.12570  Biso   1.000  H
  H13      1.0000 0.52640  0.32500  0.07630  Biso   1.000  H
  H14      1.0000 0.27390  0.13600  0.09660  Biso   1.000  H
  H15      1.0000 0.24330  0.09520  0.15110  Biso   1.000  H
  H16      1.0000 0.14970  0.24380  0.16630  Biso   1.000  H
  H17      1.0000 0.18610  0.29000  0.11270  Biso   1.000  H
  H18      1.0000 0.99500  0.11140  0.08360  Biso   1.000  H
  H19      1.0000 0.96250  0.05900  0.13660  Biso   1.000  H
  H20      1.0000 0.90640  0.26320  0.10620  Biso   1.000  H
  H21      1.0000 0.87170  0.20900  0.15870  Biso   1.000  H
  H22      1.0000 0.61830  0.00480  0.16840  Biso   1.000  H
  H23      1.0000 0.39380  0.91080  0.11580  Biso   1.000  H
  H24      1.0000 0.69720  0.15560  0.99410  Biso   1.000  H
  H25      1.0000 0.72540  0.26720  0.02780  Biso   1.000  H
  H26      1.0000 0.84790  0.20780  0.02610  Biso   1.000  H
  H27      1.0000 0.25710  0.37180  0.00900  Biso   1.000  H
  H28      1.0000 0.11070  0.48460  0.99390  Biso   1.000  H
  H29      1.0000 0.86520  0.24840  0.89340  Biso   1.000  H
  H30      1.0000 0.02030  0.13780  0.90690  Biso   1.000  H
  H31      1.0000 0.58670  0.35420  0.94740  Biso   1.000  H
  H32      1.0000 0.40910  0.35380  0.88960  Biso   1.000  H
  H33      1.0000 0.74740  0.47940  0.79110  Biso   1.000  H
  H34      1.0000 0.92540  0.47660  0.84960  Biso   1.000  H
  H35      1.0000 0.52140  0.76240  0.75910  Biso   1.000  H
  H36      1.0000 0.67950  0.76120  0.74030  Biso   1.000  H
  H37      1.0000 0.63290  0.86960  0.72760  Biso   1.000  H
  H38      1.0000 0.25470  0.54480  0.62570  Biso   1.000  H
  H39      1.0000 0.47360  0.67500  0.57630  Biso   1.000  H
  H40      1.0000 0.72610  0.86400  0.59660  Biso   1.000  H
  H41      1.0000 0.75670  0.90480  0.65110  Biso   1.000  H
  H42      1.0000 0.85030  0.75620  0.66630  Biso   1.000  H
  H43      1.0000 0.81390  0.71000  0.61270  Biso   1.000  H
  H44      1.0000 0.00500  0.88860  0.58360  Biso   1.000  H
  H45      1.0000 0.03750  0.94100  0.63660  Biso   1.000  H
  H46      1.0000 0.09360  0.73680  0.60620  Biso   1.000  H
  H47      1.0000 0.12830  0.79100  0.65870  Biso   1.000  H
  H48      1.0000 0.38170  0.99520  0.66840  Biso   1.000  H
  H49      1.0000 0.60620  0.08920  0.61580  Biso   1.000  H
  H50      1.0000 0.30280  0.84440  0.49410  Biso   1.000  H
  H51      1.0000 0.27460  0.73280  0.52780  Biso   1.000  H
  H52      1.0000 0.15210  0.79220  0.52610  Biso   1.000  H
  H53      1.0000 0.88530  0.62820  0.99100  Biso   1.000  H
  H54      1.0000 0.62610  0.51540  0.00610  Biso   1.000  H
  H55      1.0000 0.61680  0.75160  0.10660  Biso   1.000  H
  H56      1.0000 0.88250  0.86220  0.09310  Biso   1.000  H
  H57      1.0000 0.23250  0.64580  0.05260  Biso   1.000  H
  H58      1.0000 0.05530  0.64620  0.11040  Biso   1.000  H
  H59      1.0000 0.26800  0.52060  0.20890  Biso   1.000  H
  H60      1.0000 0.44880  0.52340  0.15040  Biso   1.000  H
  H61      1.0000 0.75900  0.23760  0.24090  Biso   1.000  H
  H62      1.0000 0.91830  0.23880  0.25970  Biso   1.000  H
  H63      1.0000 0.76330  0.13040  0.27240  Biso   1.000  H
  H64      1.0000 0.70990  0.45520  0.37430  Biso   1.000  H
  H65      1.0000 0.79860  0.32500  0.42370  Biso   1.000  H
  H66      1.0000 0.86210  0.13600  0.40340  Biso   1.000  H
  H67      1.0000 0.85190  0.09520  0.34890  Biso   1.000  H
  H68      1.0000 0.09410  0.24380  0.33370  Biso   1.000  H
  H69      1.0000 0.10390  0.29000  0.38730  Biso   1.000  H
  H70      1.0000 0.11640  0.11140  0.41640  Biso   1.000  H
  H71      1.0000 0.09650  0.05900  0.36340  Biso   1.000  H
  H72      1.0000 0.35680  0.26320  0.39380  Biso   1.000  H
  H73      1.0000 0.33730  0.20900  0.34130  Biso   1.000  H
  H74      1.0000 0.38650  0.00480  0.33160  Biso   1.000  H
  H75      1.0000 0.51700  0.91080  0.38420  Biso   1.000  H
  H76      1.0000 0.45840  0.15560  0.50590  Biso   1.000  H
  H77      1.0000 0.54180  0.26720  0.47220  Biso   1.000  H
  H78      1.0000 0.35990  0.20780  0.47390  Biso   1.000  H
  H79      1.0000 0.11470  0.37180  0.49100  Biso   1.000  H
  H80      1.0000 0.37390  0.48460  0.50610  Biso   1.000  H
  H81      1.0000 0.38320  0.24840  0.60660  Biso   1.000  H
  H82      1.0000 0.11750  0.13780  0.59310  Biso   1.000  H
  H83      1.0000 0.76750  0.35420  0.55260  Biso   1.000  H
  H84      1.0000 0.94470  0.35380  0.61040  Biso   1.000  H
  H85      1.0000 0.73200  0.47940  0.70890  Biso   1.000  H
  H86      1.0000 0.55120  0.47660  0.65040  Biso   1.000  H
  H87      1.0000 0.24100  0.76240  0.74090  Biso   1.000  H
  H88      1.0000 0.08170  0.76120  0.75970  Biso   1.000  H
  H89      1.0000 0.23670  0.86960  0.77240  Biso   1.000  H
  H90      1.0000 0.29010  0.54480  0.87430  Biso   1.000  H
  H91      1.0000 0.20140  0.67500  0.92370  Biso   1.000  H
  H92      1.0000 0.13790  0.86400  0.90340  Biso   1.000  H
  H93      1.0000 0.14810  0.90480  0.84890  Biso   1.000  H
  H94      1.0000 0.90590  0.75620  0.83370  Biso   1.000  H
  H95      1.0000 0.89610  0.71000  0.88730  Biso   1.000  H
  H96      1.0000 0.88360  0.88860  0.91640  Biso   1.000  H
  H97      1.0000 0.90350  0.94100  0.86340  Biso   1.000  H
  H98      1.0000 0.64320  0.73680  0.89380  Biso   1.000  H
  H99      1.0000 0.66270  0.79100  0.84130  Biso   1.000  H
  H100     1.0000 0.61350  0.99520  0.83160  Biso   1.000  H
  H101     1.0000 0.48300  0.08920  0.88420  Biso   1.000  H
  H102     1.0000 0.54160  0.84440  0.00590  Biso   1.000  H
  H103     1.0000 0.45820  0.73280  0.97220  Biso   1.000  H
  H104     1.0000 0.64010  0.79220  0.97390  Biso   1.000  H
  C1       1.0000 0.75670  0.83400  0.46920  Biso   1.000  C
  C2       1.0000 0.84670  0.75500  0.45960  Biso   1.000  C
  C3       1.0000 0.82040  0.65300  0.48550  Biso   1.000  C
  C4       1.0000 0.90920  0.58640  0.47680  Biso   1.000  C
  C5       1.0000 0.02570  0.62380  0.44340  Biso   1.000  C
  C6       1.0000 0.05570  0.72680  0.41640  Biso   1.000  C
  C7       1.0000 0.96310  0.79280  0.42480  Biso   1.000  C
  C8       1.0000 0.22550  0.57660  0.40420  Biso   1.000  C
  C9       1.0000 0.38050  0.61840  0.41610  Biso   1.000  C
  C10      1.0000 0.48620  0.61960  0.38150  Biso   1.000  C
  C11      1.0000 0.43970  0.58200  0.33490  Biso   1.000  C
  C12      1.0000 0.28530  0.54520  0.32270  Biso   1.000  C
  C13      1.0000 0.17860  0.54520  0.35790  Biso   1.000  C
  C14      1.0000 0.55390  0.56860  0.29880  Biso   1.000  C
  C15      1.0000 0.40560  0.21580  0.23270  Biso   1.000  C
  C16      1.0000 0.48410  0.27900  0.18760  Biso   1.000  C
  C17      1.0000 0.65500  0.39540  0.13750  Biso   1.000  C
  C18      1.0000 0.53480  0.32380  0.11000  Biso   1.000  C
  C19      1.0000 0.27270  0.16440  0.12960  Biso   1.000  C
  C20      1.0000 0.15420  0.21880  0.13300  Biso   1.000  C
  C21      1.0000 0.99280  0.13240  0.11760  Biso   1.000  C
  C22      1.0000 0.87390  0.18880  0.12460  Biso   1.000  C
  C23      1.0000 0.60940  0.02480  0.13620  Biso   1.000  C
  C24      1.0000 0.48570  0.97380  0.10700  Biso   1.000  C
  C25      1.0000 0.65690  0.11080  0.06490  Biso   1.000  C
  C26      1.0000 0.73910  0.19260  0.02470  Biso   1.000  C
  C27      1.0000 0.24330  0.16600  0.96920  Biso   1.000  C
  C28      1.0000 0.15330  0.24500  0.95960  Biso   1.000  C
  C29      1.0000 0.17960  0.34700  0.98550  Biso   1.000  C
  C30      1.0000 0.09080  0.41360  0.97680  Biso   1.000  C
  C31      1.0000 0.97430  0.37620  0.94340  Biso   1.000  C
  C32      1.0000 0.94430  0.27320  0.91640  Biso   1.000  C
  C33      1.0000 0.03690  0.20720  0.92480  Biso   1.000  C
  C34      1.0000 0.77450  0.42340  0.90420  Biso   1.000  C
  C35      1.0000 0.61950  0.38160  0.91610  Biso   1.000  C
  C36      1.0000 0.51380  0.38040  0.88150  Biso   1.000  C
  C37      1.0000 0.56030  0.41800  0.83490  Biso   1.000  C
  C38      1.0000 0.71470  0.45480  0.82270  Biso   1.000  C
  C39      1.0000 0.82140  0.45480  0.85790  Biso   1.000  C
  C40      1.0000 0.44610  0.43140  0.79880  Biso   1.000  C
  C41      1.0000 0.59440  0.78420  0.73270  Biso   1.000  C
  C42      1.0000 0.51590  0.72100  0.68760  Biso   1.000  C
  C43      1.0000 0.34500  0.60460  0.63750  Biso   1.000  C
  C44      1.0000 0.46520  0.67620  0.61000  Biso   1.000  C
  C45      1.0000 0.72730  0.83560  0.62960  Biso   1.000  C
  C46      1.0000 0.84580  0.78120  0.63300  Biso   1.000  C
  C47      1.0000 0.00720  0.86760  0.61760  Biso   1.000  C
  C48      1.0000 0.12610  0.81120  0.62460  Biso   1.000  C
  C49      1.0000 0.39060  0.97520  0.63620  Biso   1.000  C
  C50      1.0000 0.51430  0.02620  0.60700  Biso   1.000  C
  C51      1.0000 0.34310  0.88920  0.56490  Biso   1.000  C
  C52      1.0000 0.26090  0.80740  0.52470  Biso   1.000  C
  C53      1.0000 0.07730  0.83400  0.03080  Biso   1.000  C
  C54      1.0000 0.90830  0.75500  0.04040  Biso   1.000  C
  C55      1.0000 0.83260  0.65300  0.01450  Biso   1.000  C
  C56      1.0000 0.67720  0.58640  0.02320  Biso   1.000  C
  C57      1.0000 0.59810  0.62380  0.05660  Biso   1.000  C
  C58      1.0000 0.67110  0.72680  0.08360  Biso   1.000  C
  C59      1.0000 0.82970  0.79280  0.07520  Biso   1.000  C
  C60      1.0000 0.35110  0.57660  0.09580  Biso   1.000  C
  C61      1.0000 0.23790  0.61840  0.08390  Biso   1.000  C
  C62      1.0000 0.13340  0.61960  0.11850  Biso   1.000  C
  C63      1.0000 0.14230  0.58200  0.16510  Biso   1.000  C
  C64      1.0000 0.25990  0.54520  0.17730  Biso   1.000  C
  C65      1.0000 0.36660  0.54520  0.14210  Biso   1.000  C
  C66      1.0000 0.01470  0.56860  0.20120  Biso   1.000  C
  C67      1.0000 0.81020  0.21580  0.26730  Biso   1.000  C
  C68      1.0000 0.79490  0.27900  0.31240  Biso   1.000  C
  C69      1.0000 0.74040  0.39540  0.36250  Biso   1.000  C
  C70      1.0000 0.78900  0.32380  0.39000  Biso   1.000  C
  C71      1.0000 0.89170  0.16440  0.37040  Biso   1.000  C
  C72      1.0000 0.06460  0.21880  0.36700  Biso   1.000  C
  C73      1.0000 0.13960  0.13240  0.38240  Biso   1.000  C
  C74      1.0000 0.31490  0.18880  0.37540  Biso   1.000  C
  C75      1.0000 0.41540  0.02480  0.36380  Biso   1.000  C
  C76      1.0000 0.48810  0.97380  0.39300  Biso   1.000  C
  C77      1.0000 0.45390  0.11080  0.43510  Biso   1.000  C
  C78      1.0000 0.45350  0.19260  0.47530  Biso   1.000  C
  C79      1.0000 0.92270  0.16600  0.53080  Biso   1.000  C
  C80      1.0000 0.09170  0.24500  0.54040  Biso   1.000  C
  C81      1.0000 0.16740  0.34700  0.51450  Biso   1.000  C
  C82      1.0000 0.32280  0.41360  0.52320  Biso   1.000  C
  C83      1.0000 0.40190  0.37620  0.55660  Biso   1.000  C
  C84      1.0000 0.32890  0.27320  0.58360  Biso   1.000  C
  C85      1.0000 0.17030  0.20720  0.57520  Biso   1.000  C
  C86      1.0000 0.64890  0.42340  0.59580  Biso   1.000  C
  C87      1.0000 0.76210  0.38160  0.58390  Biso   1.000  C
  C88      1.0000 0.86660  0.38040  0.61850  Biso   1.000  C
  C89      1.0000 0.85770  0.41800  0.66510  Biso   1.000  C
  C90      1.0000 0.74010  0.45480  0.67730  Biso   1.000  C
  C91      1.0000 0.63340  0.45480  0.64210  Biso   1.000  C
  C92      1.0000 0.98530  0.43140  0.70120  Biso   1.000  C
  C93      1.0000 0.18980  0.78420  0.76730  Biso   1.000  C
  C94      1.0000 0.20510  0.72100  0.81240  Biso   1.000  C
  C95      1.0000 0.25960  0.60460  0.86250  Biso   1.000  C
  C96      1.0000 0.21100  0.67620  0.89000  Biso   1.000  C
  C97      1.0000 0.10830  0.83560  0.87040  Biso   1.000  C
  C98      1.0000 0.93540  0.78120  0.86700  Biso   1.000  C
  C99      1.0000 0.86040  0.86760  0.88240  Biso   1.000  C
  C100     1.0000 0.68510  0.81120  0.87540  Biso   1.000  C
  C101     1.0000 0.58460  0.97520  0.86380  Biso   1.000  C
  C102     1.0000 0.51190  0.02620  0.89300  Biso   1.000  C
  C103     1.0000 0.54610  0.88920  0.93510  Biso   1.000  C
  C104     1.0000 0.54650  0.80740  0.97530  Biso   1.000  C
  N1       1.0000 0.62370  0.36660  0.18570  Biso   1.000  N
  N2       1.0000 0.42660  0.24800  0.14220  Biso   1.000  N
  N3       1.0000 0.71880  0.11140  0.10960  Biso   1.000  N
  N4       1.0000 0.51470  0.02760  0.06264  Biso   1.000  N
  N5       1.0000 0.37630  0.63340  0.68570  Biso   1.000  N
  N6       1.0000 0.57340  0.75200  0.64220  Biso   1.000  N
  N7       1.0000 0.28120  0.88860  0.60960  Biso   1.000  N
  N8       1.0000 0.48530  0.97240  0.56264  Biso   1.000  N
  N9       1.0000 0.74290  0.36660  0.31430  Biso   1.000  N
  N10      1.0000 0.82140  0.24800  0.35780  Biso   1.000  N
  N11      1.0000 0.39260  0.11140  0.39040  Biso   1.000  N
  N12      1.0000 0.51290  0.02760  0.43736  Biso   1.000  N
  N13      1.0000 0.25710  0.63340  0.81430  Biso   1.000  N
  N14      1.0000 0.17860  0.75200  0.85780  Biso   1.000  N
  N15      1.0000 0.60740  0.88860  0.89040  Biso   1.000  N
  N16      1.0000 0.48710  0.97240  0.93736  Biso   1.000  N
  O1       1.0000 0.65630  0.80540  0.50280  Biso   1.000  O
  O2       1.0000 0.78630  0.92540  0.44470  Biso   1.000  O
  O3       1.0000 0.11850  0.55860  0.44188  Biso   1.000  O
  O4       1.0000 0.69860  0.61980  0.30800  Biso   1.000  O
  O5       1.0000 0.50220  0.50280  0.26190  Biso   1.000  O
  O6       1.0000 0.34370  0.19460  0.00280  Biso   1.000  O
  O7       1.0000 0.21370  0.07460  0.94470  Biso   1.000  O
  O8       1.0000 0.88150  0.44140  0.94188  Biso   1.000  O
  O9       1.0000 0.30140  0.38020  0.80800  Biso   1.000  O
  O10      1.0000 0.49780  0.49720  0.76190  Biso   1.000  O
  O11      1.0000 0.14910  0.80540  0.99720  Biso   1.000  O
  O12      1.0000 0.13910  0.92540  0.05530  Biso   1.000  O
  O13      1.0000 0.44010  0.55860  0.05812  Biso   1.000  O
  O14      1.0000 0.92120  0.61980  0.19200  Biso   1.000  O
  O15      1.0000 0.00060  0.50280  0.23810  Biso   1.000  O
  O16      1.0000 0.85090  0.19460  0.49720  Biso   1.000  O
  O17      1.0000 0.86090  0.07460  0.55530  Biso   1.000  O
  O18      1.0000 0.55990  0.44140  0.55812  Biso   1.000  O
  O19      1.0000 0.07880  0.38020  0.69200  Biso   1.000  O
  O20      1.0000 0.99940  0.49720  0.73810  Biso   1.000  O
