data_image0
_cell_length_a       11.419
_cell_length_b       12.67
_cell_length_c       14.752
_cell_angle_alpha    90
_cell_angle_beta     90
_cell_angle_gamma    90

_symmetry_space_group_name_H-M    P 1
_symmetry_int_tables_number       1

loop_
  _symmetry_equiv_pos_as_xyz
  'x, y, z'

loop_
  _atom_site_label
  _atom_site_occupancy
  _atom_site_fract_x
  _atom_site_fract_y
  _atom_site_fract_z
  _atom_site_thermal_displace_type
  _atom_site_B_iso_or_equiv
  _atom_site_type_symbol
  Zn1      1.0000 0.50000  0.50000  0.25000  Biso   1.000  Zn
  Zn2      1.0000 0.50000  0.50000  0.75000  Biso   1.000  Zn
  H1       1.0000 0.91080  0.65550  0.27480  Biso   1.000  H
  H2       1.0000 0.69800  0.77970  0.13610  Biso   1.000  H
  H3       1.0000 0.70970  0.65040  0.27640  Biso   1.000  H
  H4       1.0000 0.83950  0.90910  0.13550  Biso   1.000  H
  H5       1.0000 0.08920  0.34450  0.27480  Biso   1.000  H
  H6       1.0000 0.30200  0.22030  0.13610  Biso   1.000  H
  H7       1.0000 0.29030  0.34960  0.27640  Biso   1.000  H
  H8       1.0000 0.16050  0.09090  0.13550  Biso   1.000  H
  H9       1.0000 0.08920  0.65550  0.22520  Biso   1.000  H
  H10      1.0000 0.30200  0.77970  0.36390  Biso   1.000  H
  H11      1.0000 0.29030  0.65040  0.22360  Biso   1.000  H
  H12      1.0000 0.16050  0.90910  0.36450  Biso   1.000  H
  H13      1.0000 0.91080  0.34450  0.22520  Biso   1.000  H
  H14      1.0000 0.69800  0.22030  0.36390  Biso   1.000  H
  H15      1.0000 0.70970  0.34960  0.22360  Biso   1.000  H
  H16      1.0000 0.83950  0.09090  0.36450  Biso   1.000  H
  H17      1.0000 0.08920  0.34450  0.72520  Biso   1.000  H
  H18      1.0000 0.30200  0.22030  0.86390  Biso   1.000  H
  H19      1.0000 0.29030  0.34960  0.72360  Biso   1.000  H
  H20      1.0000 0.16050  0.09090  0.86450  Biso   1.000  H
  H21      1.0000 0.91080  0.65550  0.72520  Biso   1.000  H
  H22      1.0000 0.69800  0.77970  0.86390  Biso   1.000  H
  H23      1.0000 0.70970  0.65040  0.72360  Biso   1.000  H
  H24      1.0000 0.83950  0.90910  0.86450  Biso   1.000  H
  H25      1.0000 0.91080  0.34450  0.77480  Biso   1.000  H
  H26      1.0000 0.69800  0.22030  0.63610  Biso   1.000  H
  H27      1.0000 0.70970  0.34960  0.77640  Biso   1.000  H
  H28      1.0000 0.83950  0.09090  0.63550  Biso   1.000  H
  H29      1.0000 0.08920  0.65550  0.77480  Biso   1.000  H
  H30      1.0000 0.30200  0.77970  0.63610  Biso   1.000  H
  H31      1.0000 0.29030  0.65040  0.77640  Biso   1.000  H
  H32      1.0000 0.16050  0.90910  0.63550  Biso   1.000  H
  C1       1.0000 0.75080  0.58840  0.26510  Biso   1.000  C
  C2       1.0000 0.87190  0.59200  0.26500  Biso   1.000  C
  C3       1.0000 0.53820  0.65150  0.08041  Biso   1.000  C
  C4       1.0000 0.72430  0.80740  0.08140  Biso   1.000  C
  C5       1.0000 0.92060  0.09000  0.08040  Biso   1.000  C
  C6       1.0000 0.80740  0.88600  0.08100  Biso   1.000  C
  C7       1.0000 0.24920  0.41160  0.26510  Biso   1.000  C
  C8       1.0000 0.12810  0.40800  0.26500  Biso   1.000  C
  C9       1.0000 0.46180  0.34850  0.08041  Biso   1.000  C
  C10      1.0000 0.27570  0.19260  0.08140  Biso   1.000  C
  C11      1.0000 0.07940  0.91000  0.08040  Biso   1.000  C
  C12      1.0000 0.19260  0.11400  0.08100  Biso   1.000  C
  C13      1.0000 0.24920  0.58840  0.23490  Biso   1.000  C
  C14      1.0000 0.12810  0.59200  0.23500  Biso   1.000  C
  C15      1.0000 0.46180  0.65150  0.41959  Biso   1.000  C
  C16      1.0000 0.27570  0.80740  0.41860  Biso   1.000  C
  C17      1.0000 0.07940  0.09000  0.41960  Biso   1.000  C
  C18      1.0000 0.19260  0.88600  0.41900  Biso   1.000  C
  C19      1.0000 0.75080  0.41160  0.23490  Biso   1.000  C
  C20      1.0000 0.87190  0.40800  0.23500  Biso   1.000  C
  C21      1.0000 0.53820  0.34850  0.41959  Biso   1.000  C
  C22      1.0000 0.72430  0.19260  0.41860  Biso   1.000  C
  C23      1.0000 0.92060  0.91000  0.41960  Biso   1.000  C
  C24      1.0000 0.80740  0.11400  0.41900  Biso   1.000  C
  C25      1.0000 0.24920  0.41160  0.73490  Biso   1.000  C
  C26      1.0000 0.12810  0.40800  0.73500  Biso   1.000  C
  C27      1.0000 0.46180  0.34850  0.91959  Biso   1.000  C
  C28      1.0000 0.27570  0.19260  0.91860  Biso   1.000  C
  C29      1.0000 0.07940  0.91000  0.91960  Biso   1.000  C
  C30      1.0000 0.19260  0.11400  0.91900  Biso   1.000  C
  C31      1.0000 0.75080  0.58840  0.73490  Biso   1.000  C
  C32      1.0000 0.87190  0.59200  0.73500  Biso   1.000  C
  C33      1.0000 0.53820  0.65150  0.91959  Biso   1.000  C
  C34      1.0000 0.72430  0.80740  0.91860  Biso   1.000  C
  C35      1.0000 0.92060  0.09000  0.91960  Biso   1.000  C
  C36      1.0000 0.80740  0.88600  0.91900  Biso   1.000  C
  C37      1.0000 0.75080  0.41160  0.76510  Biso   1.000  C
  C38      1.0000 0.87190  0.40800  0.76500  Biso   1.000  C
  C39      1.0000 0.53820  0.34850  0.58041  Biso   1.000  C
  C40      1.0000 0.72430  0.19260  0.58140  Biso   1.000  C
  C41      1.0000 0.92060  0.91000  0.58040  Biso   1.000  C
  C42      1.0000 0.80740  0.11400  0.58100  Biso   1.000  C
  C43      1.0000 0.24920  0.58840  0.76510  Biso   1.000  C
  C44      1.0000 0.12810  0.59200  0.76500  Biso   1.000  C
  C45      1.0000 0.46180  0.65150  0.58041  Biso   1.000  C
  C46      1.0000 0.27570  0.80740  0.58140  Biso   1.000  C
  C47      1.0000 0.07940  0.09000  0.58040  Biso   1.000  C
  C48      1.0000 0.19260  0.88600  0.58100  Biso   1.000  C
  C49      1.0000 0.58500  0.69150  0.00000  Biso   1.000  C
  C50      1.0000 0.67830  0.76840  0.00000  Biso   1.000  C
  C51      1.0000 0.93200  0.02360  0.00000  Biso   1.000  C
  C52      1.0000 0.84290  0.93150  0.00000  Biso   1.000  C
  C53      1.0000 0.41500  0.30850  0.00000  Biso   1.000  C
  C54      1.0000 0.32170  0.23160  0.00000  Biso   1.000  C
  C55      1.0000 0.06800  0.97640  0.00000  Biso   1.000  C
  C56      1.0000 0.15710  0.06850  0.00000  Biso   1.000  C
  C57      1.0000 0.41500  0.69150  0.50000  Biso   1.000  C
  C58      1.0000 0.32170  0.76840  0.50000  Biso   1.000  C
  C59      1.0000 0.06800  0.02360  0.50000  Biso   1.000  C
  C60      1.0000 0.15710  0.93150  0.50000  Biso   1.000  C
  C61      1.0000 0.58500  0.30850  0.50000  Biso   1.000  C
  C62      1.0000 0.67830  0.23160  0.50000  Biso   1.000  C
  C63      1.0000 0.93200  0.97640  0.50000  Biso   1.000  C
  C64      1.0000 0.84290  0.06850  0.50000  Biso   1.000  C
  C65      1.0000 0.93470  0.50000  0.25000  Biso   1.000  C
  C66      1.0000 0.06530  0.50000  0.25000  Biso   1.000  C
  C67      1.0000 0.06530  0.50000  0.75000  Biso   1.000  C
  C68      1.0000 0.93470  0.50000  0.75000  Biso   1.000  C
  N1       1.0000 0.89900  0.13570  0.14480  Biso   1.000  N
  N2       1.0000 0.50128  0.61970  0.14748  Biso   1.000  N
  N3       1.0000 0.10100  0.86430  0.14480  Biso   1.000  N
  N4       1.0000 0.49872  0.38030  0.14748  Biso   1.000  N
  N5       1.0000 0.10100  0.13570  0.35520  Biso   1.000  N
  N6       1.0000 0.49872  0.61970  0.35252  Biso   1.000  N
  N7       1.0000 0.89900  0.86430  0.35520  Biso   1.000  N
  N8       1.0000 0.50128  0.38030  0.35252  Biso   1.000  N
  N9       1.0000 0.10100  0.86430  0.85520  Biso   1.000  N
  N10      1.0000 0.49872  0.38030  0.85252  Biso   1.000  N
  N11      1.0000 0.89900  0.13570  0.85520  Biso   1.000  N
  N12      1.0000 0.50128  0.61970  0.85252  Biso   1.000  N
  N13      1.0000 0.89900  0.86430  0.64480  Biso   1.000  N
  N14      1.0000 0.50128  0.38030  0.64748  Biso   1.000  N
  N15      1.0000 0.10100  0.13570  0.64480  Biso   1.000  N
  N16      1.0000 0.49872  0.61970  0.64748  Biso   1.000  N
  N17      1.0000 0.68970  0.50000  0.25000  Biso   1.000  N
  N18      1.0000 0.31030  0.50000  0.25000  Biso   1.000  N
  N19      1.0000 0.31030  0.50000  0.75000  Biso   1.000  N
  N20      1.0000 0.68970  0.50000  0.75000  Biso   1.000  N
