data_image0
_cell_length_a       11.4341
_cell_length_b       12.5791
_cell_length_c       14.7759
_cell_angle_alpha    90
_cell_angle_beta     90
_cell_angle_gamma    90

_symmetry_space_group_name_H-M    P 1
_symmetry_int_tables_number       1

loop_
  _symmetry_equiv_pos_as_xyz
  'x, y, z'

loop_
  _atom_site_label
  _atom_site_occupancy
  _atom_site_fract_x
  _atom_site_fract_y
  _atom_site_fract_z
  _atom_site_thermal_displace_type
  _atom_site_B_iso_or_equiv
  _atom_site_type_symbol
  Zn1      1.0000 0.50000  0.50000  0.25000  Biso   1.000  Zn
  Zn2      1.0000 0.50000  0.50000  0.75000  Biso   1.000  Zn
  H1       1.0000 0.69670  0.21790  0.13610  Biso   1.000  H
  H2       1.0000 0.82860  0.07910  0.13590  Biso   1.000  H
  H3       1.0000 0.91060  0.34440  0.28040  Biso   1.000  H
  H4       1.0000 0.70930  0.34960  0.28080  Biso   1.000  H
  H5       1.0000 0.30330  0.78210  0.13610  Biso   1.000  H
  H6       1.0000 0.17140  0.92090  0.13590  Biso   1.000  H
  H7       1.0000 0.08940  0.65560  0.28040  Biso   1.000  H
  H8       1.0000 0.29070  0.65040  0.28080  Biso   1.000  H
  H9       1.0000 0.30330  0.21790  0.36390  Biso   1.000  H
  H10      1.0000 0.17140  0.07910  0.36410  Biso   1.000  H
  H11      1.0000 0.08940  0.34440  0.21960  Biso   1.000  H
  H12      1.0000 0.29070  0.34960  0.21920  Biso   1.000  H
  H13      1.0000 0.69670  0.78210  0.36390  Biso   1.000  H
  H14      1.0000 0.82860  0.92090  0.36410  Biso   1.000  H
  H15      1.0000 0.91060  0.65560  0.21960  Biso   1.000  H
  H16      1.0000 0.70930  0.65040  0.21920  Biso   1.000  H
  H17      1.0000 0.30330  0.78210  0.86390  Biso   1.000  H
  H18      1.0000 0.17140  0.92090  0.86410  Biso   1.000  H
  H19      1.0000 0.08940  0.65560  0.71960  Biso   1.000  H
  H20      1.0000 0.29070  0.65040  0.71920  Biso   1.000  H
  H21      1.0000 0.69670  0.21790  0.86390  Biso   1.000  H
  H22      1.0000 0.82860  0.07910  0.86410  Biso   1.000  H
  H23      1.0000 0.91060  0.34440  0.71960  Biso   1.000  H
  H24      1.0000 0.70930  0.34960  0.71920  Biso   1.000  H
  H25      1.0000 0.69670  0.78210  0.63610  Biso   1.000  H
  H26      1.0000 0.82860  0.92090  0.63590  Biso   1.000  H
  H27      1.0000 0.91060  0.65560  0.78040  Biso   1.000  H
  H28      1.0000 0.70930  0.65040  0.78080  Biso   1.000  H
  H29      1.0000 0.30330  0.21790  0.63610  Biso   1.000  H
  H30      1.0000 0.17140  0.07910  0.63590  Biso   1.000  H
  H31      1.0000 0.08940  0.34440  0.78040  Biso   1.000  H
  H32      1.0000 0.29070  0.34960  0.78080  Biso   1.000  H
  C1       1.0000 0.87186  0.40778  0.26813  Biso   1.000  C
  C2       1.0000 0.75022  0.41168  0.26799  Biso   1.000  C
  C3       1.0000 0.53842  0.34899  0.08035  Biso   1.000  C
  C4       1.0000 0.72070  0.18890  0.08133  Biso   1.000  C
  C5       1.0000 0.80140  0.10660  0.08143  Biso   1.000  C
  C6       1.0000 0.92140  0.90930  0.08100  Biso   1.000  C
  C7       1.0000 0.12814  0.59222  0.26813  Biso   1.000  C
  C8       1.0000 0.24978  0.58832  0.26799  Biso   1.000  C
  C9       1.0000 0.46158  0.65101  0.08035  Biso   1.000  C
  C10      1.0000 0.27930  0.81110  0.08133  Biso   1.000  C
  C11      1.0000 0.19860  0.89340  0.08143  Biso   1.000  C
  C12      1.0000 0.07860  0.09070  0.08100  Biso   1.000  C
  C13      1.0000 0.12814  0.40778  0.23187  Biso   1.000  C
  C14      1.0000 0.24978  0.41168  0.23201  Biso   1.000  C
  C15      1.0000 0.46158  0.34899  0.41965  Biso   1.000  C
  C16      1.0000 0.27930  0.18890  0.41867  Biso   1.000  C
  C17      1.0000 0.19860  0.10660  0.41857  Biso   1.000  C
  C18      1.0000 0.07860  0.90930  0.41900  Biso   1.000  C
  C19      1.0000 0.87186  0.59222  0.23187  Biso   1.000  C
  C20      1.0000 0.75022  0.58832  0.23201  Biso   1.000  C
  C21      1.0000 0.53842  0.65101  0.41965  Biso   1.000  C
  C22      1.0000 0.72070  0.81110  0.41867  Biso   1.000  C
  C23      1.0000 0.80140  0.89340  0.41857  Biso   1.000  C
  C24      1.0000 0.92140  0.09070  0.41900  Biso   1.000  C
  C25      1.0000 0.12814  0.59222  0.73187  Biso   1.000  C
  C26      1.0000 0.24978  0.58832  0.73201  Biso   1.000  C
  C27      1.0000 0.46158  0.65101  0.91965  Biso   1.000  C
  C28      1.0000 0.27930  0.81110  0.91867  Biso   1.000  C
  C29      1.0000 0.19860  0.89340  0.91857  Biso   1.000  C
  C30      1.0000 0.07860  0.09070  0.91900  Biso   1.000  C
  C31      1.0000 0.87186  0.40778  0.73187  Biso   1.000  C
  C32      1.0000 0.75022  0.41168  0.73201  Biso   1.000  C
  C33      1.0000 0.53842  0.34899  0.91965  Biso   1.000  C
  C34      1.0000 0.72070  0.18890  0.91867  Biso   1.000  C
  C35      1.0000 0.80140  0.10660  0.91857  Biso   1.000  C
  C36      1.0000 0.92140  0.90930  0.91900  Biso   1.000  C
  C37      1.0000 0.87186  0.59222  0.76813  Biso   1.000  C
  C38      1.0000 0.75022  0.58832  0.76799  Biso   1.000  C
  C39      1.0000 0.53842  0.65101  0.58035  Biso   1.000  C
  C40      1.0000 0.72070  0.81110  0.58133  Biso   1.000  C
  C41      1.0000 0.80140  0.89340  0.58143  Biso   1.000  C
  C42      1.0000 0.92140  0.09070  0.58100  Biso   1.000  C
  C43      1.0000 0.12814  0.40778  0.76813  Biso   1.000  C
  C44      1.0000 0.24978  0.41168  0.76799  Biso   1.000  C
  C45      1.0000 0.46158  0.34899  0.58035  Biso   1.000  C
  C46      1.0000 0.27930  0.18890  0.58133  Biso   1.000  C
  C47      1.0000 0.19860  0.10660  0.58143  Biso   1.000  C
  C48      1.0000 0.07860  0.90930  0.58100  Biso   1.000  C
  C49      1.0000 0.93510  0.50000  0.25000  Biso   1.000  C
  C50      1.0000 0.06490  0.50000  0.25000  Biso   1.000  C
  C51      1.0000 0.06490  0.50000  0.75000  Biso   1.000  C
  C52      1.0000 0.93510  0.50000  0.75000  Biso   1.000  C
  C53      1.0000 0.58520  0.31060  0.00000  Biso   1.000  C
  C54      1.0000 0.67640  0.23000  0.00000  Biso   1.000  C
  C55      1.0000 0.84170  0.06480  0.00000  Biso   1.000  C
  C56      1.0000 0.93400  0.97640  0.00000  Biso   1.000  C
  C57      1.0000 0.41480  0.68940  0.00000  Biso   1.000  C
  C58      1.0000 0.32360  0.77000  0.00000  Biso   1.000  C
  C59      1.0000 0.15830  0.93520  0.00000  Biso   1.000  C
  C60      1.0000 0.06600  0.02360  0.00000  Biso   1.000  C
  C61      1.0000 0.41480  0.31060  0.50000  Biso   1.000  C
  C62      1.0000 0.32360  0.23000  0.50000  Biso   1.000  C
  C63      1.0000 0.15830  0.06480  0.50000  Biso   1.000  C
  C64      1.0000 0.06600  0.97640  0.50000  Biso   1.000  C
  C65      1.0000 0.58520  0.68940  0.50000  Biso   1.000  C
  C66      1.0000 0.67640  0.77000  0.50000  Biso   1.000  C
  C67      1.0000 0.84170  0.93520  0.50000  Biso   1.000  C
  C68      1.0000 0.93400  0.02360  0.50000  Biso   1.000  C
  N1       1.0000 0.50101  0.37981  0.14765  Biso   1.000  N
  N2       1.0000 0.91080  0.85920  0.14470  Biso   1.000  N
  N3       1.0000 0.49899  0.62019  0.14765  Biso   1.000  N
  N4       1.0000 0.08920  0.14080  0.14470  Biso   1.000  N
  N5       1.0000 0.49899  0.37981  0.35235  Biso   1.000  N
  N6       1.0000 0.08920  0.85920  0.35530  Biso   1.000  N
  N7       1.0000 0.50101  0.62019  0.35235  Biso   1.000  N
  N8       1.0000 0.91080  0.14080  0.35530  Biso   1.000  N
  N9       1.0000 0.49899  0.62019  0.85235  Biso   1.000  N
  N10      1.0000 0.08920  0.14080  0.85530  Biso   1.000  N
  N11      1.0000 0.50101  0.37981  0.85235  Biso   1.000  N
  N12      1.0000 0.91080  0.85920  0.85530  Biso   1.000  N
  N13      1.0000 0.50101  0.62019  0.64765  Biso   1.000  N
  N14      1.0000 0.91080  0.14080  0.64470  Biso   1.000  N
  N15      1.0000 0.49899  0.37981  0.64765  Biso   1.000  N
  N16      1.0000 0.08920  0.85920  0.64470  Biso   1.000  N
  N17      1.0000 0.68970  0.50000  0.25000  Biso   1.000  N
  N18      1.0000 0.31030  0.50000  0.25000  Biso   1.000  N
  N19      1.0000 0.31030  0.50000  0.75000  Biso   1.000  N
  N20      1.0000 0.68970  0.50000  0.75000  Biso   1.000  N
