data_image0
_cell_length_a       18.8235
_cell_length_b       18.8235
_cell_length_c       18.8235
_cell_angle_alpha    90
_cell_angle_beta     90
_cell_angle_gamma    90

_symmetry_space_group_name_H-M    P 1
_symmetry_int_tables_number       1

loop_
  _symmetry_equiv_pos_as_xyz
  'x, y, z'

loop_
  _atom_site_label
  _atom_site_occupancy
  _atom_site_fract_x
  _atom_site_fract_y
  _atom_site_fract_z
  _atom_site_thermal_displace_type
  _atom_site_B_iso_or_equiv
  _atom_site_type_symbol
  Fe1      1.0000 0.14071  0.00000  0.50000  Biso   1.000  Fe
  Fe2      1.0000 0.85929  0.00000  0.50000  Biso   1.000  Fe
  Fe3      1.0000 0.50000  0.14071  0.00000  Biso   1.000  Fe
  Fe4      1.0000 0.50000  0.85929  0.00000  Biso   1.000  Fe
  Fe5      1.0000 0.00000  0.50000  0.14071  Biso   1.000  Fe
  Fe6      1.0000 0.00000  0.50000  0.85929  Biso   1.000  Fe
  Fe7      1.0000 0.00000  0.14071  0.50000  Biso   1.000  Fe
  Fe8      1.0000 0.00000  0.85929  0.50000  Biso   1.000  Fe
  Fe9      1.0000 0.14071  0.50000  0.00000  Biso   1.000  Fe
  Fe10     1.0000 0.85929  0.50000  0.00000  Biso   1.000  Fe
  Fe11     1.0000 0.50000  0.00000  0.85929  Biso   1.000  Fe
  Fe12     1.0000 0.50000  0.00000  0.14071  Biso   1.000  Fe
  H1       1.0000 0.10810  0.26070  0.73930  Biso   1.000  H
  H2       1.0000 0.89190  0.73930  0.73930  Biso   1.000  H
  H3       1.0000 0.89190  0.26070  0.26070  Biso   1.000  H
  H4       1.0000 0.10810  0.73930  0.26070  Biso   1.000  H
  H5       1.0000 0.73930  0.10810  0.26070  Biso   1.000  H
  H6       1.0000 0.73930  0.89190  0.73930  Biso   1.000  H
  H7       1.0000 0.26070  0.89190  0.26070  Biso   1.000  H
  H8       1.0000 0.26070  0.10810  0.73930  Biso   1.000  H
  H9       1.0000 0.26070  0.73930  0.10810  Biso   1.000  H
  H10      1.0000 0.73930  0.73930  0.89190  Biso   1.000  H
  H11      1.0000 0.26070  0.26070  0.89190  Biso   1.000  H
  H12      1.0000 0.73930  0.26070  0.10810  Biso   1.000  H
  H13      1.0000 0.26070  0.10810  0.26070  Biso   1.000  H
  H14      1.0000 0.73930  0.89190  0.26070  Biso   1.000  H
  H15      1.0000 0.26070  0.89190  0.73930  Biso   1.000  H
  H16      1.0000 0.73930  0.10810  0.73930  Biso   1.000  H
  H17      1.0000 0.10810  0.73930  0.73930  Biso   1.000  H
  H18      1.0000 0.89190  0.73930  0.26070  Biso   1.000  H
  H19      1.0000 0.89190  0.26070  0.73930  Biso   1.000  H
  H20      1.0000 0.10810  0.26070  0.26070  Biso   1.000  H
  H21      1.0000 0.73930  0.26070  0.89190  Biso   1.000  H
  H22      1.0000 0.73930  0.73930  0.10810  Biso   1.000  H
  H23      1.0000 0.26070  0.26070  0.10810  Biso   1.000  H
  H24      1.0000 0.26070  0.73930  0.89190  Biso   1.000  H
  C1       1.0000 0.14956  0.24031  0.75969  Biso   1.000  C
  C2       1.0000 0.85044  0.75969  0.75969  Biso   1.000  C
  C3       1.0000 0.85044  0.24031  0.24031  Biso   1.000  C
  C4       1.0000 0.14956  0.75969  0.24031  Biso   1.000  C
  C5       1.0000 0.75969  0.14956  0.24031  Biso   1.000  C
  C6       1.0000 0.75969  0.85044  0.75969  Biso   1.000  C
  C7       1.0000 0.24031  0.85044  0.24031  Biso   1.000  C
  C8       1.0000 0.24031  0.14956  0.75969  Biso   1.000  C
  C9       1.0000 0.24031  0.75969  0.14956  Biso   1.000  C
  C10      1.0000 0.75969  0.75969  0.85044  Biso   1.000  C
  C11      1.0000 0.24031  0.24031  0.85044  Biso   1.000  C
  C12      1.0000 0.75969  0.24031  0.14956  Biso   1.000  C
  C13      1.0000 0.24031  0.14956  0.24031  Biso   1.000  C
  C14      1.0000 0.75969  0.85044  0.24031  Biso   1.000  C
  C15      1.0000 0.24031  0.85044  0.75969  Biso   1.000  C
  C16      1.0000 0.75969  0.14956  0.75969  Biso   1.000  C
  C17      1.0000 0.14956  0.75969  0.75969  Biso   1.000  C
  C18      1.0000 0.85044  0.75969  0.24031  Biso   1.000  C
  C19      1.0000 0.85044  0.24031  0.75969  Biso   1.000  C
  C20      1.0000 0.14956  0.24031  0.24031  Biso   1.000  C
  C21      1.0000 0.75969  0.24031  0.85044  Biso   1.000  C
  C22      1.0000 0.75969  0.75969  0.14956  Biso   1.000  C
  C23      1.0000 0.24031  0.24031  0.14956  Biso   1.000  C
  C24      1.0000 0.24031  0.75969  0.85044  Biso   1.000  C
  C25      1.0000 0.14881  0.14881  0.66572  Biso   1.000  C
  C26      1.0000 0.18003  0.18003  0.72942  Biso   1.000  C
  C27      1.0000 0.85119  0.85119  0.66572  Biso   1.000  C
  C28      1.0000 0.81997  0.81997  0.72942  Biso   1.000  C
  C29      1.0000 0.85119  0.14881  0.33428  Biso   1.000  C
  C30      1.0000 0.81997  0.18003  0.27058  Biso   1.000  C
  C31      1.0000 0.14881  0.85119  0.33428  Biso   1.000  C
  C32      1.0000 0.18003  0.81997  0.27058  Biso   1.000  C
  C33      1.0000 0.66572  0.14881  0.14881  Biso   1.000  C
  C34      1.0000 0.72942  0.18003  0.18003  Biso   1.000  C
  C35      1.0000 0.66572  0.85119  0.85119  Biso   1.000  C
  C36      1.0000 0.72942  0.81997  0.81997  Biso   1.000  C
  C37      1.0000 0.33428  0.85119  0.14881  Biso   1.000  C
  C38      1.0000 0.27058  0.81997  0.18003  Biso   1.000  C
  C39      1.0000 0.33428  0.14881  0.85119  Biso   1.000  C
  C40      1.0000 0.27058  0.18003  0.81997  Biso   1.000  C
  C41      1.0000 0.14881  0.66572  0.14881  Biso   1.000  C
  C42      1.0000 0.18003  0.72942  0.18003  Biso   1.000  C
  C43      1.0000 0.85119  0.66572  0.85119  Biso   1.000  C
  C44      1.0000 0.81997  0.72942  0.81997  Biso   1.000  C
  C45      1.0000 0.14881  0.33428  0.85119  Biso   1.000  C
  C46      1.0000 0.18003  0.27058  0.81997  Biso   1.000  C
  C47      1.0000 0.85119  0.33428  0.14881  Biso   1.000  C
  C48      1.0000 0.81997  0.27058  0.18003  Biso   1.000  C
  C49      1.0000 0.14881  0.14881  0.33428  Biso   1.000  C
  C50      1.0000 0.18003  0.18003  0.27058  Biso   1.000  C
  C51      1.0000 0.85119  0.85119  0.33428  Biso   1.000  C
  C52      1.0000 0.81997  0.81997  0.27058  Biso   1.000  C
  C53      1.0000 0.14881  0.85119  0.66572  Biso   1.000  C
  C54      1.0000 0.18003  0.81997  0.72942  Biso   1.000  C
  C55      1.0000 0.85119  0.14881  0.66572  Biso   1.000  C
  C56      1.0000 0.81997  0.18003  0.72942  Biso   1.000  C
  C57      1.0000 0.14881  0.66572  0.85119  Biso   1.000  C
  C58      1.0000 0.18003  0.72942  0.81997  Biso   1.000  C
  C59      1.0000 0.85119  0.66572  0.14881  Biso   1.000  C
  C60      1.0000 0.81997  0.72942  0.18003  Biso   1.000  C
  C61      1.0000 0.85119  0.33428  0.85119  Biso   1.000  C
  C62      1.0000 0.81997  0.27058  0.81997  Biso   1.000  C
  C63      1.0000 0.14881  0.33428  0.14881  Biso   1.000  C
  C64      1.0000 0.18003  0.27058  0.18003  Biso   1.000  C
  C65      1.0000 0.66572  0.14881  0.85119  Biso   1.000  C
  C66      1.0000 0.72942  0.18003  0.81997  Biso   1.000  C
  C67      1.0000 0.66572  0.85119  0.14881  Biso   1.000  C
  C68      1.0000 0.72942  0.81997  0.18003  Biso   1.000  C
  C69      1.0000 0.33428  0.14881  0.14881  Biso   1.000  C
  C70      1.0000 0.27058  0.18003  0.18003  Biso   1.000  C
  C71      1.0000 0.33428  0.85119  0.85119  Biso   1.000  C
  C72      1.0000 0.27058  0.81997  0.81997  Biso   1.000  C
  N1       1.0000 0.13083  0.08129  0.57831  Biso   1.000  N
  N2       1.0000 0.17458  0.09125  0.63333  Biso   1.000  N
  N3       1.0000 0.86917  0.91871  0.57831  Biso   1.000  N
  N4       1.0000 0.82542  0.90875  0.63333  Biso   1.000  N
  N5       1.0000 0.86917  0.08129  0.42169  Biso   1.000  N
  N6       1.0000 0.82542  0.09125  0.36667  Biso   1.000  N
  N7       1.0000 0.13083  0.91871  0.42169  Biso   1.000  N
  N8       1.0000 0.17458  0.90875  0.36667  Biso   1.000  N
  N9       1.0000 0.57831  0.13083  0.08129  Biso   1.000  N
  N10      1.0000 0.63333  0.17458  0.09125  Biso   1.000  N
  N11      1.0000 0.57831  0.86917  0.91871  Biso   1.000  N
  N12      1.0000 0.63333  0.82542  0.90875  Biso   1.000  N
  N13      1.0000 0.42169  0.86917  0.08129  Biso   1.000  N
  N14      1.0000 0.36667  0.82542  0.09125  Biso   1.000  N
  N15      1.0000 0.42169  0.13083  0.91871  Biso   1.000  N
  N16      1.0000 0.36667  0.17458  0.90875  Biso   1.000  N
  N17      1.0000 0.08129  0.57831  0.13083  Biso   1.000  N
  N18      1.0000 0.09125  0.63333  0.17458  Biso   1.000  N
  N19      1.0000 0.91871  0.57831  0.86917  Biso   1.000  N
  N20      1.0000 0.90875  0.63333  0.82542  Biso   1.000  N
  N21      1.0000 0.08129  0.42169  0.86917  Biso   1.000  N
  N22      1.0000 0.09125  0.36667  0.82542  Biso   1.000  N
  N23      1.0000 0.91871  0.42169  0.13083  Biso   1.000  N
  N24      1.0000 0.90875  0.36667  0.17458  Biso   1.000  N
  N25      1.0000 0.08129  0.13083  0.42169  Biso   1.000  N
  N26      1.0000 0.09125  0.17458  0.36667  Biso   1.000  N
  N27      1.0000 0.91871  0.86917  0.42169  Biso   1.000  N
  N28      1.0000 0.90875  0.82542  0.36667  Biso   1.000  N
  N29      1.0000 0.08129  0.86917  0.57831  Biso   1.000  N
  N30      1.0000 0.09125  0.82542  0.63333  Biso   1.000  N
  N31      1.0000 0.91871  0.13083  0.57831  Biso   1.000  N
  N32      1.0000 0.90875  0.17458  0.63333  Biso   1.000  N
  N33      1.0000 0.13083  0.57831  0.91871  Biso   1.000  N
  N34      1.0000 0.17458  0.63333  0.90875  Biso   1.000  N
  N35      1.0000 0.86917  0.57831  0.08129  Biso   1.000  N
  N36      1.0000 0.82542  0.63333  0.09125  Biso   1.000  N
  N37      1.0000 0.86917  0.42169  0.91871  Biso   1.000  N
  N38      1.0000 0.82542  0.36667  0.90875  Biso   1.000  N
  N39      1.0000 0.13083  0.42169  0.08129  Biso   1.000  N
  N40      1.0000 0.17458  0.36667  0.09125  Biso   1.000  N
  N41      1.0000 0.57831  0.08129  0.86917  Biso   1.000  N
  N42      1.0000 0.63333  0.09125  0.82542  Biso   1.000  N
  N43      1.0000 0.57831  0.91871  0.13083  Biso   1.000  N
  N44      1.0000 0.63333  0.90875  0.17458  Biso   1.000  N
  N45      1.0000 0.42169  0.08129  0.13083  Biso   1.000  N
  N46      1.0000 0.36667  0.09125  0.17458  Biso   1.000  N
  N47      1.0000 0.42169  0.91871  0.86917  Biso   1.000  N
  N48      1.0000 0.36667  0.90875  0.82542  Biso   1.000  N
  N49      1.0000 0.86917  0.91871  0.42169  Biso   1.000  N
  N50      1.0000 0.82542  0.90875  0.36667  Biso   1.000  N
  N51      1.0000 0.13083  0.08129  0.42169  Biso   1.000  N
  N52      1.0000 0.17458  0.09125  0.36667  Biso   1.000  N
  N53      1.0000 0.13083  0.91871  0.57831  Biso   1.000  N
  N54      1.0000 0.17458  0.90875  0.63333  Biso   1.000  N
  N55      1.0000 0.86917  0.08129  0.57831  Biso   1.000  N
  N56      1.0000 0.82542  0.09125  0.63333  Biso   1.000  N
  N57      1.0000 0.42169  0.86917  0.91871  Biso   1.000  N
  N58      1.0000 0.36667  0.82542  0.90875  Biso   1.000  N
  N59      1.0000 0.42169  0.13083  0.08129  Biso   1.000  N
  N60      1.0000 0.36667  0.17458  0.09125  Biso   1.000  N
  N61      1.0000 0.57831  0.13083  0.91871  Biso   1.000  N
  N62      1.0000 0.63333  0.17458  0.90875  Biso   1.000  N
  N63      1.0000 0.57831  0.86917  0.08129  Biso   1.000  N
  N64      1.0000 0.63333  0.82542  0.09125  Biso   1.000  N
  N65      1.0000 0.91871  0.42169  0.86917  Biso   1.000  N
  N66      1.0000 0.90875  0.36667  0.82542  Biso   1.000  N
  N67      1.0000 0.08129  0.42169  0.13083  Biso   1.000  N
  N68      1.0000 0.09125  0.36667  0.17458  Biso   1.000  N
  N69      1.0000 0.91871  0.57831  0.13083  Biso   1.000  N
  N70      1.0000 0.90875  0.63333  0.17458  Biso   1.000  N
  N71      1.0000 0.08129  0.57831  0.86917  Biso   1.000  N
  N72      1.0000 0.09125  0.63333  0.82542  Biso   1.000  N
  N73      1.0000 0.91871  0.86917  0.57831  Biso   1.000  N
  N74      1.0000 0.90875  0.82542  0.63333  Biso   1.000  N
  N75      1.0000 0.08129  0.13083  0.57831  Biso   1.000  N
  N76      1.0000 0.09125  0.17458  0.63333  Biso   1.000  N
  N77      1.0000 0.91871  0.13083  0.42169  Biso   1.000  N
  N78      1.0000 0.90875  0.17458  0.36667  Biso   1.000  N
  N79      1.0000 0.08129  0.86917  0.42169  Biso   1.000  N
  N80      1.0000 0.09125  0.82542  0.36667  Biso   1.000  N
  N81      1.0000 0.86917  0.42169  0.08129  Biso   1.000  N
  N82      1.0000 0.82542  0.36667  0.09125  Biso   1.000  N
  N83      1.0000 0.13083  0.42169  0.91871  Biso   1.000  N
  N84      1.0000 0.17458  0.36667  0.90875  Biso   1.000  N
  N85      1.0000 0.13083  0.57831  0.08129  Biso   1.000  N
  N86      1.0000 0.17458  0.63333  0.09125  Biso   1.000  N
  N87      1.0000 0.86917  0.57831  0.91871  Biso   1.000  N
  N88      1.0000 0.82542  0.63333  0.90875  Biso   1.000  N
  N89      1.0000 0.42169  0.91871  0.13083  Biso   1.000  N
  N90      1.0000 0.36667  0.90875  0.17458  Biso   1.000  N
  N91      1.0000 0.42169  0.08129  0.86917  Biso   1.000  N
  N92      1.0000 0.36667  0.09125  0.82542  Biso   1.000  N
  N93      1.0000 0.57831  0.91871  0.86917  Biso   1.000  N
  N94      1.0000 0.63333  0.90875  0.82542  Biso   1.000  N
  N95      1.0000 0.57831  0.08129  0.13083  Biso   1.000  N
  N96      1.0000 0.63333  0.09125  0.17458  Biso   1.000  N
  O1       1.0000 0.24980  0.00000  0.50000  Biso   1.000  O
  O2       1.0000 0.75020  0.00000  0.50000  Biso   1.000  O
  O3       1.0000 0.50000  0.24980  0.00000  Biso   1.000  O
  O4       1.0000 0.50000  0.75020  0.00000  Biso   1.000  O
  O5       1.0000 0.00000  0.50000  0.24980  Biso   1.000  O
  O6       1.0000 0.00000  0.50000  0.75020  Biso   1.000  O
  O7       1.0000 0.00000  0.24980  0.50000  Biso   1.000  O
  O8       1.0000 0.00000  0.75020  0.50000  Biso   1.000  O
  O9       1.0000 0.24980  0.50000  0.00000  Biso   1.000  O
  O10      1.0000 0.75020  0.50000  0.00000  Biso   1.000  O
  O11      1.0000 0.50000  0.00000  0.75020  Biso   1.000  O
  O12      1.0000 0.50000  0.00000  0.24980  Biso   1.000  O
