data_image0
_cell_length_a       18.853
_cell_length_b       18.853
_cell_length_c       20.639
_cell_angle_alpha    90
_cell_angle_beta     90
_cell_angle_gamma    90

_symmetry_space_group_name_H-M    "P 1"
_symmetry_int_tables_number       1

loop_
  _symmetry_equiv_pos_as_xyz
  'x, y, z'

loop_
  _atom_site_label
  _atom_site_occupancy
  _atom_site_fract_x
  _atom_site_fract_y
  _atom_site_fract_z
  _atom_site_thermal_displace_type
  _atom_site_B_iso_or_equiv
  _atom_site_type_symbol
  Cu1      1.0000 0.71849  0.07189  0.64776  Biso   1.000  Cu
  Cu2      1.0000 0.63781  0.19834  0.73151  Biso   1.000  Cu
  Cu3      1.0000 0.56622  0.14625  0.59561  Biso   1.000  Cu
  O1       1.0000 0.62660  0.11750  0.67050  Biso   1.000  O
  H1       1.0000 0.59930  0.08150  0.69400  Biso   1.000  H
  N1       1.0000 0.74950  0.09500  0.73370  Biso   1.000  N
  N2       1.0000 0.72000  0.14760  0.76660  Biso   1.000  N
  C1       1.0000 0.74900  0.15320  0.82570  Biso   1.000  C
  H2       1.0000 0.73760  0.18760  0.85620  Biso   1.000  H
  C2       1.0000 0.79880  0.09960  0.83440  Biso   1.000  C
  H3       1.0000 0.82640  0.09010  0.87080  Biso   1.000  H
  C3       1.0000 0.79750  0.06590  0.77900  Biso   1.000  C
  H4       1.0000 0.82550  0.02640  0.77030  Biso   1.000  H
  N3       1.0000 0.54190  0.22900  0.71110  Biso   1.000  N
  N4       1.0000 0.50780  0.19990  0.65900  Biso   1.000  N
  C4       1.0000 0.44510  0.22300  0.65860  Biso   1.000  C
  H5       1.0000 0.41320  0.21420  0.62520  Biso   1.000  H
  C5       1.0000 0.42840  0.26310  0.71340  Biso   1.000  C
  H6       1.0000 0.38550  0.28310  0.72610  Biso   1.000  H
  C6       1.0000 0.49160  0.26470  0.74250  Biso   1.000  C
  H7       1.0000 0.49980  0.28850  0.78120  Biso   1.000  H
  N5       1.0000 0.62790  0.08990  0.53830  Biso   1.000  N
  N6       1.0000 0.68540  0.06100  0.55870  Biso   1.000  N
  C7       1.0000 0.71440  0.02200  0.51030  Biso   1.000  C
  H8       1.0000 0.75520  0.99450  0.51360  Biso   1.000  H
  C8       1.0000 0.67420  0.02950  0.45680  Biso   1.000  C
  H9       1.0000 0.68140  0.00880  0.41650  Biso   1.000  H
  C9       1.0000 0.61810  0.07630  0.47560  Biso   1.000  C
  H10      1.0000 0.58210  0.09370  0.44930  Biso   1.000  H
  N7       1.0000 0.66490  0.28230  0.78860  Biso   1.000  N
  C10      1.0000 0.72710  0.31840  0.77400  Biso   1.000  C
  H11      1.0000 0.74910  0.31150  0.73410  Biso   1.000  H
  C11      1.0000 0.75660  0.36470  0.81890  Biso   1.000  C
  H12      1.0000 0.79830  0.38890  0.80900  Biso   1.000  H
  C12      1.0000 0.72390  0.37500  0.87850  Biso   1.000  C
  C13      1.0000 0.66160  0.33890  0.89320  Biso   1.000  C
  H13      1.0000 0.63970  0.34580  0.93300  Biso   1.000  H
  C14      1.0000 0.63210  0.29260  0.84820  Biso   1.000  C
  H14      1.0000 0.59050  0.26840  0.85810  Biso   1.000  H
  C15      1.0000 0.75840  0.41760  0.92910  Biso   1.000  C
  C16      1.0000 0.71590  0.46450  0.96370  Biso   1.000  C
  H15      1.0000 0.66750  0.46690  0.95510  Biso   1.000  H
  C17      1.0000 0.74560  0.50760  0.01110  Biso   1.000  C
  H16      1.0000 0.71710  0.53890  0.03420  Biso   1.000  H
  N8       1.0000 0.81780  0.50390  0.02390  Biso   1.000  N
  C18      1.0000 0.86040  0.45710  0.98930  Biso   1.000  C
  H17      1.0000 0.90880  0.45470  0.99790  Biso   1.000  H
  C19      1.0000 0.83070  0.41400  0.94200  Biso   1.000  C
  H18      1.0000 0.85920  0.38270  0.91880  Biso   1.000  H
  N9       1.0000 0.81680  0.03940  0.62670  Biso   1.000  N
  C20      1.0000 0.86460  0.09220  0.60940  Biso   1.000  C
  H19      1.0000 0.84840  0.13760  0.59990  Biso   1.000  H
  C21      1.0000 0.93670  0.07710  0.60620  Biso   1.000  C
  H20      1.0000 0.96870  0.11240  0.59460  Biso   1.000  H
  C22      1.0000 0.96090  0.00920  0.62030  Biso   1.000  C
  C23      1.0000 0.91310  0.95640  0.63760  Biso   1.000  C
  H21      1.0000 0.92930  0.91100  0.64710  Biso   1.000  H
  C24      1.0000 0.84100  0.97150  0.64080  Biso   1.000  C
  H22      1.0000 0.80900  0.93620  0.65240  Biso   1.000  H
  Cu4      1.0000 0.28151  0.92811  0.64776  Biso   1.000  Cu
  Cu5      1.0000 0.36219  0.80166  0.73151  Biso   1.000  Cu
  Cu6      1.0000 0.43378  0.85375  0.59561  Biso   1.000  Cu
  O2       1.0000 0.37340  0.88250  0.67050  Biso   1.000  O
  H23      1.0000 0.40070  0.91850  0.69400  Biso   1.000  H
  N10      1.0000 0.25050  0.90500  0.73370  Biso   1.000  N
  N11      1.0000 0.28000  0.85240  0.76660  Biso   1.000  N
  C25      1.0000 0.25100  0.84680  0.82570  Biso   1.000  C
  H24      1.0000 0.26240  0.81240  0.85620  Biso   1.000  H
  C26      1.0000 0.20120  0.90040  0.83440  Biso   1.000  C
  H25      1.0000 0.17360  0.90990  0.87080  Biso   1.000  H
  C27      1.0000 0.20250  0.93410  0.77900  Biso   1.000  C
  H26      1.0000 0.17450  0.97360  0.77030  Biso   1.000  H
  N12      1.0000 0.45810  0.77100  0.71110  Biso   1.000  N
  N13      1.0000 0.49220  0.80010  0.65900  Biso   1.000  N
  C28      1.0000 0.55490  0.77700  0.65860  Biso   1.000  C
  H27      1.0000 0.58680  0.78580  0.62520  Biso   1.000  H
  C29      1.0000 0.57160  0.73690  0.71340  Biso   1.000  C
  H28      1.0000 0.61450  0.71690  0.72610  Biso   1.000  H
  C30      1.0000 0.50840  0.73530  0.74250  Biso   1.000  C
  H29      1.0000 0.50020  0.71150  0.78120  Biso   1.000  H
  N14      1.0000 0.37210  0.91010  0.53830  Biso   1.000  N
  N15      1.0000 0.31460  0.93900  0.55870  Biso   1.000  N
  C31      1.0000 0.28560  0.97800  0.51030  Biso   1.000  C
  H30      1.0000 0.24480  0.00550  0.51360  Biso   1.000  H
  C32      1.0000 0.32580  0.97050  0.45680  Biso   1.000  C
  H31      1.0000 0.31860  0.99120  0.41650  Biso   1.000  H
  C33      1.0000 0.38190  0.92370  0.47560  Biso   1.000  C
  H32      1.0000 0.41790  0.90630  0.44930  Biso   1.000  H
  N16      1.0000 0.33510  0.71770  0.78860  Biso   1.000  N
  C34      1.0000 0.27290  0.68160  0.77400  Biso   1.000  C
  H33      1.0000 0.25090  0.68850  0.73410  Biso   1.000  H
  C35      1.0000 0.24340  0.63530  0.81890  Biso   1.000  C
  H34      1.0000 0.20170  0.61110  0.80900  Biso   1.000  H
  C36      1.0000 0.27610  0.62500  0.87850  Biso   1.000  C
  C37      1.0000 0.33840  0.66110  0.89320  Biso   1.000  C
  H35      1.0000 0.36030  0.65420  0.93300  Biso   1.000  H
  C38      1.0000 0.36790  0.70740  0.84820  Biso   1.000  C
  H36      1.0000 0.40950  0.73160  0.85810  Biso   1.000  H
  C39      1.0000 0.24160  0.58240  0.92910  Biso   1.000  C
  C40      1.0000 0.28410  0.53550  0.96370  Biso   1.000  C
  H37      1.0000 0.33250  0.53310  0.95510  Biso   1.000  H
  C41      1.0000 0.25440  0.49240  0.01110  Biso   1.000  C
  H38      1.0000 0.28290  0.46110  0.03420  Biso   1.000  H
  N17      1.0000 0.18220  0.49610  0.02390  Biso   1.000  N
  C42      1.0000 0.13960  0.54290  0.98930  Biso   1.000  C
  H39      1.0000 0.09120  0.54530  0.99790  Biso   1.000  H
  C43      1.0000 0.16930  0.58600  0.94200  Biso   1.000  C
  H40      1.0000 0.14080  0.61730  0.91880  Biso   1.000  H
  N18      1.0000 0.18320  0.96060  0.62670  Biso   1.000  N
  C44      1.0000 0.13540  0.90780  0.60940  Biso   1.000  C
  H41      1.0000 0.15160  0.86240  0.59990  Biso   1.000  H
  C45      1.0000 0.06330  0.92290  0.60620  Biso   1.000  C
  H42      1.0000 0.03130  0.88760  0.59460  Biso   1.000  H
  C46      1.0000 0.03910  0.99080  0.62030  Biso   1.000  C
  C47      1.0000 0.08690  0.04360  0.63760  Biso   1.000  C
  H43      1.0000 0.07070  0.08900  0.64710  Biso   1.000  H
  C48      1.0000 0.15900  0.02850  0.64080  Biso   1.000  C
  H44      1.0000 0.19100  0.06380  0.65240  Biso   1.000  H
  Cu7      1.0000 0.92811  0.71849  0.14776  Biso   1.000  Cu
  Cu8      1.0000 0.80166  0.63781  0.23151  Biso   1.000  Cu
  Cu9      1.0000 0.85375  0.56622  0.09561  Biso   1.000  Cu
  O3       1.0000 0.88250  0.62660  0.17050  Biso   1.000  O
  H45      1.0000 0.91850  0.59930  0.19400  Biso   1.000  H
  N19      1.0000 0.90500  0.74950  0.23370  Biso   1.000  N
  N20      1.0000 0.85240  0.72000  0.26660  Biso   1.000  N
  C49      1.0000 0.84680  0.74900  0.32570  Biso   1.000  C
  H46      1.0000 0.81240  0.73760  0.35620  Biso   1.000  H
  C50      1.0000 0.90040  0.79880  0.33440  Biso   1.000  C
  H47      1.0000 0.90990  0.82640  0.37080  Biso   1.000  H
  C51      1.0000 0.93410  0.79750  0.27900  Biso   1.000  C
  H48      1.0000 0.97360  0.82550  0.27030  Biso   1.000  H
  N21      1.0000 0.77100  0.54190  0.21110  Biso   1.000  N
  N22      1.0000 0.80010  0.50780  0.15900  Biso   1.000  N
  C52      1.0000 0.77700  0.44510  0.15860  Biso   1.000  C
  H49      1.0000 0.78580  0.41320  0.12520  Biso   1.000  H
  C53      1.0000 0.73690  0.42840  0.21340  Biso   1.000  C
  H50      1.0000 0.71690  0.38550  0.22610  Biso   1.000  H
  C54      1.0000 0.73530  0.49160  0.24250  Biso   1.000  C
  H51      1.0000 0.71150  0.49980  0.28120  Biso   1.000  H
  N23      1.0000 0.91010  0.62790  0.03830  Biso   1.000  N
  N24      1.0000 0.93900  0.68540  0.05870  Biso   1.000  N
  C55      1.0000 0.97800  0.71440  0.01030  Biso   1.000  C
  H52      1.0000 0.00550  0.75520  0.01360  Biso   1.000  H
  C56      1.0000 0.97050  0.67420  0.95680  Biso   1.000  C
  H53      1.0000 0.99120  0.68140  0.91650  Biso   1.000  H
  C57      1.0000 0.92370  0.61810  0.97560  Biso   1.000  C
  H54      1.0000 0.90630  0.58210  0.94930  Biso   1.000  H
  N25      1.0000 0.71770  0.66490  0.28860  Biso   1.000  N
  C58      1.0000 0.68160  0.72710  0.27400  Biso   1.000  C
  H55      1.0000 0.68850  0.74910  0.23410  Biso   1.000  H
  C59      1.0000 0.63530  0.75660  0.31890  Biso   1.000  C
  H56      1.0000 0.61110  0.79830  0.30900  Biso   1.000  H
  C60      1.0000 0.62500  0.72390  0.37850  Biso   1.000  C
  C61      1.0000 0.66110  0.66160  0.39320  Biso   1.000  C
  H57      1.0000 0.65420  0.63970  0.43300  Biso   1.000  H
  C62      1.0000 0.70740  0.63210  0.34820  Biso   1.000  C
  H58      1.0000 0.73160  0.59050  0.35810  Biso   1.000  H
  C63      1.0000 0.58240  0.75840  0.42910  Biso   1.000  C
  C64      1.0000 0.53550  0.71590  0.46370  Biso   1.000  C
  H59      1.0000 0.53310  0.66750  0.45510  Biso   1.000  H
  C65      1.0000 0.49240  0.74560  0.51110  Biso   1.000  C
  H60      1.0000 0.46110  0.71710  0.53420  Biso   1.000  H
  N26      1.0000 0.49610  0.81780  0.52390  Biso   1.000  N
  C66      1.0000 0.54290  0.86040  0.48930  Biso   1.000  C
  H61      1.0000 0.54530  0.90880  0.49790  Biso   1.000  H
  C67      1.0000 0.58600  0.83070  0.44200  Biso   1.000  C
  H62      1.0000 0.61730  0.85920  0.41880  Biso   1.000  H
  N27      1.0000 0.96060  0.81680  0.12670  Biso   1.000  N
  C68      1.0000 0.90780  0.86460  0.10940  Biso   1.000  C
  H63      1.0000 0.86240  0.84840  0.09990  Biso   1.000  H
  C69      1.0000 0.92290  0.93670  0.10620  Biso   1.000  C
  H64      1.0000 0.88760  0.96870  0.09460  Biso   1.000  H
  C70      1.0000 0.99080  0.96090  0.12030  Biso   1.000  C
  C71      1.0000 0.04360  0.91310  0.13760  Biso   1.000  C
  H65      1.0000 0.08900  0.92930  0.14710  Biso   1.000  H
  C72      1.0000 0.02850  0.84100  0.14080  Biso   1.000  C
  H66      1.0000 0.06380  0.80900  0.15240  Biso   1.000  H
  Cu10     1.0000 0.07189  0.28151  0.14776  Biso   1.000  Cu
  Cu11     1.0000 0.19834  0.36219  0.23151  Biso   1.000  Cu
  Cu12     1.0000 0.14625  0.43378  0.09561  Biso   1.000  Cu
  O4       1.0000 0.11750  0.37340  0.17050  Biso   1.000  O
  H67      1.0000 0.08150  0.40070  0.19400  Biso   1.000  H
  N28      1.0000 0.09500  0.25050  0.23370  Biso   1.000  N
  N29      1.0000 0.14760  0.28000  0.26660  Biso   1.000  N
  C73      1.0000 0.15320  0.25100  0.32570  Biso   1.000  C
  H68      1.0000 0.18760  0.26240  0.35620  Biso   1.000  H
  C74      1.0000 0.09960  0.20120  0.33440  Biso   1.000  C
  H69      1.0000 0.09010  0.17360  0.37080  Biso   1.000  H
  C75      1.0000 0.06590  0.20250  0.27900  Biso   1.000  C
  H70      1.0000 0.02640  0.17450  0.27030  Biso   1.000  H
  N30      1.0000 0.22900  0.45810  0.21110  Biso   1.000  N
  N31      1.0000 0.19990  0.49220  0.15900  Biso   1.000  N
  C76      1.0000 0.22300  0.55490  0.15860  Biso   1.000  C
  H71      1.0000 0.21420  0.58680  0.12520  Biso   1.000  H
  C77      1.0000 0.26310  0.57160  0.21340  Biso   1.000  C
  H72      1.0000 0.28310  0.61450  0.22610  Biso   1.000  H
  C78      1.0000 0.26470  0.50840  0.24250  Biso   1.000  C
  H73      1.0000 0.28850  0.50020  0.28120  Biso   1.000  H
  N32      1.0000 0.08990  0.37210  0.03830  Biso   1.000  N
  N33      1.0000 0.06100  0.31460  0.05870  Biso   1.000  N
  C79      1.0000 0.02200  0.28560  0.01030  Biso   1.000  C
  H74      1.0000 0.99450  0.24480  0.01360  Biso   1.000  H
  C80      1.0000 0.02950  0.32580  0.95680  Biso   1.000  C
  H75      1.0000 0.00880  0.31860  0.91650  Biso   1.000  H
  C81      1.0000 0.07630  0.38190  0.97560  Biso   1.000  C
  H76      1.0000 0.09370  0.41790  0.94930  Biso   1.000  H
  N34      1.0000 0.28230  0.33510  0.28860  Biso   1.000  N
  C82      1.0000 0.31840  0.27290  0.27400  Biso   1.000  C
  H77      1.0000 0.31150  0.25090  0.23410  Biso   1.000  H
  C83      1.0000 0.36470  0.24340  0.31890  Biso   1.000  C
  H78      1.0000 0.38890  0.20170  0.30900  Biso   1.000  H
  C84      1.0000 0.37500  0.27610  0.37850  Biso   1.000  C
  C85      1.0000 0.33890  0.33840  0.39320  Biso   1.000  C
  H79      1.0000 0.34580  0.36030  0.43300  Biso   1.000  H
  C86      1.0000 0.29260  0.36790  0.34820  Biso   1.000  C
  H80      1.0000 0.26840  0.40950  0.35810  Biso   1.000  H
  C87      1.0000 0.41760  0.24160  0.42910  Biso   1.000  C
  C88      1.0000 0.46450  0.28410  0.46370  Biso   1.000  C
  H81      1.0000 0.46690  0.33250  0.45510  Biso   1.000  H
  C89      1.0000 0.50760  0.25440  0.51110  Biso   1.000  C
  H82      1.0000 0.53890  0.28290  0.53420  Biso   1.000  H
  N35      1.0000 0.50390  0.18220  0.52390  Biso   1.000  N
  C90      1.0000 0.45710  0.13960  0.48930  Biso   1.000  C
  H83      1.0000 0.45470  0.09120  0.49790  Biso   1.000  H
  C91      1.0000 0.41400  0.16930  0.44200  Biso   1.000  C
  H84      1.0000 0.38270  0.14080  0.41880  Biso   1.000  H
  N36      1.0000 0.03940  0.18320  0.12670  Biso   1.000  N
  C92      1.0000 0.09220  0.13540  0.10940  Biso   1.000  C
  H85      1.0000 0.13760  0.15160  0.09990  Biso   1.000  H
  C93      1.0000 0.07710  0.06330  0.10620  Biso   1.000  C
  H86      1.0000 0.11240  0.03130  0.09460  Biso   1.000  H
  C94      1.0000 0.00920  0.03910  0.12030  Biso   1.000  C
  C95      1.0000 0.95640  0.08690  0.13760  Biso   1.000  C
  H87      1.0000 0.91100  0.07070  0.14710  Biso   1.000  H
  C96      1.0000 0.97150  0.15900  0.14080  Biso   1.000  C
  H88      1.0000 0.93620  0.19100  0.15240  Biso   1.000  H
  Cu13     1.0000 0.21849  0.42811  0.64776  Biso   1.000  Cu
  Cu14     1.0000 0.13781  0.30166  0.73151  Biso   1.000  Cu
  Cu15     1.0000 0.06622  0.35375  0.59561  Biso   1.000  Cu
  O5       1.0000 0.12660  0.38250  0.67050  Biso   1.000  O
  H89      1.0000 0.09930  0.41850  0.69400  Biso   1.000  H
  N37      1.0000 0.24950  0.40500  0.73370  Biso   1.000  N
  N38      1.0000 0.22000  0.35240  0.76660  Biso   1.000  N
  C97      1.0000 0.24900  0.34680  0.82570  Biso   1.000  C
  H90      1.0000 0.23760  0.31240  0.85620  Biso   1.000  H
  C98      1.0000 0.29880  0.40040  0.83440  Biso   1.000  C
  H91      1.0000 0.32640  0.40990  0.87080  Biso   1.000  H
  C99      1.0000 0.29750  0.43410  0.77900  Biso   1.000  C
  H92      1.0000 0.32550  0.47360  0.77030  Biso   1.000  H
  N39      1.0000 0.04190  0.27100  0.71110  Biso   1.000  N
  N40      1.0000 0.00780  0.30010  0.65900  Biso   1.000  N
  C100     1.0000 0.94510  0.27700  0.65860  Biso   1.000  C
  H93      1.0000 0.91320  0.28580  0.62520  Biso   1.000  H
  C101     1.0000 0.92840  0.23690  0.71340  Biso   1.000  C
  H94      1.0000 0.88550  0.21690  0.72610  Biso   1.000  H
  C102     1.0000 0.99160  0.23530  0.74250  Biso   1.000  C
  H95      1.0000 0.99980  0.21150  0.78120  Biso   1.000  H
  N41      1.0000 0.12790  0.41010  0.53830  Biso   1.000  N
  N42      1.0000 0.18540  0.43900  0.55870  Biso   1.000  N
  C103     1.0000 0.21440  0.47800  0.51030  Biso   1.000  C
  H96      1.0000 0.25520  0.50550  0.51360  Biso   1.000  H
  C104     1.0000 0.17420  0.47050  0.45680  Biso   1.000  C
  H97      1.0000 0.18140  0.49120  0.41650  Biso   1.000  H
  C105     1.0000 0.11810  0.42370  0.47560  Biso   1.000  C
  H98      1.0000 0.08210  0.40630  0.44930  Biso   1.000  H
  N43      1.0000 0.16490  0.21770  0.78860  Biso   1.000  N
  C106     1.0000 0.22710  0.18160  0.77400  Biso   1.000  C
  H99      1.0000 0.24910  0.18850  0.73410  Biso   1.000  H
  C107     1.0000 0.25660  0.13530  0.81890  Biso   1.000  C
  H100     1.0000 0.29830  0.11110  0.80900  Biso   1.000  H
  C108     1.0000 0.22390  0.12500  0.87850  Biso   1.000  C
  C109     1.0000 0.16160  0.16110  0.89320  Biso   1.000  C
  H101     1.0000 0.13970  0.15420  0.93300  Biso   1.000  H
  C110     1.0000 0.13210  0.20740  0.84820  Biso   1.000  C
  H102     1.0000 0.09050  0.23160  0.85810  Biso   1.000  H
  C111     1.0000 0.25840  0.08240  0.92910  Biso   1.000  C
  C112     1.0000 0.21590  0.03550  0.96370  Biso   1.000  C
  H103     1.0000 0.16750  0.03310  0.95510  Biso   1.000  H
  C113     1.0000 0.24560  0.99240  0.01110  Biso   1.000  C
  H104     1.0000 0.21710  0.96110  0.03420  Biso   1.000  H
  N44      1.0000 0.31780  0.99610  0.02390  Biso   1.000  N
  C114     1.0000 0.36040  0.04290  0.98930  Biso   1.000  C
  H105     1.0000 0.40880  0.04530  0.99790  Biso   1.000  H
  C115     1.0000 0.33070  0.08600  0.94200  Biso   1.000  C
  H106     1.0000 0.35920  0.11730  0.91880  Biso   1.000  H
  N45      1.0000 0.31680  0.46060  0.62670  Biso   1.000  N
  C116     1.0000 0.36460  0.40780  0.60940  Biso   1.000  C
  H107     1.0000 0.34840  0.36240  0.59990  Biso   1.000  H
  C117     1.0000 0.43670  0.42290  0.60620  Biso   1.000  C
  H108     1.0000 0.46870  0.38760  0.59460  Biso   1.000  H
  C118     1.0000 0.46090  0.49080  0.62030  Biso   1.000  C
  C119     1.0000 0.41310  0.54360  0.63760  Biso   1.000  C
  H109     1.0000 0.42930  0.58900  0.64710  Biso   1.000  H
  C120     1.0000 0.34100  0.52850  0.64080  Biso   1.000  C
  H110     1.0000 0.30900  0.56380  0.65240  Biso   1.000  H
  Cu16     1.0000 0.78151  0.57189  0.64776  Biso   1.000  Cu
  Cu17     1.0000 0.86219  0.69834  0.73151  Biso   1.000  Cu
  Cu18     1.0000 0.93378  0.64625  0.59561  Biso   1.000  Cu
  O6       1.0000 0.87340  0.61750  0.67050  Biso   1.000  O
  H111     1.0000 0.90070  0.58150  0.69400  Biso   1.000  H
  N46      1.0000 0.75050  0.59500  0.73370  Biso   1.000  N
  N47      1.0000 0.78000  0.64760  0.76660  Biso   1.000  N
  C121     1.0000 0.75100  0.65320  0.82570  Biso   1.000  C
  H112     1.0000 0.76240  0.68760  0.85620  Biso   1.000  H
  C122     1.0000 0.70120  0.59960  0.83440  Biso   1.000  C
  H113     1.0000 0.67360  0.59010  0.87080  Biso   1.000  H
  C123     1.0000 0.70250  0.56590  0.77900  Biso   1.000  C
  H114     1.0000 0.67450  0.52640  0.77030  Biso   1.000  H
  N48      1.0000 0.95810  0.72900  0.71110  Biso   1.000  N
  N49      1.0000 0.99220  0.69990  0.65900  Biso   1.000  N
  C124     1.0000 0.05490  0.72300  0.65860  Biso   1.000  C
  H115     1.0000 0.08680  0.71420  0.62520  Biso   1.000  H
  C125     1.0000 0.07160  0.76310  0.71340  Biso   1.000  C
  H116     1.0000 0.11450  0.78310  0.72610  Biso   1.000  H
  C126     1.0000 0.00840  0.76470  0.74250  Biso   1.000  C
  H117     1.0000 0.00020  0.78850  0.78120  Biso   1.000  H
  N50      1.0000 0.87210  0.58990  0.53830  Biso   1.000  N
  N51      1.0000 0.81460  0.56100  0.55870  Biso   1.000  N
  C127     1.0000 0.78560  0.52200  0.51030  Biso   1.000  C
  H118     1.0000 0.74480  0.49450  0.51360  Biso   1.000  H
  C128     1.0000 0.82580  0.52950  0.45680  Biso   1.000  C
  H119     1.0000 0.81860  0.50880  0.41650  Biso   1.000  H
  C129     1.0000 0.88190  0.57630  0.47560  Biso   1.000  C
  H120     1.0000 0.91790  0.59370  0.44930  Biso   1.000  H
  N52      1.0000 0.83510  0.78230  0.78860  Biso   1.000  N
  C130     1.0000 0.77290  0.81840  0.77400  Biso   1.000  C
  H121     1.0000 0.75090  0.81150  0.73410  Biso   1.000  H
  C131     1.0000 0.74340  0.86470  0.81890  Biso   1.000  C
  H122     1.0000 0.70170  0.88890  0.80900  Biso   1.000  H
  C132     1.0000 0.77610  0.87500  0.87850  Biso   1.000  C
  C133     1.0000 0.83840  0.83890  0.89320  Biso   1.000  C
  H123     1.0000 0.86030  0.84580  0.93300  Biso   1.000  H
  C134     1.0000 0.86790  0.79260  0.84820  Biso   1.000  C
  H124     1.0000 0.90950  0.76840  0.85810  Biso   1.000  H
  C135     1.0000 0.74160  0.91760  0.92910  Biso   1.000  C
  C136     1.0000 0.78410  0.96450  0.96370  Biso   1.000  C
  H125     1.0000 0.83250  0.96690  0.95510  Biso   1.000  H
  C137     1.0000 0.75440  0.00760  0.01110  Biso   1.000  C
  H126     1.0000 0.78290  0.03890  0.03420  Biso   1.000  H
  N53      1.0000 0.68220  0.00390  0.02390  Biso   1.000  N
  C138     1.0000 0.63960  0.95710  0.98930  Biso   1.000  C
  H127     1.0000 0.59120  0.95470  0.99790  Biso   1.000  H
  C139     1.0000 0.66930  0.91400  0.94200  Biso   1.000  C
  H128     1.0000 0.64080  0.88270  0.91880  Biso   1.000  H
  N54      1.0000 0.68320  0.53940  0.62670  Biso   1.000  N
  C140     1.0000 0.63540  0.59220  0.60940  Biso   1.000  C
  H129     1.0000 0.65160  0.63760  0.59990  Biso   1.000  H
  C141     1.0000 0.56330  0.57710  0.60620  Biso   1.000  C
  H130     1.0000 0.53130  0.61240  0.59460  Biso   1.000  H
  C142     1.0000 0.53910  0.50920  0.62030  Biso   1.000  C
  C143     1.0000 0.58690  0.45640  0.63760  Biso   1.000  C
  H131     1.0000 0.57070  0.41100  0.64710  Biso   1.000  H
  C144     1.0000 0.65900  0.47150  0.64080  Biso   1.000  C
  H132     1.0000 0.69100  0.43620  0.65240  Biso   1.000  H
  Cu19     1.0000 0.42811  0.78151  0.14776  Biso   1.000  Cu
  Cu20     1.0000 0.30166  0.86219  0.23151  Biso   1.000  Cu
  Cu21     1.0000 0.35375  0.93378  0.09561  Biso   1.000  Cu
  O7       1.0000 0.38250  0.87340  0.17050  Biso   1.000  O
  H133     1.0000 0.41850  0.90070  0.19400  Biso   1.000  H
  N55      1.0000 0.40500  0.75050  0.23370  Biso   1.000  N
  N56      1.0000 0.35240  0.78000  0.26660  Biso   1.000  N
  C145     1.0000 0.34680  0.75100  0.32570  Biso   1.000  C
  H134     1.0000 0.31240  0.76240  0.35620  Biso   1.000  H
  C146     1.0000 0.40040  0.70120  0.33440  Biso   1.000  C
  H135     1.0000 0.40990  0.67360  0.37080  Biso   1.000  H
  C147     1.0000 0.43410  0.70250  0.27900  Biso   1.000  C
  H136     1.0000 0.47360  0.67450  0.27030  Biso   1.000  H
  N57      1.0000 0.27100  0.95810  0.21110  Biso   1.000  N
  N58      1.0000 0.30010  0.99220  0.15900  Biso   1.000  N
  C148     1.0000 0.27700  0.05490  0.15860  Biso   1.000  C
  H137     1.0000 0.28580  0.08680  0.12520  Biso   1.000  H
  C149     1.0000 0.23690  0.07160  0.21340  Biso   1.000  C
  H138     1.0000 0.21690  0.11450  0.22610  Biso   1.000  H
  C150     1.0000 0.23530  0.00840  0.24250  Biso   1.000  C
  H139     1.0000 0.21150  0.00020  0.28120  Biso   1.000  H
  N59      1.0000 0.41010  0.87210  0.03830  Biso   1.000  N
  N60      1.0000 0.43900  0.81460  0.05870  Biso   1.000  N
  C151     1.0000 0.47800  0.78560  0.01030  Biso   1.000  C
  H140     1.0000 0.50550  0.74480  0.01360  Biso   1.000  H
  C152     1.0000 0.47050  0.82580  0.95680  Biso   1.000  C
  H141     1.0000 0.49120  0.81860  0.91650  Biso   1.000  H
  C153     1.0000 0.42370  0.88190  0.97560  Biso   1.000  C
  H142     1.0000 0.40630  0.91790  0.94930  Biso   1.000  H
  N61      1.0000 0.21770  0.83510  0.28860  Biso   1.000  N
  C154     1.0000 0.18160  0.77290  0.27400  Biso   1.000  C
  H143     1.0000 0.18850  0.75090  0.23410  Biso   1.000  H
  C155     1.0000 0.13530  0.74340  0.31890  Biso   1.000  C
  H144     1.0000 0.11110  0.70170  0.30900  Biso   1.000  H
  C156     1.0000 0.12500  0.77610  0.37850  Biso   1.000  C
  C157     1.0000 0.16110  0.83840  0.39320  Biso   1.000  C
  H145     1.0000 0.15420  0.86030  0.43300  Biso   1.000  H
  C158     1.0000 0.20740  0.86790  0.34820  Biso   1.000  C
  H146     1.0000 0.23160  0.90950  0.35810  Biso   1.000  H
  C159     1.0000 0.08240  0.74160  0.42910  Biso   1.000  C
  C160     1.0000 0.03550  0.78410  0.46370  Biso   1.000  C
  H147     1.0000 0.03310  0.83250  0.45510  Biso   1.000  H
  C161     1.0000 0.99240  0.75440  0.51110  Biso   1.000  C
  H148     1.0000 0.96110  0.78290  0.53420  Biso   1.000  H
  N62      1.0000 0.99610  0.68220  0.52390  Biso   1.000  N
  C162     1.0000 0.04290  0.63960  0.48930  Biso   1.000  C
  H149     1.0000 0.04530  0.59120  0.49790  Biso   1.000  H
  C163     1.0000 0.08600  0.66930  0.44200  Biso   1.000  C
  H150     1.0000 0.11730  0.64080  0.41880  Biso   1.000  H
  N63      1.0000 0.46060  0.68320  0.12670  Biso   1.000  N
  C164     1.0000 0.40780  0.63540  0.10940  Biso   1.000  C
  H151     1.0000 0.36240  0.65160  0.09990  Biso   1.000  H
  C165     1.0000 0.42290  0.56330  0.10620  Biso   1.000  C
  H152     1.0000 0.38760  0.53130  0.09460  Biso   1.000  H
  C166     1.0000 0.49080  0.53910  0.12030  Biso   1.000  C
  C167     1.0000 0.54360  0.58690  0.13760  Biso   1.000  C
  H153     1.0000 0.58900  0.57070  0.14710  Biso   1.000  H
  C168     1.0000 0.52850  0.65900  0.14080  Biso   1.000  C
  H154     1.0000 0.56380  0.69100  0.15240  Biso   1.000  H
  Cu22     1.0000 0.57189  0.21849  0.14776  Biso   1.000  Cu
  Cu23     1.0000 0.69834  0.13781  0.23151  Biso   1.000  Cu
  Cu24     1.0000 0.64625  0.06622  0.09561  Biso   1.000  Cu
  O8       1.0000 0.61750  0.12660  0.17050  Biso   1.000  O
  H155     1.0000 0.58150  0.09930  0.19400  Biso   1.000  H
  N64      1.0000 0.59500  0.24950  0.23370  Biso   1.000  N
  N65      1.0000 0.64760  0.22000  0.26660  Biso   1.000  N
  C169     1.0000 0.65320  0.24900  0.32570  Biso   1.000  C
  H156     1.0000 0.68760  0.23760  0.35620  Biso   1.000  H
  C170     1.0000 0.59960  0.29880  0.33440  Biso   1.000  C
  H157     1.0000 0.59010  0.32640  0.37080  Biso   1.000  H
  C171     1.0000 0.56590  0.29750  0.27900  Biso   1.000  C
  H158     1.0000 0.52640  0.32550  0.27030  Biso   1.000  H
  N66      1.0000 0.72900  0.04190  0.21110  Biso   1.000  N
  N67      1.0000 0.69990  0.00780  0.15900  Biso   1.000  N
  C172     1.0000 0.72300  0.94510  0.15860  Biso   1.000  C
  H159     1.0000 0.71420  0.91320  0.12520  Biso   1.000  H
  C173     1.0000 0.76310  0.92840  0.21340  Biso   1.000  C
  H160     1.0000 0.78310  0.88550  0.22610  Biso   1.000  H
  C174     1.0000 0.76470  0.99160  0.24250  Biso   1.000  C
  H161     1.0000 0.78850  0.99980  0.28120  Biso   1.000  H
  N68      1.0000 0.58990  0.12790  0.03830  Biso   1.000  N
  N69      1.0000 0.56100  0.18540  0.05870  Biso   1.000  N
  C175     1.0000 0.52200  0.21440  0.01030  Biso   1.000  C
  H162     1.0000 0.49450  0.25520  0.01360  Biso   1.000  H
  C176     1.0000 0.52950  0.17420  0.95680  Biso   1.000  C
  H163     1.0000 0.50880  0.18140  0.91650  Biso   1.000  H
  C177     1.0000 0.57630  0.11810  0.97560  Biso   1.000  C
  H164     1.0000 0.59370  0.08210  0.94930  Biso   1.000  H
  N70      1.0000 0.78230  0.16490  0.28860  Biso   1.000  N
  C178     1.0000 0.81840  0.22710  0.27400  Biso   1.000  C
  H165     1.0000 0.81150  0.24910  0.23410  Biso   1.000  H
  C179     1.0000 0.86470  0.25660  0.31890  Biso   1.000  C
  H166     1.0000 0.88890  0.29830  0.30900  Biso   1.000  H
  C180     1.0000 0.87500  0.22390  0.37850  Biso   1.000  C
  C181     1.0000 0.83890  0.16160  0.39320  Biso   1.000  C
  H167     1.0000 0.84580  0.13970  0.43300  Biso   1.000  H
  C182     1.0000 0.79260  0.13210  0.34820  Biso   1.000  C
  H168     1.0000 0.76840  0.09050  0.35810  Biso   1.000  H
  C183     1.0000 0.91760  0.25840  0.42910  Biso   1.000  C
  C184     1.0000 0.96450  0.21590  0.46370  Biso   1.000  C
  H169     1.0000 0.96690  0.16750  0.45510  Biso   1.000  H
  C185     1.0000 0.00760  0.24560  0.51110  Biso   1.000  C
  H170     1.0000 0.03890  0.21710  0.53420  Biso   1.000  H
  N71      1.0000 0.00390  0.31780  0.52390  Biso   1.000  N
  C186     1.0000 0.95710  0.36040  0.48930  Biso   1.000  C
  H171     1.0000 0.95470  0.40880  0.49790  Biso   1.000  H
  C187     1.0000 0.91400  0.33070  0.44200  Biso   1.000  C
  H172     1.0000 0.88270  0.35920  0.41880  Biso   1.000  H
  N72      1.0000 0.53940  0.31680  0.12670  Biso   1.000  N
  C188     1.0000 0.59220  0.36460  0.10940  Biso   1.000  C
  H173     1.0000 0.63760  0.34840  0.09990  Biso   1.000  H
  C189     1.0000 0.57710  0.43670  0.10620  Biso   1.000  C
  H174     1.0000 0.61240  0.46870  0.09460  Biso   1.000  H
  C190     1.0000 0.50920  0.46090  0.12030  Biso   1.000  C
  C191     1.0000 0.45640  0.41310  0.13760  Biso   1.000  C
  H175     1.0000 0.41100  0.42930  0.14710  Biso   1.000  H
  C192     1.0000 0.47150  0.34100  0.14080  Biso   1.000  C
  H176     1.0000 0.43620  0.30900  0.15240  Biso   1.000  H
