data_image0
_cell_length_a       8.3837
_cell_length_b       8.3837
_cell_length_c       16.8473
_cell_angle_alpha    90
_cell_angle_beta     90
_cell_angle_gamma    90

_symmetry_space_group_name_H-M    P 1
_symmetry_int_tables_number       1

loop_
  _symmetry_equiv_pos_as_xyz
  'x, y, z'

loop_
  _atom_site_label
  _atom_site_occupancy
  _atom_site_fract_x
  _atom_site_fract_y
  _atom_site_fract_z
  _atom_site_thermal_displace_type
  _atom_site_B_iso_or_equiv
  _atom_site_type_symbol
  Co1      1.0000 0.50000  0.50000  0.75000  Biso   1.000  Co
  Co2      1.0000 0.50000  0.50000  0.25000  Biso   1.000  Co
  H1       1.0000 0.53850  0.31140  0.91100  Biso   1.000  H
  H2       1.0000 0.39120  0.17220  0.00280  Biso   1.000  H
  H3       1.0000 0.99590  0.28720  0.87940  Biso   1.000  H
  H4       1.0000 0.15480  0.42630  0.79220  Biso   1.000  H
  H5       1.0000 0.10350  0.13210  0.06170  Biso   1.000  H
  H6       1.0000 0.46150  0.68860  0.91100  Biso   1.000  H
  H7       1.0000 0.60880  0.82780  0.00280  Biso   1.000  H
  H8       1.0000 0.00410  0.71280  0.87940  Biso   1.000  H
  H9       1.0000 0.84520  0.57370  0.79220  Biso   1.000  H
  H10      1.0000 0.89650  0.86790  0.06170  Biso   1.000  H
  H11      1.0000 0.31140  0.46150  0.08900  Biso   1.000  H
  H12      1.0000 0.17220  0.60880  0.99720  Biso   1.000  H
  H13      1.0000 0.28720  0.00410  0.12060  Biso   1.000  H
  H14      1.0000 0.42630  0.84520  0.20780  Biso   1.000  H
  H15      1.0000 0.13210  0.89650  0.93830  Biso   1.000  H
  H16      1.0000 0.68860  0.53850  0.08900  Biso   1.000  H
  H17      1.0000 0.82780  0.39120  0.99720  Biso   1.000  H
  H18      1.0000 0.71280  0.99590  0.12060  Biso   1.000  H
  H19      1.0000 0.57370  0.15480  0.20780  Biso   1.000  H
  H20      1.0000 0.86790  0.10350  0.93830  Biso   1.000  H
  H21      1.0000 0.53850  0.68860  0.41100  Biso   1.000  H
  H22      1.0000 0.39120  0.82780  0.50280  Biso   1.000  H
  H23      1.0000 0.99590  0.71280  0.37940  Biso   1.000  H
  H24      1.0000 0.15480  0.57370  0.29220  Biso   1.000  H
  H25      1.0000 0.10350  0.86790  0.56170  Biso   1.000  H
  H26      1.0000 0.46150  0.31140  0.41100  Biso   1.000  H
  H27      1.0000 0.60880  0.17220  0.50280  Biso   1.000  H
  H28      1.0000 0.00410  0.28720  0.37940  Biso   1.000  H
  H29      1.0000 0.84520  0.42630  0.29220  Biso   1.000  H
  H30      1.0000 0.89650  0.13210  0.56170  Biso   1.000  H
  H31      1.0000 0.31140  0.53850  0.58900  Biso   1.000  H
  H32      1.0000 0.17220  0.39120  0.49720  Biso   1.000  H
  H33      1.0000 0.28720  0.99590  0.62060  Biso   1.000  H
  H34      1.0000 0.42630  0.15480  0.70780  Biso   1.000  H
  H35      1.0000 0.13210  0.10350  0.43830  Biso   1.000  H
  H36      1.0000 0.68860  0.46150  0.58900  Biso   1.000  H
  H37      1.0000 0.82780  0.60880  0.49720  Biso   1.000  H
  H38      1.0000 0.71280  0.00410  0.62060  Biso   1.000  H
  H39      1.0000 0.57370  0.84520  0.70780  Biso   1.000  H
  H40      1.0000 0.86790  0.89650  0.43830  Biso   1.000  H
  C1       1.0000 0.42730  0.30550  0.90430  Biso   1.000  C
  C2       1.0000 0.33981  0.22100  0.95959  Biso   1.000  C
  C3       1.0000 0.17400  0.20823  0.95096  Biso   1.000  C
  C4       1.0000 0.10698  0.28900  0.88706  Biso   1.000  C
  C5       1.0000 0.20330  0.37220  0.83473  Biso   1.000  C
  C6       1.0000 0.08071  0.10296  0.00590  Biso   1.000  C
  C7       1.0000 0.57270  0.69450  0.90430  Biso   1.000  C
  C8       1.0000 0.66019  0.77900  0.95959  Biso   1.000  C
  C9       1.0000 0.82600  0.79177  0.95096  Biso   1.000  C
  C10      1.0000 0.89302  0.71100  0.88706  Biso   1.000  C
  C11      1.0000 0.79670  0.62780  0.83473  Biso   1.000  C
  C12      1.0000 0.91929  0.89704  0.00590  Biso   1.000  C
  C13      1.0000 0.30550  0.57270  0.09570  Biso   1.000  C
  C14      1.0000 0.22100  0.66019  0.04041  Biso   1.000  C
  C15      1.0000 0.20823  0.82600  0.04904  Biso   1.000  C
  C16      1.0000 0.28900  0.89302  0.11294  Biso   1.000  C
  C17      1.0000 0.37220  0.79670  0.16527  Biso   1.000  C
  C18      1.0000 0.10296  0.91929  0.99410  Biso   1.000  C
  C19      1.0000 0.69450  0.42730  0.09570  Biso   1.000  C
  C20      1.0000 0.77900  0.33981  0.04041  Biso   1.000  C
  C21      1.0000 0.79177  0.17400  0.04904  Biso   1.000  C
  C22      1.0000 0.71100  0.10698  0.11294  Biso   1.000  C
  C23      1.0000 0.62780  0.20330  0.16527  Biso   1.000  C
  C24      1.0000 0.89704  0.08071  0.99410  Biso   1.000  C
  C25      1.0000 0.42730  0.69450  0.40430  Biso   1.000  C
  C26      1.0000 0.33981  0.77900  0.45959  Biso   1.000  C
  C27      1.0000 0.17400  0.79177  0.45096  Biso   1.000  C
  C28      1.0000 0.10698  0.71100  0.38706  Biso   1.000  C
  C29      1.0000 0.20330  0.62780  0.33473  Biso   1.000  C
  C30      1.0000 0.08071  0.89704  0.50590  Biso   1.000  C
  C31      1.0000 0.57270  0.30550  0.40430  Biso   1.000  C
  C32      1.0000 0.66019  0.22100  0.45959  Biso   1.000  C
  C33      1.0000 0.82600  0.20823  0.45096  Biso   1.000  C
  C34      1.0000 0.89302  0.28900  0.38706  Biso   1.000  C
  C35      1.0000 0.79670  0.37220  0.33473  Biso   1.000  C
  C36      1.0000 0.91929  0.10296  0.50590  Biso   1.000  C
  C37      1.0000 0.30550  0.42730  0.59570  Biso   1.000  C
  C38      1.0000 0.22100  0.33981  0.54041  Biso   1.000  C
  C39      1.0000 0.20823  0.17400  0.54904  Biso   1.000  C
  C40      1.0000 0.28900  0.10698  0.61294  Biso   1.000  C
  C41      1.0000 0.37220  0.20330  0.66527  Biso   1.000  C
  C42      1.0000 0.10296  0.08071  0.49410  Biso   1.000  C
  C43      1.0000 0.69450  0.57270  0.59570  Biso   1.000  C
  C44      1.0000 0.77900  0.66019  0.54041  Biso   1.000  C
  C45      1.0000 0.79177  0.82600  0.54904  Biso   1.000  C
  C46      1.0000 0.71100  0.89302  0.61294  Biso   1.000  C
  C47      1.0000 0.62780  0.79670  0.66527  Biso   1.000  C
  C48      1.0000 0.89704  0.91929  0.49410  Biso   1.000  C
  N1       1.0000 0.36241  0.37952  0.84177  Biso   1.000  N
  N2       1.0000 0.63759  0.62048  0.84177  Biso   1.000  N
  N3       1.0000 0.37952  0.63759  0.15823  Biso   1.000  N
  N4       1.0000 0.62048  0.36241  0.15823  Biso   1.000  N
  N5       1.0000 0.36241  0.62048  0.34177  Biso   1.000  N
  N6       1.0000 0.63759  0.37952  0.34177  Biso   1.000  N
  N7       1.0000 0.37952  0.36241  0.65823  Biso   1.000  N
  N8       1.0000 0.62048  0.63759  0.65823  Biso   1.000  N
  F1       1.0000 0.33254  0.66746  0.75000  Biso   1.000  F
  F2       1.0000 0.66746  0.33254  0.75000  Biso   1.000  F
  F3       1.0000 0.66746  0.66746  0.25000  Biso   1.000  F
  F4       1.0000 0.33254  0.33254  0.25000  Biso   1.000  F
