data_image0
_cell_length_a       11.4858
_cell_length_b       11.4858
_cell_length_c       14.756
_cell_angle_alpha    90
_cell_angle_beta     90
_cell_angle_gamma    120

_symmetry_space_group_name_H-M    P 1
_symmetry_int_tables_number       1

loop_
  _symmetry_equiv_pos_as_xyz
  'x, y, z'

loop_
  _atom_site_label
  _atom_site_occupancy
  _atom_site_fract_x
  _atom_site_fract_y
  _atom_site_fract_z
  _atom_site_thermal_displace_type
  _atom_site_B_iso_or_equiv
  _atom_site_type_symbol
  Mg1      1.0000 0.80653  0.61306  0.58333  Biso   1.000  Mg
  Mg2      1.0000 0.80653  0.19347  0.25000  Biso   1.000  Mg
  Mg3      1.0000 0.38694  0.19347  0.91667  Biso   1.000  Mg
  Mg4      1.0000 0.19347  0.38694  0.08333  Biso   1.000  Mg
  Mg5      1.0000 0.19347  0.80653  0.75000  Biso   1.000  Mg
  Mg6      1.0000 0.61306  0.80653  0.41667  Biso   1.000  Mg
  H1       1.0000 0.43250  0.79550  0.65200  Biso   1.000  H
  H2       1.0000 0.36300  0.56750  0.31867  Biso   1.000  H
  H3       1.0000 0.20450  0.63700  0.98533  Biso   1.000  H
  H4       1.0000 0.56750  0.20450  0.15200  Biso   1.000  H
  H5       1.0000 0.63700  0.43250  0.81867  Biso   1.000  H
  H6       1.0000 0.79550  0.36300  0.48533  Biso   1.000  H
  H7       1.0000 0.63700  0.20450  0.01467  Biso   1.000  H
  H8       1.0000 0.79550  0.43250  0.34800  Biso   1.000  H
  H9       1.0000 0.56750  0.36300  0.68133  Biso   1.000  H
  H10      1.0000 0.36300  0.79550  0.51467  Biso   1.000  H
  H11      1.0000 0.20450  0.56750  0.84800  Biso   1.000  H
  H12      1.0000 0.43250  0.63700  0.18133  Biso   1.000  H
  H13      1.0000 0.49315  0.50685  0.75000  Biso   1.000  H
  H14      1.0000 0.01370  0.50685  0.41667  Biso   1.000  H
  H15      1.0000 0.49315  0.98630  0.08333  Biso   1.000  H
  H16      1.0000 0.50685  0.49315  0.25000  Biso   1.000  H
  H17      1.0000 0.98630  0.49315  0.91667  Biso   1.000  H
  H18      1.0000 0.50685  0.01370  0.58333  Biso   1.000  H
  C1       1.0000 0.57920  0.68200  0.61240  Biso   1.000  C
  C2       1.0000 0.47660  0.65410  0.68600  Biso   1.000  C
  C3       1.0000 0.40780  0.72360  0.69130  Biso   1.000  C
  C4       1.0000 0.10280  0.42080  0.27907  Biso   1.000  C
  C5       1.0000 0.17750  0.52340  0.35267  Biso   1.000  C
  C6       1.0000 0.31580  0.59220  0.35797  Biso   1.000  C
  C7       1.0000 0.31800  0.89720  0.94573  Biso   1.000  C
  C8       1.0000 0.34590  0.82250  0.01933  Biso   1.000  C
  C9       1.0000 0.27640  0.68420  0.02463  Biso   1.000  C
  C10      1.0000 0.42080  0.31800  0.11240  Biso   1.000  C
  C11      1.0000 0.52340  0.34590  0.18600  Biso   1.000  C
  C12      1.0000 0.59220  0.27640  0.19130  Biso   1.000  C
  C13      1.0000 0.89720  0.57920  0.77907  Biso   1.000  C
  C14      1.0000 0.82250  0.47660  0.85267  Biso   1.000  C
  C15      1.0000 0.68420  0.40780  0.85797  Biso   1.000  C
  C16      1.0000 0.68200  0.10280  0.44573  Biso   1.000  C
  C17      1.0000 0.65410  0.17750  0.51933  Biso   1.000  C
  C18      1.0000 0.72360  0.31580  0.52463  Biso   1.000  C
  C19      1.0000 0.89720  0.31800  0.05427  Biso   1.000  C
  C20      1.0000 0.82250  0.34590  0.98067  Biso   1.000  C
  C21      1.0000 0.68420  0.27640  0.97537  Biso   1.000  C
  C22      1.0000 0.68200  0.57920  0.38760  Biso   1.000  C
  C23      1.0000 0.65410  0.47660  0.31400  Biso   1.000  C
  C24      1.0000 0.72360  0.40780  0.30870  Biso   1.000  C
  C25      1.0000 0.42080  0.10280  0.72093  Biso   1.000  C
  C26      1.0000 0.52340  0.17750  0.64733  Biso   1.000  C
  C27      1.0000 0.59220  0.31580  0.64203  Biso   1.000  C
  C28      1.0000 0.10280  0.68200  0.55427  Biso   1.000  C
  C29      1.0000 0.17750  0.65410  0.48067  Biso   1.000  C
  C30      1.0000 0.31580  0.72360  0.47537  Biso   1.000  C
  C31      1.0000 0.31800  0.42080  0.88760  Biso   1.000  C
  C32      1.0000 0.34590  0.52340  0.81400  Biso   1.000  C
  C33      1.0000 0.27640  0.59220  0.80870  Biso   1.000  C
  C34      1.0000 0.57920  0.89720  0.22093  Biso   1.000  C
  C35      1.0000 0.47660  0.82250  0.14733  Biso   1.000  C
  C36      1.0000 0.40780  0.68420  0.14203  Biso   1.000  C
  C37      1.0000 0.44680  0.55320  0.75000  Biso   1.000  C
  C38      1.0000 0.10640  0.55320  0.41667  Biso   1.000  C
  C39      1.0000 0.44680  0.89360  0.08333  Biso   1.000  C
  C40      1.0000 0.55320  0.44680  0.25000  Biso   1.000  C
  C41      1.0000 0.89360  0.44680  0.91667  Biso   1.000  C
  C42      1.0000 0.55320  0.10640  0.58333  Biso   1.000  C
  N1       1.0000 0.30675  0.69325  0.75000  Biso   1.000  N
  N2       1.0000 0.38650  0.69325  0.41667  Biso   1.000  N
  N3       1.0000 0.30675  0.61350  0.08333  Biso   1.000  N
  N4       1.0000 0.69325  0.30675  0.25000  Biso   1.000  N
  N5       1.0000 0.61350  0.30675  0.91667  Biso   1.000  N
  N6       1.0000 0.69325  0.38650  0.58333  Biso   1.000  N
  O1       1.0000 0.63360  0.61130  0.61290  Biso   1.000  O
  O2       1.0000 0.60140  0.77360  0.55670  Biso   1.000  O
  O3       1.0000 0.97770  0.36640  0.27957  Biso   1.000  O
  O4       1.0000 0.17220  0.39860  0.22337  Biso   1.000  O
  O5       1.0000 0.38870  0.02230  0.94623  Biso   1.000  O
  O6       1.0000 0.22640  0.82780  0.89003  Biso   1.000  O
  O7       1.0000 0.36640  0.38870  0.11290  Biso   1.000  O
  O8       1.0000 0.39860  0.22640  0.05670  Biso   1.000  O
  O9       1.0000 0.02230  0.63360  0.77957  Biso   1.000  O
  O10      1.0000 0.82780  0.60140  0.72337  Biso   1.000  O
  O11      1.0000 0.61130  0.97770  0.44623  Biso   1.000  O
  O12      1.0000 0.77360  0.17220  0.39003  Biso   1.000  O
  O13      1.0000 0.02230  0.38870  0.05377  Biso   1.000  O
  O14      1.0000 0.82780  0.22640  0.10997  Biso   1.000  O
  O15      1.0000 0.61130  0.63360  0.38710  Biso   1.000  O
  O16      1.0000 0.77360  0.60140  0.44330  Biso   1.000  O
  O17      1.0000 0.36640  0.97770  0.72043  Biso   1.000  O
  O18      1.0000 0.39860  0.17220  0.77663  Biso   1.000  O
  O19      1.0000 0.97770  0.61130  0.55377  Biso   1.000  O
  O20      1.0000 0.17220  0.77360  0.60997  Biso   1.000  O
  O21      1.0000 0.38870  0.36640  0.88710  Biso   1.000  O
  O22      1.0000 0.22640  0.39860  0.94330  Biso   1.000  O
  O23      1.0000 0.63360  0.02230  0.22043  Biso   1.000  O
  O24      1.0000 0.60140  0.82780  0.27663  Biso   1.000  O
  O25      1.0000 0.91100  0.82200  0.58333  Biso   1.000  O
  O26      1.0000 0.91100  0.08900  0.25000  Biso   1.000  O
  O27      1.0000 0.17800  0.08900  0.91667  Biso   1.000  O
  O28      1.0000 0.08900  0.17800  0.08333  Biso   1.000  O
  O29      1.0000 0.08900  0.91100  0.75000  Biso   1.000  O
  O30      1.0000 0.82200  0.91100  0.41667  Biso   1.000  O
