data_image0
_cell_length_a       13.997
_cell_length_b       20.103
_cell_length_c       17.46
_cell_angle_alpha    90
_cell_angle_beta     100.201
_cell_angle_gamma    90

_symmetry_space_group_name_H-M    "P 1"
_symmetry_int_tables_number       1

loop_
  _symmetry_equiv_pos_as_xyz
  'x, y, z'

loop_
  _atom_site_label
  _atom_site_occupancy
  _atom_site_fract_x
  _atom_site_fract_y
  _atom_site_fract_z
  _atom_site_thermal_displace_type
  _atom_site_B_iso_or_equiv
  _atom_site_type_symbol
  Cd1      1.0000 0.13709  0.42065  0.92745  Biso   1.000  Cd
  O1       1.0000 0.97100  0.44320  0.89250  Biso   1.000  O
  H1       1.0000 0.95600  0.48000  0.91500  Biso   1.000  H
  H2       1.0000 0.95900  0.44800  0.84170  Biso   1.000  H
  N1       1.0000 0.13340  0.32980  0.84410  Biso   1.000  N
  N2       1.0000 0.80280  0.08100  0.47920  Biso   1.000  N
  C1       1.0000 0.11730  0.33860  0.76700  Biso   1.000  C
  H3       1.0000 0.10930  0.38280  0.74750  Biso   1.000  H
  C2       1.0000 0.11170  0.28720  0.71470  Biso   1.000  C
  H4       1.0000 0.10050  0.29610  0.66040  Biso   1.000  H
  C3       1.0000 0.12240  0.22340  0.74070  Biso   1.000  C
  C4       1.0000 0.13900  0.21290  0.82080  Biso   1.000  C
  H5       1.0000 0.14670  0.16910  0.84130  Biso   1.000  H
  C5       1.0000 0.14420  0.26660  0.87000  Biso   1.000  C
  H6       1.0000 0.15600  0.25890  0.92450  Biso   1.000  H
  C6       1.0000 0.11050  0.15030  0.69220  Biso   1.000  C
  H7       1.0000 0.16110  0.11800  0.71500  Biso   1.000  H
  H8       1.0000 0.04560  0.13050  0.69110  Biso   1.000  H
  C7       1.0000 0.12280  0.17030  0.62020  Biso   1.000  C
  H9       1.0000 0.18870  0.18810  0.61960  Biso   1.000  H
  H10      1.0000 0.07310  0.20290  0.59650  Biso   1.000  H
  C8       1.0000 0.10490  0.09090  0.57800  Biso   1.000  C
  H11      1.0000 0.14300  0.08640  0.53520  Biso   1.000  H
  H12      1.0000 0.12660  0.05620  0.61700  Biso   1.000  H
  C9       1.0000 0.83730  0.04840  0.54280  Biso   1.000  C
  H13      1.0000 0.79280  0.02290  0.56580  Biso   1.000  H
  C10      1.0000 0.92980  0.04800  0.57800  Biso   1.000  C
  H14      1.0000 0.94890  0.02400  0.62500  Biso   1.000  H
  C11      1.0000 0.99760  0.08280  0.54550  Biso   1.000  C
  C12      1.0000 0.96510  0.11680  0.47900  Biso   1.000  C
  H15      1.0000 0.01000  0.14140  0.45560  Biso   1.000  H
  C13      1.0000 0.86380  0.11680  0.44370  Biso   1.000  C
  H16      1.0000 0.84120  0.14090  0.39730  Biso   1.000  H
  O2       1.0000 0.11250  0.33540  0.02520  Biso   1.000  O
  O3       1.0000 0.11320  0.44160  0.05350  Biso   1.000  O
  O4       1.0000 0.12640  0.17090  0.23540  Biso   1.000  O
  H17      1.0000 0.15130  0.13550  0.25530  Biso   1.000  H
  O5       1.0000 0.13940  0.20400  0.35820  Biso   1.000  O
  O6       1.0000 0.16570  0.51480  0.32270  Biso   1.000  O
  O7       1.0000 0.12930  0.45190  0.41430  Biso   1.000  O
  C14      1.0000 0.11680  0.36510  0.15800  Biso   1.000  C
  C15      1.0000 0.12430  0.41640  0.21150  Biso   1.000  C
  H18      1.0000 0.12440  0.46120  0.19420  Biso   1.000  H
  C16      1.0000 0.13170  0.40300  0.28960  Biso   1.000  C
  C17      1.0000 0.12920  0.33790  0.31390  Biso   1.000  C
  H19      1.0000 0.13160  0.32880  0.36760  Biso   1.000  H
  C18      1.0000 0.12320  0.28510  0.26160  Biso   1.000  C
  C19      1.0000 0.11700  0.30140  0.18110  Biso   1.000  C
  H20      1.0000 0.11290  0.26670  0.14360  Biso   1.000  H
  C20      1.0000 0.11230  0.38110  0.07240  Biso   1.000  C
  C21      1.0000 0.12800  0.21590  0.28970  Biso   1.000  C
  C22      1.0000 0.14270  0.45920  0.34580  Biso   1.000  C
  Cd2      1.0000 0.63709  0.92065  0.92745  Biso   1.000  Cd
  O8       1.0000 0.47100  0.94320  0.89250  Biso   1.000  O
  H21      1.0000 0.45600  0.98000  0.91500  Biso   1.000  H
  H22      1.0000 0.45900  0.94800  0.84170  Biso   1.000  H
  N3       1.0000 0.63340  0.82980  0.84410  Biso   1.000  N
  N4       1.0000 0.30280  0.58100  0.47920  Biso   1.000  N
  C23      1.0000 0.61730  0.83860  0.76700  Biso   1.000  C
  H23      1.0000 0.60930  0.88280  0.74750  Biso   1.000  H
  C24      1.0000 0.61170  0.78720  0.71470  Biso   1.000  C
  H24      1.0000 0.60050  0.79610  0.66040  Biso   1.000  H
  C25      1.0000 0.62240  0.72340  0.74070  Biso   1.000  C
  C26      1.0000 0.63900  0.71290  0.82080  Biso   1.000  C
  H25      1.0000 0.64670  0.66910  0.84130  Biso   1.000  H
  C27      1.0000 0.64420  0.76660  0.87000  Biso   1.000  C
  H26      1.0000 0.65600  0.75890  0.92450  Biso   1.000  H
  C28      1.0000 0.61050  0.65030  0.69220  Biso   1.000  C
  H27      1.0000 0.66110  0.61800  0.71500  Biso   1.000  H
  H28      1.0000 0.54560  0.63050  0.69110  Biso   1.000  H
  C29      1.0000 0.62280  0.67030  0.62020  Biso   1.000  C
  H29      1.0000 0.68870  0.68810  0.61960  Biso   1.000  H
  H30      1.0000 0.57310  0.70290  0.59650  Biso   1.000  H
  C30      1.0000 0.60490  0.59090  0.57800  Biso   1.000  C
  H31      1.0000 0.64300  0.58640  0.53520  Biso   1.000  H
  H32      1.0000 0.62660  0.55620  0.61700  Biso   1.000  H
  C31      1.0000 0.33730  0.54840  0.54280  Biso   1.000  C
  H33      1.0000 0.29280  0.52290  0.56580  Biso   1.000  H
  C32      1.0000 0.42980  0.54800  0.57800  Biso   1.000  C
  H34      1.0000 0.44890  0.52400  0.62500  Biso   1.000  H
  C33      1.0000 0.49760  0.58280  0.54550  Biso   1.000  C
  C34      1.0000 0.46510  0.61680  0.47900  Biso   1.000  C
  H35      1.0000 0.51000  0.64140  0.45560  Biso   1.000  H
  C35      1.0000 0.36380  0.61680  0.44370  Biso   1.000  C
  H36      1.0000 0.34120  0.64090  0.39730  Biso   1.000  H
  O9       1.0000 0.61250  0.83540  0.02520  Biso   1.000  O
  O10      1.0000 0.61320  0.94160  0.05350  Biso   1.000  O
  O11      1.0000 0.62640  0.67090  0.23540  Biso   1.000  O
  H37      1.0000 0.65130  0.63550  0.25530  Biso   1.000  H
  O12      1.0000 0.63940  0.70400  0.35820  Biso   1.000  O
  O13      1.0000 0.66570  0.01480  0.32270  Biso   1.000  O
  O14      1.0000 0.62930  0.95190  0.41430  Biso   1.000  O
  C36      1.0000 0.61680  0.86510  0.15800  Biso   1.000  C
  C37      1.0000 0.62430  0.91640  0.21150  Biso   1.000  C
  H38      1.0000 0.62440  0.96120  0.19420  Biso   1.000  H
  C38      1.0000 0.63170  0.90300  0.28960  Biso   1.000  C
  C39      1.0000 0.62920  0.83790  0.31390  Biso   1.000  C
  H39      1.0000 0.63160  0.82880  0.36760  Biso   1.000  H
  C40      1.0000 0.62320  0.78510  0.26160  Biso   1.000  C
  C41      1.0000 0.61700  0.80140  0.18110  Biso   1.000  C
  H40      1.0000 0.61290  0.76670  0.14360  Biso   1.000  H
  C42      1.0000 0.61230  0.88110  0.07240  Biso   1.000  C
  C43      1.0000 0.62800  0.71590  0.28970  Biso   1.000  C
  C44      1.0000 0.64270  0.95920  0.34580  Biso   1.000  C
  Cd3      1.0000 0.13709  0.57935  0.42745  Biso   1.000  Cd
  O15      1.0000 0.97100  0.55680  0.39250  Biso   1.000  O
  H41      1.0000 0.95600  0.52000  0.41500  Biso   1.000  H
  H42      1.0000 0.95900  0.55200  0.34170  Biso   1.000  H
  N5       1.0000 0.13340  0.67020  0.34410  Biso   1.000  N
  N6       1.0000 0.80280  0.91900  0.97920  Biso   1.000  N
  C45      1.0000 0.11730  0.66140  0.26700  Biso   1.000  C
  H43      1.0000 0.10930  0.61720  0.24750  Biso   1.000  H
  C46      1.0000 0.11170  0.71280  0.21470  Biso   1.000  C
  H44      1.0000 0.10050  0.70390  0.16040  Biso   1.000  H
  C47      1.0000 0.12240  0.77660  0.24070  Biso   1.000  C
  C48      1.0000 0.13900  0.78710  0.32080  Biso   1.000  C
  H45      1.0000 0.14670  0.83090  0.34130  Biso   1.000  H
  C49      1.0000 0.14420  0.73340  0.37000  Biso   1.000  C
  H46      1.0000 0.15600  0.74110  0.42450  Biso   1.000  H
  C50      1.0000 0.11050  0.84970  0.19220  Biso   1.000  C
  H47      1.0000 0.16110  0.88200  0.21500  Biso   1.000  H
  H48      1.0000 0.04560  0.86950  0.19110  Biso   1.000  H
  C51      1.0000 0.12280  0.82970  0.12020  Biso   1.000  C
  H49      1.0000 0.18870  0.81190  0.11960  Biso   1.000  H
  H50      1.0000 0.07310  0.79710  0.09650  Biso   1.000  H
  C52      1.0000 0.10490  0.90910  0.07800  Biso   1.000  C
  H51      1.0000 0.14300  0.91360  0.03520  Biso   1.000  H
  H52      1.0000 0.12660  0.94380  0.11700  Biso   1.000  H
  C53      1.0000 0.83730  0.95160  0.04280  Biso   1.000  C
  H53      1.0000 0.79280  0.97710  0.06580  Biso   1.000  H
  C54      1.0000 0.92980  0.95200  0.07800  Biso   1.000  C
  H54      1.0000 0.94890  0.97600  0.12500  Biso   1.000  H
  C55      1.0000 0.99760  0.91720  0.04550  Biso   1.000  C
  C56      1.0000 0.96510  0.88320  0.97900  Biso   1.000  C
  H55      1.0000 0.01000  0.85860  0.95560  Biso   1.000  H
  C57      1.0000 0.86380  0.88320  0.94370  Biso   1.000  C
  H56      1.0000 0.84120  0.85910  0.89730  Biso   1.000  H
  O16      1.0000 0.11250  0.66460  0.52520  Biso   1.000  O
  O17      1.0000 0.11320  0.55840  0.55350  Biso   1.000  O
  O18      1.0000 0.12640  0.82910  0.73540  Biso   1.000  O
  H57      1.0000 0.15130  0.86450  0.75530  Biso   1.000  H
  O19      1.0000 0.13940  0.79600  0.85820  Biso   1.000  O
  O20      1.0000 0.16570  0.48520  0.82270  Biso   1.000  O
  O21      1.0000 0.12930  0.54810  0.91430  Biso   1.000  O
  C58      1.0000 0.11680  0.63490  0.65800  Biso   1.000  C
  C59      1.0000 0.12430  0.58360  0.71150  Biso   1.000  C
  H58      1.0000 0.12440  0.53880  0.69420  Biso   1.000  H
  C60      1.0000 0.13170  0.59700  0.78960  Biso   1.000  C
  C61      1.0000 0.12920  0.66210  0.81390  Biso   1.000  C
  H59      1.0000 0.13160  0.67120  0.86760  Biso   1.000  H
  C62      1.0000 0.12320  0.71490  0.76160  Biso   1.000  C
  C63      1.0000 0.11700  0.69860  0.68110  Biso   1.000  C
  H60      1.0000 0.11290  0.73330  0.64360  Biso   1.000  H
  C64      1.0000 0.11230  0.61890  0.57240  Biso   1.000  C
  C65      1.0000 0.12800  0.78410  0.78970  Biso   1.000  C
  C66      1.0000 0.14270  0.54080  0.84580  Biso   1.000  C
  Cd4      1.0000 0.63709  0.07935  0.42745  Biso   1.000  Cd
  O22      1.0000 0.47100  0.05680  0.39250  Biso   1.000  O
  H61      1.0000 0.45600  0.02000  0.41500  Biso   1.000  H
  H62      1.0000 0.45900  0.05200  0.34170  Biso   1.000  H
  N7       1.0000 0.63340  0.17020  0.34410  Biso   1.000  N
  N8       1.0000 0.30280  0.41900  0.97920  Biso   1.000  N
  C67      1.0000 0.61730  0.16140  0.26700  Biso   1.000  C
  H63      1.0000 0.60930  0.11720  0.24750  Biso   1.000  H
  C68      1.0000 0.61170  0.21280  0.21470  Biso   1.000  C
  H64      1.0000 0.60050  0.20390  0.16040  Biso   1.000  H
  C69      1.0000 0.62240  0.27660  0.24070  Biso   1.000  C
  C70      1.0000 0.63900  0.28710  0.32080  Biso   1.000  C
  H65      1.0000 0.64670  0.33090  0.34130  Biso   1.000  H
  C71      1.0000 0.64420  0.23340  0.37000  Biso   1.000  C
  H66      1.0000 0.65600  0.24110  0.42450  Biso   1.000  H
  C72      1.0000 0.61050  0.34970  0.19220  Biso   1.000  C
  H67      1.0000 0.66110  0.38200  0.21500  Biso   1.000  H
  H68      1.0000 0.54560  0.36950  0.19110  Biso   1.000  H
  C73      1.0000 0.62280  0.32970  0.12020  Biso   1.000  C
  H69      1.0000 0.68870  0.31190  0.11960  Biso   1.000  H
  H70      1.0000 0.57310  0.29710  0.09650  Biso   1.000  H
  C74      1.0000 0.60490  0.40910  0.07800  Biso   1.000  C
  H71      1.0000 0.64300  0.41360  0.03520  Biso   1.000  H
  H72      1.0000 0.62660  0.44380  0.11700  Biso   1.000  H
  C75      1.0000 0.33730  0.45160  0.04280  Biso   1.000  C
  H73      1.0000 0.29280  0.47710  0.06580  Biso   1.000  H
  C76      1.0000 0.42980  0.45200  0.07800  Biso   1.000  C
  H74      1.0000 0.44890  0.47600  0.12500  Biso   1.000  H
  C77      1.0000 0.49760  0.41720  0.04550  Biso   1.000  C
  C78      1.0000 0.46510  0.38320  0.97900  Biso   1.000  C
  H75      1.0000 0.51000  0.35860  0.95560  Biso   1.000  H
  C79      1.0000 0.36380  0.38320  0.94370  Biso   1.000  C
  H76      1.0000 0.34120  0.35910  0.89730  Biso   1.000  H
  O23      1.0000 0.61250  0.16460  0.52520  Biso   1.000  O
  O24      1.0000 0.61320  0.05840  0.55350  Biso   1.000  O
  O25      1.0000 0.62640  0.32910  0.73540  Biso   1.000  O
  H77      1.0000 0.65130  0.36450  0.75530  Biso   1.000  H
  O26      1.0000 0.63940  0.29600  0.85820  Biso   1.000  O
  O27      1.0000 0.66570  0.98520  0.82270  Biso   1.000  O
  O28      1.0000 0.62930  0.04810  0.91430  Biso   1.000  O
  C80      1.0000 0.61680  0.13490  0.65800  Biso   1.000  C
  C81      1.0000 0.62430  0.08360  0.71150  Biso   1.000  C
  H78      1.0000 0.62440  0.03880  0.69420  Biso   1.000  H
  C82      1.0000 0.63170  0.09700  0.78960  Biso   1.000  C
  C83      1.0000 0.62920  0.16210  0.81390  Biso   1.000  C
  H79      1.0000 0.63160  0.17120  0.86760  Biso   1.000  H
  C84      1.0000 0.62320  0.21490  0.76160  Biso   1.000  C
  C85      1.0000 0.61700  0.19860  0.68110  Biso   1.000  C
  H80      1.0000 0.61290  0.23330  0.64360  Biso   1.000  H
  C86      1.0000 0.61230  0.11890  0.57240  Biso   1.000  C
  C87      1.0000 0.62800  0.28410  0.78970  Biso   1.000  C
  C88      1.0000 0.64270  0.04080  0.84580  Biso   1.000  C
  Cd5      1.0000 0.86291  0.42065  0.57255  Biso   1.000  Cd
  O29      1.0000 0.02900  0.44320  0.60750  Biso   1.000  O
  H81      1.0000 0.04400  0.48000  0.58500  Biso   1.000  H
  H82      1.0000 0.04100  0.44800  0.65830  Biso   1.000  H
  N9       1.0000 0.86660  0.32980  0.65590  Biso   1.000  N
  N10      1.0000 0.19720  0.08100  0.02080  Biso   1.000  N
  C89      1.0000 0.88270  0.33860  0.73300  Biso   1.000  C
  H83      1.0000 0.89070  0.38280  0.75250  Biso   1.000  H
  C90      1.0000 0.88830  0.28720  0.78530  Biso   1.000  C
  H84      1.0000 0.89950  0.29610  0.83960  Biso   1.000  H
  C91      1.0000 0.87760  0.22340  0.75930  Biso   1.000  C
  C92      1.0000 0.86100  0.21290  0.67920  Biso   1.000  C
  H85      1.0000 0.85330  0.16910  0.65870  Biso   1.000  H
  C93      1.0000 0.85580  0.26660  0.63000  Biso   1.000  C
  H86      1.0000 0.84400  0.25890  0.57550  Biso   1.000  H
  C94      1.0000 0.88950  0.15030  0.80780  Biso   1.000  C
  H87      1.0000 0.83890  0.11800  0.78500  Biso   1.000  H
  H88      1.0000 0.95440  0.13050  0.80890  Biso   1.000  H
  C95      1.0000 0.87720  0.17030  0.87980  Biso   1.000  C
  H89      1.0000 0.81130  0.18810  0.88040  Biso   1.000  H
  H90      1.0000 0.92690  0.20290  0.90350  Biso   1.000  H
  C96      1.0000 0.89510  0.09090  0.92200  Biso   1.000  C
  H91      1.0000 0.85700  0.08640  0.96480  Biso   1.000  H
  H92      1.0000 0.87340  0.05620  0.88300  Biso   1.000  H
  C97      1.0000 0.16270  0.04840  0.95720  Biso   1.000  C
  H93      1.0000 0.20720  0.02290  0.93420  Biso   1.000  H
  C98      1.0000 0.07020  0.04800  0.92200  Biso   1.000  C
  H94      1.0000 0.05110  0.02400  0.87500  Biso   1.000  H
  C99      1.0000 0.00240  0.08280  0.95450  Biso   1.000  C
  C100     1.0000 0.03490  0.11680  0.02100  Biso   1.000  C
  H95      1.0000 0.99000  0.14140  0.04440  Biso   1.000  H
  C101     1.0000 0.13620  0.11680  0.05630  Biso   1.000  C
  H96      1.0000 0.15880  0.14090  0.10270  Biso   1.000  H
  O30      1.0000 0.88750  0.33540  0.47480  Biso   1.000  O
  O31      1.0000 0.88680  0.44160  0.44650  Biso   1.000  O
  O32      1.0000 0.87360  0.17090  0.26460  Biso   1.000  O
  H97      1.0000 0.84870  0.13550  0.24470  Biso   1.000  H
  O33      1.0000 0.86060  0.20400  0.14180  Biso   1.000  O
  O34      1.0000 0.83430  0.51480  0.17730  Biso   1.000  O
  O35      1.0000 0.87070  0.45190  0.08570  Biso   1.000  O
  C102     1.0000 0.88320  0.36510  0.34200  Biso   1.000  C
  C103     1.0000 0.87570  0.41640  0.28850  Biso   1.000  C
  H98      1.0000 0.87560  0.46120  0.30580  Biso   1.000  H
  C104     1.0000 0.86830  0.40300  0.21040  Biso   1.000  C
  C105     1.0000 0.87080  0.33790  0.18610  Biso   1.000  C
  H99      1.0000 0.86840  0.32880  0.13240  Biso   1.000  H
  C106     1.0000 0.87680  0.28510  0.23840  Biso   1.000  C
  C107     1.0000 0.88300  0.30140  0.31890  Biso   1.000  C
  H100     1.0000 0.88710  0.26670  0.35640  Biso   1.000  H
  C108     1.0000 0.88770  0.38110  0.42760  Biso   1.000  C
  C109     1.0000 0.87200  0.21590  0.21030  Biso   1.000  C
  C110     1.0000 0.85730  0.45920  0.15420  Biso   1.000  C
  Cd6      1.0000 0.36291  0.92065  0.57255  Biso   1.000  Cd
  O36      1.0000 0.52900  0.94320  0.60750  Biso   1.000  O
  H101     1.0000 0.54400  0.98000  0.58500  Biso   1.000  H
  H102     1.0000 0.54100  0.94800  0.65830  Biso   1.000  H
  N11      1.0000 0.36660  0.82980  0.65590  Biso   1.000  N
  N12      1.0000 0.69720  0.58100  0.02080  Biso   1.000  N
  C111     1.0000 0.38270  0.83860  0.73300  Biso   1.000  C
  H103     1.0000 0.39070  0.88280  0.75250  Biso   1.000  H
  C112     1.0000 0.38830  0.78720  0.78530  Biso   1.000  C
  H104     1.0000 0.39950  0.79610  0.83960  Biso   1.000  H
  C113     1.0000 0.37760  0.72340  0.75930  Biso   1.000  C
  C114     1.0000 0.36100  0.71290  0.67920  Biso   1.000  C
  H105     1.0000 0.35330  0.66910  0.65870  Biso   1.000  H
  C115     1.0000 0.35580  0.76660  0.63000  Biso   1.000  C
  H106     1.0000 0.34400  0.75890  0.57550  Biso   1.000  H
  C116     1.0000 0.38950  0.65030  0.80780  Biso   1.000  C
  H107     1.0000 0.33890  0.61800  0.78500  Biso   1.000  H
  H108     1.0000 0.45440  0.63050  0.80890  Biso   1.000  H
  C117     1.0000 0.37720  0.67030  0.87980  Biso   1.000  C
  H109     1.0000 0.31130  0.68810  0.88040  Biso   1.000  H
  H110     1.0000 0.42690  0.70290  0.90350  Biso   1.000  H
  C118     1.0000 0.39510  0.59090  0.92200  Biso   1.000  C
  H111     1.0000 0.35700  0.58640  0.96480  Biso   1.000  H
  H112     1.0000 0.37340  0.55620  0.88300  Biso   1.000  H
  C119     1.0000 0.66270  0.54840  0.95720  Biso   1.000  C
  H113     1.0000 0.70720  0.52290  0.93420  Biso   1.000  H
  C120     1.0000 0.57020  0.54800  0.92200  Biso   1.000  C
  H114     1.0000 0.55110  0.52400  0.87500  Biso   1.000  H
  C121     1.0000 0.50240  0.58280  0.95450  Biso   1.000  C
  C122     1.0000 0.53490  0.61680  0.02100  Biso   1.000  C
  H115     1.0000 0.49000  0.64140  0.04440  Biso   1.000  H
  C123     1.0000 0.63620  0.61680  0.05630  Biso   1.000  C
  H116     1.0000 0.65880  0.64090  0.10270  Biso   1.000  H
  O37      1.0000 0.38750  0.83540  0.47480  Biso   1.000  O
  O38      1.0000 0.38680  0.94160  0.44650  Biso   1.000  O
  O39      1.0000 0.37360  0.67090  0.26460  Biso   1.000  O
  H117     1.0000 0.34870  0.63550  0.24470  Biso   1.000  H
  O40      1.0000 0.36060  0.70400  0.14180  Biso   1.000  O
  O41      1.0000 0.33430  0.01480  0.17730  Biso   1.000  O
  O42      1.0000 0.37070  0.95190  0.08570  Biso   1.000  O
  C124     1.0000 0.38320  0.86510  0.34200  Biso   1.000  C
  C125     1.0000 0.37570  0.91640  0.28850  Biso   1.000  C
  H118     1.0000 0.37560  0.96120  0.30580  Biso   1.000  H
  C126     1.0000 0.36830  0.90300  0.21040  Biso   1.000  C
  C127     1.0000 0.37080  0.83790  0.18610  Biso   1.000  C
  H119     1.0000 0.36840  0.82880  0.13240  Biso   1.000  H
  C128     1.0000 0.37680  0.78510  0.23840  Biso   1.000  C
  C129     1.0000 0.38300  0.80140  0.31890  Biso   1.000  C
  H120     1.0000 0.38710  0.76670  0.35640  Biso   1.000  H
  C130     1.0000 0.38770  0.88110  0.42760  Biso   1.000  C
  C131     1.0000 0.37200  0.71590  0.21030  Biso   1.000  C
  C132     1.0000 0.35730  0.95920  0.15420  Biso   1.000  C
  Cd7      1.0000 0.86291  0.57935  0.07255  Biso   1.000  Cd
  O43      1.0000 0.02900  0.55680  0.10750  Biso   1.000  O
  H121     1.0000 0.04400  0.52000  0.08500  Biso   1.000  H
  H122     1.0000 0.04100  0.55200  0.15830  Biso   1.000  H
  N13      1.0000 0.86660  0.67020  0.15590  Biso   1.000  N
  N14      1.0000 0.19720  0.91900  0.52080  Biso   1.000  N
  C133     1.0000 0.88270  0.66140  0.23300  Biso   1.000  C
  H123     1.0000 0.89070  0.61720  0.25250  Biso   1.000  H
  C134     1.0000 0.88830  0.71280  0.28530  Biso   1.000  C
  H124     1.0000 0.89950  0.70390  0.33960  Biso   1.000  H
  C135     1.0000 0.87760  0.77660  0.25930  Biso   1.000  C
  C136     1.0000 0.86100  0.78710  0.17920  Biso   1.000  C
  H125     1.0000 0.85330  0.83090  0.15870  Biso   1.000  H
  C137     1.0000 0.85580  0.73340  0.13000  Biso   1.000  C
  H126     1.0000 0.84400  0.74110  0.07550  Biso   1.000  H
  C138     1.0000 0.88950  0.84970  0.30780  Biso   1.000  C
  H127     1.0000 0.83890  0.88200  0.28500  Biso   1.000  H
  H128     1.0000 0.95440  0.86950  0.30890  Biso   1.000  H
  C139     1.0000 0.87720  0.82970  0.37980  Biso   1.000  C
  H129     1.0000 0.81130  0.81190  0.38040  Biso   1.000  H
  H130     1.0000 0.92690  0.79710  0.40350  Biso   1.000  H
  C140     1.0000 0.89510  0.90910  0.42200  Biso   1.000  C
  H131     1.0000 0.85700  0.91360  0.46480  Biso   1.000  H
  H132     1.0000 0.87340  0.94380  0.38300  Biso   1.000  H
  C141     1.0000 0.16270  0.95160  0.45720  Biso   1.000  C
  H133     1.0000 0.20720  0.97710  0.43420  Biso   1.000  H
  C142     1.0000 0.07020  0.95200  0.42200  Biso   1.000  C
  H134     1.0000 0.05110  0.97600  0.37500  Biso   1.000  H
  C143     1.0000 0.00240  0.91720  0.45450  Biso   1.000  C
  C144     1.0000 0.03490  0.88320  0.52100  Biso   1.000  C
  H135     1.0000 0.99000  0.85860  0.54440  Biso   1.000  H
  C145     1.0000 0.13620  0.88320  0.55630  Biso   1.000  C
  H136     1.0000 0.15880  0.85910  0.60270  Biso   1.000  H
  O44      1.0000 0.88750  0.66460  0.97480  Biso   1.000  O
  O45      1.0000 0.88680  0.55840  0.94650  Biso   1.000  O
  O46      1.0000 0.87360  0.82910  0.76460  Biso   1.000  O
  H137     1.0000 0.84870  0.86450  0.74470  Biso   1.000  H
  O47      1.0000 0.86060  0.79600  0.64180  Biso   1.000  O
  O48      1.0000 0.83430  0.48520  0.67730  Biso   1.000  O
  O49      1.0000 0.87070  0.54810  0.58570  Biso   1.000  O
  C146     1.0000 0.88320  0.63490  0.84200  Biso   1.000  C
  C147     1.0000 0.87570  0.58360  0.78850  Biso   1.000  C
  H138     1.0000 0.87560  0.53880  0.80580  Biso   1.000  H
  C148     1.0000 0.86830  0.59700  0.71040  Biso   1.000  C
  C149     1.0000 0.87080  0.66210  0.68610  Biso   1.000  C
  H139     1.0000 0.86840  0.67120  0.63240  Biso   1.000  H
  C150     1.0000 0.87680  0.71490  0.73840  Biso   1.000  C
  C151     1.0000 0.88300  0.69860  0.81890  Biso   1.000  C
  H140     1.0000 0.88710  0.73330  0.85640  Biso   1.000  H
  C152     1.0000 0.88770  0.61890  0.92760  Biso   1.000  C
  C153     1.0000 0.87200  0.78410  0.71030  Biso   1.000  C
  C154     1.0000 0.85730  0.54080  0.65420  Biso   1.000  C
  Cd8      1.0000 0.36291  0.07935  0.07255  Biso   1.000  Cd
  O50      1.0000 0.52900  0.05680  0.10750  Biso   1.000  O
  H141     1.0000 0.54400  0.02000  0.08500  Biso   1.000  H
  H142     1.0000 0.54100  0.05200  0.15830  Biso   1.000  H
  N15      1.0000 0.36660  0.17020  0.15590  Biso   1.000  N
  N16      1.0000 0.69720  0.41900  0.52080  Biso   1.000  N
  C155     1.0000 0.38270  0.16140  0.23300  Biso   1.000  C
  H143     1.0000 0.39070  0.11720  0.25250  Biso   1.000  H
  C156     1.0000 0.38830  0.21280  0.28530  Biso   1.000  C
  H144     1.0000 0.39950  0.20390  0.33960  Biso   1.000  H
  C157     1.0000 0.37760  0.27660  0.25930  Biso   1.000  C
  C158     1.0000 0.36100  0.28710  0.17920  Biso   1.000  C
  H145     1.0000 0.35330  0.33090  0.15870  Biso   1.000  H
  C159     1.0000 0.35580  0.23340  0.13000  Biso   1.000  C
  H146     1.0000 0.34400  0.24110  0.07550  Biso   1.000  H
  C160     1.0000 0.38950  0.34970  0.30780  Biso   1.000  C
  H147     1.0000 0.33890  0.38200  0.28500  Biso   1.000  H
  H148     1.0000 0.45440  0.36950  0.30890  Biso   1.000  H
  C161     1.0000 0.37720  0.32970  0.37980  Biso   1.000  C
  H149     1.0000 0.31130  0.31190  0.38040  Biso   1.000  H
  H150     1.0000 0.42690  0.29710  0.40350  Biso   1.000  H
  C162     1.0000 0.39510  0.40910  0.42200  Biso   1.000  C
  H151     1.0000 0.35700  0.41360  0.46480  Biso   1.000  H
  H152     1.0000 0.37340  0.44380  0.38300  Biso   1.000  H
  C163     1.0000 0.66270  0.45160  0.45720  Biso   1.000  C
  H153     1.0000 0.70720  0.47710  0.43420  Biso   1.000  H
  C164     1.0000 0.57020  0.45200  0.42200  Biso   1.000  C
  H154     1.0000 0.55110  0.47600  0.37500  Biso   1.000  H
  C165     1.0000 0.50240  0.41720  0.45450  Biso   1.000  C
  C166     1.0000 0.53490  0.38320  0.52100  Biso   1.000  C
  H155     1.0000 0.49000  0.35860  0.54440  Biso   1.000  H
  C167     1.0000 0.63620  0.38320  0.55630  Biso   1.000  C
  H156     1.0000 0.65880  0.35910  0.60270  Biso   1.000  H
  O51      1.0000 0.38750  0.16460  0.97480  Biso   1.000  O
  O52      1.0000 0.38680  0.05840  0.94650  Biso   1.000  O
  O53      1.0000 0.37360  0.32910  0.76460  Biso   1.000  O
  H157     1.0000 0.34870  0.36450  0.74470  Biso   1.000  H
  O54      1.0000 0.36060  0.29600  0.64180  Biso   1.000  O
  O55      1.0000 0.33430  0.98520  0.67730  Biso   1.000  O
  O56      1.0000 0.37070  0.04810  0.58570  Biso   1.000  O
  C168     1.0000 0.38320  0.13490  0.84200  Biso   1.000  C
  C169     1.0000 0.37570  0.08360  0.78850  Biso   1.000  C
  H158     1.0000 0.37560  0.03880  0.80580  Biso   1.000  H
  C170     1.0000 0.36830  0.09700  0.71040  Biso   1.000  C
  C171     1.0000 0.37080  0.16210  0.68610  Biso   1.000  C
  H159     1.0000 0.36840  0.17120  0.63240  Biso   1.000  H
  C172     1.0000 0.37680  0.21490  0.73840  Biso   1.000  C
  C173     1.0000 0.38300  0.19860  0.81890  Biso   1.000  C
  H160     1.0000 0.38710  0.23330  0.85640  Biso   1.000  H
  C174     1.0000 0.38770  0.11890  0.92760  Biso   1.000  C
  C175     1.0000 0.37200  0.28410  0.71030  Biso   1.000  C
  C176     1.0000 0.35730  0.04080  0.65420  Biso   1.000  C
