data_image0
_cell_length_a       7.314
_cell_length_b       12.758
_cell_length_c       15.332
_cell_angle_alpha    90
_cell_angle_beta     90
_cell_angle_gamma    94.5

_symmetry_space_group_name_H-M    P 1
_symmetry_int_tables_number       1

loop_
  _symmetry_equiv_pos_as_xyz
  'x, y, z'

loop_
  _atom_site_label
  _atom_site_occupancy
  _atom_site_fract_x
  _atom_site_fract_y
  _atom_site_fract_z
  _atom_site_thermal_displace_type
  _atom_site_B_iso_or_equiv
  _atom_site_type_symbol
  Cu1      1.0000 0.73207  0.35771  0.87975  Biso   1.000  Cu
  Cu2      1.0000 0.26793  0.14229  0.37975  Biso   1.000  Cu
  Cu3      1.0000 0.26793  0.64229  0.12025  Biso   1.000  Cu
  Cu4      1.0000 0.73207  0.85771  0.62025  Biso   1.000  Cu
  H1       1.0000 0.91420  0.40500  0.58330  Biso   1.000  H
  H2       1.0000 0.83900  0.42310  0.48940  Biso   1.000  H
  H3       1.0000 0.74550  0.59020  0.58250  Biso   1.000  H
  H4       1.0000 0.75490  0.53860  0.67510  Biso   1.000  H
  H5       1.0000 0.56710  0.57130  0.63890  Biso   1.000  H
  H6       1.0000 0.08580  0.09500  0.08330  Biso   1.000  H
  H7       1.0000 0.16100  0.07690  0.98940  Biso   1.000  H
  H8       1.0000 0.25450  0.90980  0.08250  Biso   1.000  H
  H9       1.0000 0.24510  0.96140  0.17510  Biso   1.000  H
  H10      1.0000 0.43290  0.92870  0.13890  Biso   1.000  H
  H11      1.0000 0.08580  0.59500  0.41670  Biso   1.000  H
  H12      1.0000 0.16100  0.57690  0.51060  Biso   1.000  H
  H13      1.0000 0.25450  0.40980  0.41750  Biso   1.000  H
  H14      1.0000 0.24510  0.46140  0.32490  Biso   1.000  H
  H15      1.0000 0.43290  0.42870  0.36110  Biso   1.000  H
  H16      1.0000 0.91420  0.90500  0.91670  Biso   1.000  H
  H17      1.0000 0.83900  0.92310  0.01060  Biso   1.000  H
  H18      1.0000 0.74550  0.09020  0.91750  Biso   1.000  H
  H19      1.0000 0.75490  0.03860  0.82490  Biso   1.000  H
  H20      1.0000 0.56710  0.07130  0.86110  Biso   1.000  H
  C1       1.0000 0.76850  0.20970  0.61630  Biso   1.000  C
  C2       1.0000 0.78290  0.26970  0.53110  Biso   1.000  C
  C3       1.0000 0.75950  0.26020  0.69590  Biso   1.000  C
  C4       1.0000 0.75630  0.10130  0.61550  Biso   1.000  C
  C5       1.0000 0.61920  0.23890  0.47680  Biso   1.000  C
  C6       1.0000 0.94240  0.23520  0.48220  Biso   1.000  C
  C7       1.0000 0.81000  0.38970  0.54500  Biso   1.000  C
  C8       1.0000 0.64510  0.43730  0.58360  Biso   1.000  C
  C9       1.0000 0.68140  0.54390  0.62360  Biso   1.000  C
  C10      1.0000 0.23150  0.29030  0.11630  Biso   1.000  C
  C11      1.0000 0.21710  0.23030  0.03110  Biso   1.000  C
  C12      1.0000 0.24050  0.23980  0.19590  Biso   1.000  C
  C13      1.0000 0.24370  0.39870  0.11550  Biso   1.000  C
  C14      1.0000 0.38080  0.26110  0.97680  Biso   1.000  C
  C15      1.0000 0.05760  0.26480  0.98220  Biso   1.000  C
  C16      1.0000 0.19000  0.11030  0.04500  Biso   1.000  C
  C17      1.0000 0.35490  0.06270  0.08360  Biso   1.000  C
  C18      1.0000 0.31860  0.95610  0.12360  Biso   1.000  C
  C19      1.0000 0.23150  0.79030  0.38370  Biso   1.000  C
  C20      1.0000 0.21710  0.73030  0.46890  Biso   1.000  C
  C21      1.0000 0.24050  0.73980  0.30410  Biso   1.000  C
  C22      1.0000 0.24370  0.89870  0.38450  Biso   1.000  C
  C23      1.0000 0.38080  0.76110  0.52320  Biso   1.000  C
  C24      1.0000 0.05760  0.76480  0.51780  Biso   1.000  C
  C25      1.0000 0.19000  0.61030  0.45500  Biso   1.000  C
  C26      1.0000 0.35490  0.56270  0.41640  Biso   1.000  C
  C27      1.0000 0.31860  0.45610  0.37640  Biso   1.000  C
  C28      1.0000 0.76850  0.70970  0.88370  Biso   1.000  C
  C29      1.0000 0.78290  0.76970  0.96890  Biso   1.000  C
  C30      1.0000 0.75950  0.76020  0.80410  Biso   1.000  C
  C31      1.0000 0.75630  0.60130  0.88450  Biso   1.000  C
  C32      1.0000 0.61920  0.73890  0.02320  Biso   1.000  C
  C33      1.0000 0.94240  0.73520  0.01780  Biso   1.000  C
  C34      1.0000 0.81000  0.88970  0.95500  Biso   1.000  C
  C35      1.0000 0.64510  0.93730  0.91640  Biso   1.000  C
  C36      1.0000 0.68140  0.04390  0.87640  Biso   1.000  C
  N1       1.0000 0.75090  0.30150  0.76200  Biso   1.000  N
  N2       1.0000 0.74930  0.00990  0.61420  Biso   1.000  N
  N3       1.0000 0.49860  0.20500  0.43630  Biso   1.000  N
  N4       1.0000 0.06510  0.20410  0.44910  Biso   1.000  N
  N5       1.0000 0.24910  0.19850  0.26200  Biso   1.000  N
  N6       1.0000 0.25070  0.49010  0.11420  Biso   1.000  N
  N7       1.0000 0.50140  0.29500  0.93630  Biso   1.000  N
  N8       1.0000 0.93490  0.29590  0.94910  Biso   1.000  N
  N9       1.0000 0.24910  0.69850  0.23800  Biso   1.000  N
  N10      1.0000 0.25070  0.99010  0.38580  Biso   1.000  N
  N11      1.0000 0.50140  0.79500  0.56370  Biso   1.000  N
  N12      1.0000 0.93490  0.79590  0.55090  Biso   1.000  N
  N13      1.0000 0.75090  0.80150  0.73800  Biso   1.000  N
  N14      1.0000 0.74930  0.50990  0.88580  Biso   1.000  N
  N15      1.0000 0.49860  0.70500  0.06370  Biso   1.000  N
  N16      1.0000 0.06510  0.70410  0.05090  Biso   1.000  N
  O1       1.0000 0.49580  0.39160  0.58070  Biso   1.000  O
  O2       1.0000 0.50420  0.10840  0.08070  Biso   1.000  O
  O3       1.0000 0.50420  0.60840  0.41930  Biso   1.000  O
  O4       1.0000 0.49580  0.89160  0.91930  Biso   1.000  O
