data_image0
_cell_length_a       8.7734
_cell_length_b       15.507
_cell_length_c       17.264
_cell_angle_alpha    90
_cell_angle_beta     90
_cell_angle_gamma    93.94

_symmetry_space_group_name_H-M    P 1
_symmetry_int_tables_number       1

loop_
  _symmetry_equiv_pos_as_xyz
  'x, y, z'

loop_
  _atom_site_label
  _atom_site_occupancy
  _atom_site_fract_x
  _atom_site_fract_y
  _atom_site_fract_z
  _atom_site_thermal_displace_type
  _atom_site_B_iso_or_equiv
  _atom_site_type_symbol
  V1       1.0000 0.94123  0.33416  0.98200  Biso   1.000  V
  V2       1.0000 0.05877  0.16584  0.48200  Biso   1.000  V
  V3       1.0000 0.05877  0.66584  0.01800  Biso   1.000  V
  V4       1.0000 0.94123  0.83416  0.51800  Biso   1.000  V
  Co1      1.0000 0.80822  0.63445  0.76042  Biso   1.000  Co
  Co2      1.0000 0.19178  0.86555  0.26042  Biso   1.000  Co
  Co3      1.0000 0.19178  0.36555  0.23958  Biso   1.000  Co
  Co4      1.0000 0.80822  0.13445  0.73958  Biso   1.000  Co
  P1       1.0000 0.94376  0.51020  0.89318  Biso   1.000  P
  P2       1.0000 0.05624  0.98980  0.39318  Biso   1.000  P
  P3       1.0000 0.05624  0.48980  0.10682  Biso   1.000  P
  P4       1.0000 0.94376  0.01020  0.60682  Biso   1.000  P
  H1       1.0000 0.76540  0.52100  0.99480  Biso   1.000  H
  H2       1.0000 0.67950  0.52280  0.91280  Biso   1.000  H
  H3       1.0000 0.68700  0.40510  0.83300  Biso   1.000  H
  H4       1.0000 0.55100  0.35120  0.87670  Biso   1.000  H
  H5       1.0000 0.50290  0.37470  0.99200  Biso   1.000  H
  H6       1.0000 0.61470  0.42750  0.05110  Biso   1.000  H
  H7       1.0000 0.46330  0.61310  0.80780  Biso   1.000  H
  H8       1.0000 0.25910  0.51010  0.80470  Biso   1.000  H
  H9       1.0000 0.51360  0.36240  0.66840  Biso   1.000  H
  H10      1.0000 0.70930  0.47010  0.67590  Biso   1.000  H
  H11      1.0000 0.87120  0.32610  0.70960  Biso   1.000  H
  H12      1.0000 0.06350  0.43530  0.71850  Biso   1.000  H
  H13      1.0000 0.36400  0.25150  0.75040  Biso   1.000  H
  H14      1.0000 0.16090  0.14790  0.74640  Biso   1.000  H
  H15      1.0000 0.96200  0.57400  0.63400  Biso   1.000  H
  H16      1.0000 0.88100  0.64500  0.62500  Biso   1.000  H
  H17      1.0000 0.79100  0.69800  0.90200  Biso   1.000  H
  H18      1.0000 0.64300  0.69900  0.87800  Biso   1.000  H
  H19      1.0000 0.23460  0.97900  0.49480  Biso   1.000  H
  H20      1.0000 0.32050  0.97720  0.41280  Biso   1.000  H
  H21      1.0000 0.31300  0.09490  0.33300  Biso   1.000  H
  H22      1.0000 0.44900  0.14880  0.37670  Biso   1.000  H
  H23      1.0000 0.49710  0.12530  0.49200  Biso   1.000  H
  H24      1.0000 0.38530  0.07250  0.55110  Biso   1.000  H
  H25      1.0000 0.53670  0.88690  0.30780  Biso   1.000  H
  H26      1.0000 0.74090  0.98990  0.30470  Biso   1.000  H
  H27      1.0000 0.48640  0.13760  0.16840  Biso   1.000  H
  H28      1.0000 0.29070  0.02990  0.17590  Biso   1.000  H
  H29      1.0000 0.12880  0.17390  0.20960  Biso   1.000  H
  H30      1.0000 0.93650  0.06470  0.21850  Biso   1.000  H
  H31      1.0000 0.63600  0.24850  0.25040  Biso   1.000  H
  H32      1.0000 0.83910  0.35210  0.24640  Biso   1.000  H
  H33      1.0000 0.03800  0.92600  0.13400  Biso   1.000  H
  H34      1.0000 0.11900  0.85500  0.12500  Biso   1.000  H
  H35      1.0000 0.20900  0.80200  0.40200  Biso   1.000  H
  H36      1.0000 0.35700  0.80100  0.37800  Biso   1.000  H
  H37      1.0000 0.23460  0.47900  0.00520  Biso   1.000  H
  H38      1.0000 0.32050  0.47720  0.08720  Biso   1.000  H
  H39      1.0000 0.31300  0.59490  0.16700  Biso   1.000  H
  H40      1.0000 0.44900  0.64880  0.12330  Biso   1.000  H
  H41      1.0000 0.49710  0.62530  0.00800  Biso   1.000  H
  H42      1.0000 0.38530  0.57250  0.94890  Biso   1.000  H
  H43      1.0000 0.53670  0.38690  0.19220  Biso   1.000  H
  H44      1.0000 0.74090  0.48990  0.19530  Biso   1.000  H
  H45      1.0000 0.48640  0.63760  0.33160  Biso   1.000  H
  H46      1.0000 0.29070  0.52990  0.32410  Biso   1.000  H
  H47      1.0000 0.12880  0.67390  0.29040  Biso   1.000  H
  H48      1.0000 0.93650  0.56470  0.28150  Biso   1.000  H
  H49      1.0000 0.63600  0.74850  0.24960  Biso   1.000  H
  H50      1.0000 0.83910  0.85210  0.25360  Biso   1.000  H
  H51      1.0000 0.03800  0.42600  0.36600  Biso   1.000  H
  H52      1.0000 0.11900  0.35500  0.37500  Biso   1.000  H
  H53      1.0000 0.20900  0.30200  0.09800  Biso   1.000  H
  H54      1.0000 0.35700  0.30100  0.12200  Biso   1.000  H
  H55      1.0000 0.76540  0.02100  0.50520  Biso   1.000  H
  H56      1.0000 0.67950  0.02280  0.58720  Biso   1.000  H
  H57      1.0000 0.68700  0.90510  0.66700  Biso   1.000  H
  H58      1.0000 0.55100  0.85120  0.62330  Biso   1.000  H
  H59      1.0000 0.50290  0.87470  0.50800  Biso   1.000  H
  H60      1.0000 0.61470  0.92750  0.44890  Biso   1.000  H
  H61      1.0000 0.46330  0.11310  0.69220  Biso   1.000  H
  H62      1.0000 0.25910  0.01010  0.69530  Biso   1.000  H
  H63      1.0000 0.51360  0.86240  0.83160  Biso   1.000  H
  H64      1.0000 0.70930  0.97010  0.82410  Biso   1.000  H
  H65      1.0000 0.87120  0.82610  0.79040  Biso   1.000  H
  H66      1.0000 0.06350  0.93530  0.78150  Biso   1.000  H
  H67      1.0000 0.36400  0.75150  0.74960  Biso   1.000  H
  H68      1.0000 0.16090  0.64790  0.75360  Biso   1.000  H
  H69      1.0000 0.96200  0.07400  0.86600  Biso   1.000  H
  H70      1.0000 0.88100  0.14500  0.87500  Biso   1.000  H
  H71      1.0000 0.79100  0.19800  0.59800  Biso   1.000  H
  H72      1.0000 0.64300  0.19900  0.62200  Biso   1.000  H
  C1       1.0000 0.75860  0.49450  0.94260  Biso   1.000  C
  C2       1.0000 0.66340  0.36240  0.87470  Biso   1.000  C
  C3       1.0000 0.73480  0.27890  0.85440  Biso   1.000  C
  C4       1.0000 0.60820  0.37990  0.01280  Biso   1.000  C
  C5       1.0000 0.64190  0.29570  0.05310  Biso   1.000  C
  C6       1.0000 0.47380  0.56100  0.77990  Biso   1.000  C
  C7       1.0000 0.35100  0.50000  0.77810  Biso   1.000  C
  C8       1.0000 0.36390  0.42370  0.73700  Biso   1.000  C
  C9       1.0000 0.50070  0.41310  0.69800  Biso   1.000  C
  C10      1.0000 0.61710  0.47770  0.70310  Biso   1.000  C
  C11      1.0000 0.97260  0.31110  0.71910  Biso   1.000  C
  C12      1.0000 0.08670  0.37650  0.72320  Biso   1.000  C
  C13      1.0000 0.23630  0.35500  0.73420  Biso   1.000  C
  C14      1.0000 0.26300  0.26840  0.74270  Biso   1.000  C
  C15      1.0000 0.14150  0.20700  0.73980  Biso   1.000  C
  C16      1.0000 0.24140  0.00550  0.44260  Biso   1.000  C
  C17      1.0000 0.33660  0.13760  0.37470  Biso   1.000  C
  C18      1.0000 0.26520  0.22110  0.35440  Biso   1.000  C
  C19      1.0000 0.39180  0.12010  0.51280  Biso   1.000  C
  C20      1.0000 0.35810  0.20430  0.55310  Biso   1.000  C
  C21      1.0000 0.52620  0.93900  0.27990  Biso   1.000  C
  C22      1.0000 0.64900  0.00000  0.27810  Biso   1.000  C
  C23      1.0000 0.63610  0.07630  0.23700  Biso   1.000  C
  C24      1.0000 0.49930  0.08690  0.19800  Biso   1.000  C
  C25      1.0000 0.38290  0.02230  0.20310  Biso   1.000  C
  C26      1.0000 0.02740  0.18890  0.21910  Biso   1.000  C
  C27      1.0000 0.91330  0.12350  0.22320  Biso   1.000  C
  C28      1.0000 0.76370  0.14500  0.23420  Biso   1.000  C
  C29      1.0000 0.73700  0.23160  0.24270  Biso   1.000  C
  C30      1.0000 0.85850  0.29300  0.23980  Biso   1.000  C
  C31      1.0000 0.24140  0.50550  0.05740  Biso   1.000  C
  C32      1.0000 0.33660  0.63760  0.12530  Biso   1.000  C
  C33      1.0000 0.26520  0.72110  0.14560  Biso   1.000  C
  C34      1.0000 0.39180  0.62010  0.98720  Biso   1.000  C
  C35      1.0000 0.35810  0.70430  0.94690  Biso   1.000  C
  C36      1.0000 0.52620  0.43900  0.22010  Biso   1.000  C
  C37      1.0000 0.64900  0.50000  0.22190  Biso   1.000  C
  C38      1.0000 0.63610  0.57630  0.26300  Biso   1.000  C
  C39      1.0000 0.49930  0.58690  0.30200  Biso   1.000  C
  C40      1.0000 0.38290  0.52230  0.29690  Biso   1.000  C
  C41      1.0000 0.02740  0.68890  0.28090  Biso   1.000  C
  C42      1.0000 0.91330  0.62350  0.27680  Biso   1.000  C
  C43      1.0000 0.76370  0.64500  0.26580  Biso   1.000  C
  C44      1.0000 0.73700  0.73160  0.25730  Biso   1.000  C
  C45      1.0000 0.85850  0.79300  0.26020  Biso   1.000  C
  C46      1.0000 0.75860  0.99450  0.55740  Biso   1.000  C
  C47      1.0000 0.66340  0.86240  0.62530  Biso   1.000  C
  C48      1.0000 0.73480  0.77890  0.64560  Biso   1.000  C
  C49      1.0000 0.60820  0.87990  0.48720  Biso   1.000  C
  C50      1.0000 0.64190  0.79570  0.44690  Biso   1.000  C
  C51      1.0000 0.47380  0.06100  0.72010  Biso   1.000  C
  C52      1.0000 0.35100  0.00000  0.72190  Biso   1.000  C
  C53      1.0000 0.36390  0.92370  0.76300  Biso   1.000  C
  C54      1.0000 0.50070  0.91310  0.80200  Biso   1.000  C
  C55      1.0000 0.61710  0.97770  0.79690  Biso   1.000  C
  C56      1.0000 0.97260  0.81110  0.78090  Biso   1.000  C
  C57      1.0000 0.08670  0.87650  0.77680  Biso   1.000  C
  C58      1.0000 0.23630  0.85500  0.76580  Biso   1.000  C
  C59      1.0000 0.26300  0.76840  0.75730  Biso   1.000  C
  C60      1.0000 0.14150  0.70700  0.76020  Biso   1.000  C
  N1       1.0000 0.71630  0.40046  0.94939  Biso   1.000  N
  N2       1.0000 0.60710  0.55025  0.74423  Biso   1.000  N
  N3       1.0000 0.99720  0.22727  0.72802  Biso   1.000  N
  N4       1.0000 0.28370  0.09954  0.44939  Biso   1.000  N
  N5       1.0000 0.39290  0.94975  0.24423  Biso   1.000  N
  N6       1.0000 0.00280  0.27273  0.22802  Biso   1.000  N
  N7       1.0000 0.28370  0.59954  0.05061  Biso   1.000  N
  N8       1.0000 0.39290  0.44975  0.25577  Biso   1.000  N
  N9       1.0000 0.00280  0.77273  0.27198  Biso   1.000  N
  N10      1.0000 0.71630  0.90046  0.55061  Biso   1.000  N
  N11      1.0000 0.60710  0.05025  0.75577  Biso   1.000  N
  N12      1.0000 0.99720  0.72727  0.77198  Biso   1.000  N
  O1       1.0000 0.91820  0.53310  0.80932  Biso   1.000  O
  O2       1.0000 0.04210  0.58096  0.93448  Biso   1.000  O
  O3       1.0000 0.01290  0.42274  0.90311  Biso   1.000  O
  O4       1.0000 0.85100  0.26053  0.89396  Biso   1.000  O
  O5       1.0000 0.68250  0.23443  0.79931  Biso   1.000  O
  O6       1.0000 0.77580  0.26937  0.04514  Biso   1.000  O
  O7       1.0000 0.53970  0.25840  0.09281  Biso   1.000  O
  O8       1.0000 0.08640  0.27855  0.99865  Biso   1.000  O
  O9       1.0000 0.88410  0.59770  0.64956  Biso   1.000  O
  O10      1.0000 0.73030  0.68341  0.86745  Biso   1.000  O
  O11      1.0000 0.08180  0.96690  0.30932  Biso   1.000  O
  O12      1.0000 0.95790  0.91904  0.43448  Biso   1.000  O
  O13      1.0000 0.98710  0.07726  0.40311  Biso   1.000  O
  O14      1.0000 0.14900  0.23947  0.39396  Biso   1.000  O
  O15      1.0000 0.31750  0.26557  0.29931  Biso   1.000  O
  O16      1.0000 0.22420  0.23063  0.54514  Biso   1.000  O
  O17      1.0000 0.46030  0.24160  0.59281  Biso   1.000  O
  O18      1.0000 0.91360  0.22145  0.49865  Biso   1.000  O
  O19      1.0000 0.11590  0.90230  0.14956  Biso   1.000  O
  O20      1.0000 0.26970  0.81659  0.36745  Biso   1.000  O
  O21      1.0000 0.08180  0.46690  0.19068  Biso   1.000  O
  O22      1.0000 0.95790  0.41904  0.06552  Biso   1.000  O
  O23      1.0000 0.98710  0.57726  0.09689  Biso   1.000  O
  O24      1.0000 0.14900  0.73947  0.10604  Biso   1.000  O
  O25      1.0000 0.31750  0.76557  0.20069  Biso   1.000  O
  O26      1.0000 0.22420  0.73063  0.95486  Biso   1.000  O
  O27      1.0000 0.46030  0.74160  0.90719  Biso   1.000  O
  O28      1.0000 0.91360  0.72145  0.00135  Biso   1.000  O
  O29      1.0000 0.11590  0.40230  0.35044  Biso   1.000  O
  O30      1.0000 0.26970  0.31659  0.13255  Biso   1.000  O
  O31      1.0000 0.91820  0.03310  0.69068  Biso   1.000  O
  O32      1.0000 0.04210  0.08096  0.56552  Biso   1.000  O
  O33      1.0000 0.01290  0.92274  0.59689  Biso   1.000  O
  O34      1.0000 0.85100  0.76053  0.60604  Biso   1.000  O
  O35      1.0000 0.68250  0.73443  0.70069  Biso   1.000  O
  O36      1.0000 0.77580  0.76937  0.45486  Biso   1.000  O
  O37      1.0000 0.53970  0.75840  0.40719  Biso   1.000  O
  O38      1.0000 0.08640  0.77855  0.50135  Biso   1.000  O
  O39      1.0000 0.88410  0.09770  0.85044  Biso   1.000  O
  O40      1.0000 0.73030  0.18341  0.63255  Biso   1.000  O
