data_image0
_cell_length_a       6.9247
_cell_length_b       20.6271
_cell_length_c       26.0974
_cell_angle_alpha    90
_cell_angle_beta     90
_cell_angle_gamma    90

_symmetry_space_group_name_H-M    P 1
_symmetry_int_tables_number       1

loop_
  _symmetry_equiv_pos_as_xyz
  'x, y, z'

loop_
  _atom_site_label
  _atom_site_occupancy
  _atom_site_fract_x
  _atom_site_fract_y
  _atom_site_fract_z
  _atom_site_thermal_displace_type
  _atom_site_B_iso_or_equiv
  _atom_site_type_symbol
  Co1      1.0000 0.76286  0.97811  0.63501  Biso   1.000  Co
  Co2      1.0000 0.99705  0.49263  0.75020  Biso   1.000  Co
  Co3      1.0000 0.23714  0.52189  0.13501  Biso   1.000  Co
  Co4      1.0000 0.00295  0.00737  0.25020  Biso   1.000  Co
  Co5      1.0000 0.26286  0.02189  0.86499  Biso   1.000  Co
  Co6      1.0000 0.49705  0.50737  0.74980  Biso   1.000  Co
  Co7      1.0000 0.73714  0.47811  0.36499  Biso   1.000  Co
  Co8      1.0000 0.50295  0.99263  0.24980  Biso   1.000  Co
  Co9      1.0000 0.23714  0.02189  0.36499  Biso   1.000  Co
  Co10     1.0000 0.00295  0.50737  0.24980  Biso   1.000  Co
  Co11     1.0000 0.76286  0.47811  0.86499  Biso   1.000  Co
  Co12     1.0000 0.99705  0.99263  0.74980  Biso   1.000  Co
  Co13     1.0000 0.73714  0.97811  0.13501  Biso   1.000  Co
  Co14     1.0000 0.50295  0.49263  0.25020  Biso   1.000  Co
  Co15     1.0000 0.26286  0.52189  0.63501  Biso   1.000  Co
  Co16     1.0000 0.49705  0.00737  0.75020  Biso   1.000  Co
  H1       1.0000 0.73080  0.92870  0.71420  Biso   1.000  H
  H2       1.0000 0.79700  0.86090  0.65460  Biso   1.000  H
  H3       1.0000 0.66600  0.86020  0.61830  Biso   1.000  H
  H4       1.0000 0.36430  0.90150  0.52840  Biso   1.000  H
  H5       1.0000 0.35520  0.92300  0.44220  Biso   1.000  H
  H6       1.0000 0.13770  0.09460  0.46570  Biso   1.000  H
  H7       1.0000 0.13630  0.07760  0.55290  Biso   1.000  H
  H8       1.0000 0.93440  0.21330  0.73790  Biso   1.000  H
  H9       1.0000 0.89870  0.16570  0.58890  Biso   1.000  H
  H10      1.0000 0.94100  0.35320  0.63060  Biso   1.000  H
  H11      1.0000 0.26920  0.57130  0.21420  Biso   1.000  H
  H12      1.0000 0.20300  0.63910  0.15460  Biso   1.000  H
  H13      1.0000 0.33400  0.63980  0.11830  Biso   1.000  H
  H14      1.0000 0.63570  0.59850  0.02840  Biso   1.000  H
  H15      1.0000 0.64480  0.57700  0.94220  Biso   1.000  H
  H16      1.0000 0.86230  0.40540  0.96570  Biso   1.000  H
  H17      1.0000 0.86370  0.42240  0.05290  Biso   1.000  H
  H18      1.0000 0.06560  0.28670  0.23790  Biso   1.000  H
  H19      1.0000 0.10130  0.33430  0.08890  Biso   1.000  H
  H20      1.0000 0.05900  0.14680  0.13060  Biso   1.000  H
  H21      1.0000 0.23080  0.07130  0.78580  Biso   1.000  H
  H22      1.0000 0.29700  0.13910  0.84540  Biso   1.000  H
  H23      1.0000 0.16600  0.13980  0.88170  Biso   1.000  H
  H24      1.0000 0.86430  0.09850  0.97160  Biso   1.000  H
  H25      1.0000 0.85520  0.07700  0.05780  Biso   1.000  H
  H26      1.0000 0.63770  0.90540  0.03430  Biso   1.000  H
  H27      1.0000 0.63630  0.92240  0.94710  Biso   1.000  H
  H28      1.0000 0.43440  0.78670  0.76210  Biso   1.000  H
  H29      1.0000 0.39870  0.83430  0.91110  Biso   1.000  H
  H30      1.0000 0.44100  0.64680  0.86940  Biso   1.000  H
  H31      1.0000 0.76920  0.42870  0.28580  Biso   1.000  H
  H32      1.0000 0.70300  0.36090  0.34540  Biso   1.000  H
  H33      1.0000 0.83400  0.36020  0.38170  Biso   1.000  H
  H34      1.0000 0.13570  0.40150  0.47160  Biso   1.000  H
  H35      1.0000 0.14480  0.42300  0.55780  Biso   1.000  H
  H36      1.0000 0.36230  0.59460  0.53430  Biso   1.000  H
  H37      1.0000 0.36370  0.57760  0.44710  Biso   1.000  H
  H38      1.0000 0.56560  0.71330  0.26210  Biso   1.000  H
  H39      1.0000 0.60130  0.66570  0.41110  Biso   1.000  H
  H40      1.0000 0.55900  0.85320  0.36940  Biso   1.000  H
  H41      1.0000 0.26920  0.07130  0.28580  Biso   1.000  H
  H42      1.0000 0.20300  0.13910  0.34540  Biso   1.000  H
  H43      1.0000 0.33400  0.13980  0.38170  Biso   1.000  H
  H44      1.0000 0.63570  0.09850  0.47160  Biso   1.000  H
  H45      1.0000 0.64480  0.07700  0.55780  Biso   1.000  H
  H46      1.0000 0.86230  0.90540  0.53430  Biso   1.000  H
  H47      1.0000 0.86370  0.92240  0.44710  Biso   1.000  H
  H48      1.0000 0.06560  0.78670  0.26210  Biso   1.000  H
  H49      1.0000 0.10130  0.83430  0.41110  Biso   1.000  H
  H50      1.0000 0.05900  0.64680  0.36940  Biso   1.000  H
  H51      1.0000 0.73080  0.42870  0.78580  Biso   1.000  H
  H52      1.0000 0.79700  0.36090  0.84540  Biso   1.000  H
  H53      1.0000 0.66600  0.36020  0.88170  Biso   1.000  H
  H54      1.0000 0.36430  0.40150  0.97160  Biso   1.000  H
  H55      1.0000 0.35520  0.42300  0.05780  Biso   1.000  H
  H56      1.0000 0.13770  0.59460  0.03430  Biso   1.000  H
  H57      1.0000 0.13630  0.57760  0.94710  Biso   1.000  H
  H58      1.0000 0.93440  0.71330  0.76210  Biso   1.000  H
  H59      1.0000 0.89870  0.66570  0.91110  Biso   1.000  H
  H60      1.0000 0.94100  0.85320  0.86940  Biso   1.000  H
  H61      1.0000 0.76920  0.92870  0.21420  Biso   1.000  H
  H62      1.0000 0.70300  0.86090  0.15460  Biso   1.000  H
  H63      1.0000 0.83400  0.86020  0.11830  Biso   1.000  H
  H64      1.0000 0.13570  0.90150  0.02840  Biso   1.000  H
  H65      1.0000 0.14480  0.92300  0.94220  Biso   1.000  H
  H66      1.0000 0.36230  0.09460  0.96570  Biso   1.000  H
  H67      1.0000 0.36370  0.07760  0.05290  Biso   1.000  H
  H68      1.0000 0.56560  0.21330  0.23790  Biso   1.000  H
  H69      1.0000 0.60130  0.16570  0.08890  Biso   1.000  H
  H70      1.0000 0.55900  0.35320  0.13060  Biso   1.000  H
  H71      1.0000 0.23080  0.57130  0.71420  Biso   1.000  H
  H72      1.0000 0.29700  0.63910  0.65460  Biso   1.000  H
  H73      1.0000 0.16600  0.63980  0.61830  Biso   1.000  H
  H74      1.0000 0.86430  0.59850  0.52840  Biso   1.000  H
  H75      1.0000 0.85520  0.57700  0.44220  Biso   1.000  H
  H76      1.0000 0.63770  0.40540  0.46570  Biso   1.000  H
  H77      1.0000 0.63630  0.42240  0.55290  Biso   1.000  H
  H78      1.0000 0.43440  0.28670  0.73790  Biso   1.000  H
  H79      1.0000 0.39870  0.33430  0.58890  Biso   1.000  H
  H80      1.0000 0.44100  0.14680  0.63060  Biso   1.000  H
  C1       1.0000 0.25440  0.97813  0.60698  Biso   1.000  C
  C2       1.0000 0.25090  0.98759  0.55071  Biso   1.000  C
  C3       1.0000 0.31700  0.94097  0.51663  Biso   1.000  C
  C4       1.0000 0.31120  0.95444  0.46486  Biso   1.000  C
  C5       1.0000 0.18280  0.05532  0.47854  Biso   1.000  C
  C6       1.0000 0.18230  0.04556  0.53104  Biso   1.000  C
  C7       1.0000 0.93400  0.29113  0.69100  Biso   1.000  C
  C8       1.0000 0.92790  0.22567  0.70365  Biso   1.000  C
  C9       1.0000 0.91220  0.17821  0.66570  Biso   1.000  C
  C10      1.0000 0.90930  0.19659  0.61468  Biso   1.000  C
  C11      1.0000 0.92250  0.26176  0.60283  Biso   1.000  C
  C12      1.0000 0.93380  0.30972  0.63976  Biso   1.000  C
  C13      1.0000 0.94250  0.34369  0.73230  Biso   1.000  C
  C14      1.0000 0.89600  0.10697  0.67756  Biso   1.000  C
  C15      1.0000 0.74560  0.52187  0.10698  Biso   1.000  C
  C16      1.0000 0.74910  0.51241  0.05071  Biso   1.000  C
  C17      1.0000 0.68300  0.55903  0.01663  Biso   1.000  C
  C18      1.0000 0.68880  0.54556  0.96486  Biso   1.000  C
  C19      1.0000 0.81720  0.44468  0.97854  Biso   1.000  C
  C20      1.0000 0.81770  0.45444  0.03104  Biso   1.000  C
  C21      1.0000 0.06600  0.20887  0.19100  Biso   1.000  C
  C22      1.0000 0.07210  0.27433  0.20365  Biso   1.000  C
  C23      1.0000 0.08780  0.32179  0.16570  Biso   1.000  C
  C24      1.0000 0.09070  0.30341  0.11468  Biso   1.000  C
  C25      1.0000 0.07750  0.23824  0.10283  Biso   1.000  C
  C26      1.0000 0.06620  0.19028  0.13976  Biso   1.000  C
  C27      1.0000 0.05750  0.15631  0.23230  Biso   1.000  C
  C28      1.0000 0.10400  0.39303  0.17756  Biso   1.000  C
  C29      1.0000 0.75440  0.02187  0.89302  Biso   1.000  C
  C30      1.0000 0.75090  0.01241  0.94929  Biso   1.000  C
  C31      1.0000 0.81700  0.05903  0.98337  Biso   1.000  C
  C32      1.0000 0.81120  0.04556  0.03514  Biso   1.000  C
  C33      1.0000 0.68280  0.94468  0.02146  Biso   1.000  C
  C34      1.0000 0.68230  0.95444  0.96896  Biso   1.000  C
  C35      1.0000 0.43400  0.70887  0.80900  Biso   1.000  C
  C36      1.0000 0.42790  0.77433  0.79635  Biso   1.000  C
  C37      1.0000 0.41220  0.82179  0.83430  Biso   1.000  C
  C38      1.0000 0.40930  0.80341  0.88532  Biso   1.000  C
  C39      1.0000 0.42250  0.73824  0.89717  Biso   1.000  C
  C40      1.0000 0.43380  0.69028  0.86024  Biso   1.000  C
  C41      1.0000 0.44250  0.65631  0.76770  Biso   1.000  C
  C42      1.0000 0.39600  0.89303  0.82244  Biso   1.000  C
  C43      1.0000 0.24560  0.47813  0.39302  Biso   1.000  C
  C44      1.0000 0.24910  0.48759  0.44929  Biso   1.000  C
  C45      1.0000 0.18300  0.44097  0.48337  Biso   1.000  C
  C46      1.0000 0.18880  0.45444  0.53514  Biso   1.000  C
  C47      1.0000 0.31720  0.55532  0.52146  Biso   1.000  C
  C48      1.0000 0.31770  0.54556  0.46896  Biso   1.000  C
  C49      1.0000 0.56600  0.79113  0.30900  Biso   1.000  C
  C50      1.0000 0.57210  0.72567  0.29635  Biso   1.000  C
  C51      1.0000 0.58780  0.67821  0.33430  Biso   1.000  C
  C52      1.0000 0.59070  0.69659  0.38532  Biso   1.000  C
  C53      1.0000 0.57750  0.76176  0.39717  Biso   1.000  C
  C54      1.0000 0.56620  0.80972  0.36024  Biso   1.000  C
  C55      1.0000 0.55750  0.84369  0.26770  Biso   1.000  C
  C56      1.0000 0.60400  0.60697  0.32244  Biso   1.000  C
  C57      1.0000 0.74560  0.02187  0.39302  Biso   1.000  C
  C58      1.0000 0.74910  0.01241  0.44929  Biso   1.000  C
  C59      1.0000 0.68300  0.05903  0.48337  Biso   1.000  C
  C60      1.0000 0.68880  0.04556  0.53514  Biso   1.000  C
  C61      1.0000 0.81720  0.94468  0.52146  Biso   1.000  C
  C62      1.0000 0.81770  0.95444  0.46896  Biso   1.000  C
  C63      1.0000 0.06600  0.70887  0.30900  Biso   1.000  C
  C64      1.0000 0.07210  0.77433  0.29635  Biso   1.000  C
  C65      1.0000 0.08780  0.82179  0.33430  Biso   1.000  C
  C66      1.0000 0.09070  0.80341  0.38532  Biso   1.000  C
  C67      1.0000 0.07750  0.73824  0.39717  Biso   1.000  C
  C68      1.0000 0.06620  0.69028  0.36024  Biso   1.000  C
  C69      1.0000 0.05750  0.65631  0.26770  Biso   1.000  C
  C70      1.0000 0.10400  0.89303  0.32244  Biso   1.000  C
  C71      1.0000 0.25440  0.47813  0.89302  Biso   1.000  C
  C72      1.0000 0.25090  0.48759  0.94929  Biso   1.000  C
  C73      1.0000 0.31700  0.44097  0.98337  Biso   1.000  C
  C74      1.0000 0.31120  0.45444  0.03514  Biso   1.000  C
  C75      1.0000 0.18280  0.55532  0.02146  Biso   1.000  C
  C76      1.0000 0.18230  0.54556  0.96896  Biso   1.000  C
  C77      1.0000 0.93400  0.79113  0.80900  Biso   1.000  C
  C78      1.0000 0.92790  0.72567  0.79635  Biso   1.000  C
  C79      1.0000 0.91220  0.67821  0.83430  Biso   1.000  C
  C80      1.0000 0.90930  0.69659  0.88532  Biso   1.000  C
  C81      1.0000 0.92250  0.76176  0.89717  Biso   1.000  C
  C82      1.0000 0.93380  0.80972  0.86024  Biso   1.000  C
  C83      1.0000 0.94250  0.84369  0.76770  Biso   1.000  C
  C84      1.0000 0.89600  0.60697  0.82244  Biso   1.000  C
  C85      1.0000 0.24560  0.97813  0.10698  Biso   1.000  C
  C86      1.0000 0.24910  0.98759  0.05071  Biso   1.000  C
  C87      1.0000 0.18300  0.94097  0.01663  Biso   1.000  C
  C88      1.0000 0.18880  0.95444  0.96486  Biso   1.000  C
  C89      1.0000 0.31720  0.05532  0.97854  Biso   1.000  C
  C90      1.0000 0.31770  0.04556  0.03104  Biso   1.000  C
  C91      1.0000 0.56600  0.29113  0.19100  Biso   1.000  C
  C92      1.0000 0.57210  0.22567  0.20365  Biso   1.000  C
  C93      1.0000 0.58780  0.17821  0.16570  Biso   1.000  C
  C94      1.0000 0.59070  0.19659  0.11468  Biso   1.000  C
  C95      1.0000 0.57750  0.26176  0.10283  Biso   1.000  C
  C96      1.0000 0.56620  0.30972  0.13976  Biso   1.000  C
  C97      1.0000 0.55750  0.34369  0.23230  Biso   1.000  C
  C98      1.0000 0.60400  0.10697  0.17756  Biso   1.000  C
  C99      1.0000 0.75440  0.52187  0.60698  Biso   1.000  C
  C100     1.0000 0.75090  0.51241  0.55071  Biso   1.000  C
  C101     1.0000 0.81700  0.55903  0.51663  Biso   1.000  C
  C102     1.0000 0.81120  0.54556  0.46486  Biso   1.000  C
  C103     1.0000 0.68280  0.44468  0.47854  Biso   1.000  C
  C104     1.0000 0.68230  0.45444  0.53104  Biso   1.000  C
  C105     1.0000 0.43400  0.20887  0.69100  Biso   1.000  C
  C106     1.0000 0.42790  0.27433  0.70365  Biso   1.000  C
  C107     1.0000 0.41220  0.32179  0.66570  Biso   1.000  C
  C108     1.0000 0.40930  0.30341  0.61468  Biso   1.000  C
  C109     1.0000 0.42250  0.23824  0.60283  Biso   1.000  C
  C110     1.0000 0.43380  0.19028  0.63976  Biso   1.000  C
  C111     1.0000 0.44250  0.15631  0.73230  Biso   1.000  C
  C112     1.0000 0.39600  0.39303  0.67756  Biso   1.000  C
  N1       1.0000 0.09580  0.97145  0.63564  Biso   1.000  N
  N2       1.0000 0.16220  0.97069  0.68385  Biso   1.000  N
  N3       1.0000 0.35030  0.97663  0.68386  Biso   1.000  N
  N4       1.0000 0.41450  0.98087  0.63554  Biso   1.000  N
  N5       1.0000 0.24570  0.01038  0.44552  Biso   1.000  N
  N6       1.0000 0.92420  0.27914  0.54819  Biso   1.000  N
  N7       1.0000 0.90420  0.52855  0.13564  Biso   1.000  N
  N8       1.0000 0.83780  0.52931  0.18385  Biso   1.000  N
  N9       1.0000 0.64970  0.52337  0.18386  Biso   1.000  N
  N10      1.0000 0.58550  0.51913  0.13554  Biso   1.000  N
  N11      1.0000 0.75430  0.48962  0.94552  Biso   1.000  N
  N12      1.0000 0.07580  0.22086  0.04819  Biso   1.000  N
  N13      1.0000 0.59580  0.02855  0.86436  Biso   1.000  N
  N14      1.0000 0.66220  0.02931  0.81615  Biso   1.000  N
  N15      1.0000 0.85030  0.02337  0.81614  Biso   1.000  N
  N16      1.0000 0.91450  0.01913  0.86446  Biso   1.000  N
  N17      1.0000 0.74570  0.98962  0.05448  Biso   1.000  N
  N18      1.0000 0.42420  0.72086  0.95181  Biso   1.000  N
  N19      1.0000 0.40420  0.47145  0.36436  Biso   1.000  N
  N20      1.0000 0.33780  0.47069  0.31615  Biso   1.000  N
  N21      1.0000 0.14970  0.47663  0.31614  Biso   1.000  N
  N22      1.0000 0.08550  0.48087  0.36446  Biso   1.000  N
  N23      1.0000 0.25430  0.51038  0.55448  Biso   1.000  N
  N24      1.0000 0.57580  0.77914  0.45181  Biso   1.000  N
  N25      1.0000 0.90420  0.02855  0.36436  Biso   1.000  N
  N26      1.0000 0.83780  0.02931  0.31615  Biso   1.000  N
  N27      1.0000 0.64970  0.02337  0.31614  Biso   1.000  N
  N28      1.0000 0.58550  0.01913  0.36446  Biso   1.000  N
  N29      1.0000 0.75430  0.98962  0.55448  Biso   1.000  N
  N30      1.0000 0.07580  0.72086  0.45181  Biso   1.000  N
  N31      1.0000 0.09580  0.47145  0.86436  Biso   1.000  N
  N32      1.0000 0.16220  0.47069  0.81615  Biso   1.000  N
  N33      1.0000 0.35030  0.47663  0.81614  Biso   1.000  N
  N34      1.0000 0.41450  0.48087  0.86446  Biso   1.000  N
  N35      1.0000 0.24570  0.51038  0.05448  Biso   1.000  N
  N36      1.0000 0.92420  0.77914  0.95181  Biso   1.000  N
  N37      1.0000 0.40420  0.97145  0.13564  Biso   1.000  N
  N38      1.0000 0.33780  0.97069  0.18385  Biso   1.000  N
  N39      1.0000 0.14970  0.97663  0.18386  Biso   1.000  N
  N40      1.0000 0.08550  0.98087  0.13554  Biso   1.000  N
  N41      1.0000 0.25430  0.01038  0.94552  Biso   1.000  N
  N42      1.0000 0.57580  0.27914  0.04819  Biso   1.000  N
  N43      1.0000 0.59580  0.52855  0.63564  Biso   1.000  N
  N44      1.0000 0.66220  0.52931  0.68385  Biso   1.000  N
  N45      1.0000 0.85030  0.52337  0.68386  Biso   1.000  N
  N46      1.0000 0.91450  0.51913  0.63554  Biso   1.000  N
  N47      1.0000 0.74570  0.48962  0.44552  Biso   1.000  N
  N48      1.0000 0.42420  0.22086  0.54819  Biso   1.000  N
  O1       1.0000 0.89820  0.32770  0.77682  Biso   1.000  O
  O2       1.0000 0.98910  0.39888  0.71718  Biso   1.000  O
  O3       1.0000 0.96260  0.08745  0.71915  Biso   1.000  O
  O4       1.0000 0.81530  0.07403  0.64277  Biso   1.000  O
  O5       1.0000 0.93460  0.23631  0.51682  Biso   1.000  O
  O6       1.0000 0.92300  0.33538  0.53639  Biso   1.000  O
  O7       1.0000 0.74100  0.96971  0.71320  Biso   1.000  O
  O8       1.0000 0.75940  0.87757  0.62846  Biso   1.000  O
  O9       1.0000 0.10180  0.17230  0.27682  Biso   1.000  O
  O10      1.0000 0.01090  0.10112  0.21718  Biso   1.000  O
  O11      1.0000 0.03740  0.41255  0.21915  Biso   1.000  O
  O12      1.0000 0.18470  0.42597  0.14277  Biso   1.000  O
  O13      1.0000 0.06540  0.26369  0.01682  Biso   1.000  O
  O14      1.0000 0.07700  0.16462  0.03639  Biso   1.000  O
  O15      1.0000 0.25900  0.53029  0.21320  Biso   1.000  O
  O16      1.0000 0.24060  0.62243  0.12846  Biso   1.000  O
  O17      1.0000 0.39820  0.67230  0.72318  Biso   1.000  O
  O18      1.0000 0.48910  0.60112  0.78282  Biso   1.000  O
  O19      1.0000 0.46260  0.91255  0.78085  Biso   1.000  O
  O20      1.0000 0.31530  0.92597  0.85723  Biso   1.000  O
  O21      1.0000 0.43460  0.76369  0.98318  Biso   1.000  O
  O22      1.0000 0.42300  0.66462  0.96361  Biso   1.000  O
  O23      1.0000 0.24100  0.03029  0.78680  Biso   1.000  O
  O24      1.0000 0.25940  0.12243  0.87154  Biso   1.000  O
  O25      1.0000 0.60180  0.82770  0.22318  Biso   1.000  O
  O26      1.0000 0.51090  0.89888  0.28282  Biso   1.000  O
  O27      1.0000 0.53740  0.58745  0.28085  Biso   1.000  O
  O28      1.0000 0.68470  0.57403  0.35723  Biso   1.000  O
  O29      1.0000 0.56540  0.73631  0.48318  Biso   1.000  O
  O30      1.0000 0.57700  0.83538  0.46361  Biso   1.000  O
  O31      1.0000 0.75900  0.46971  0.28680  Biso   1.000  O
  O32      1.0000 0.74060  0.37757  0.37154  Biso   1.000  O
  O33      1.0000 0.10180  0.67230  0.22318  Biso   1.000  O
  O34      1.0000 0.01090  0.60112  0.28282  Biso   1.000  O
  O35      1.0000 0.03740  0.91255  0.28085  Biso   1.000  O
  O36      1.0000 0.18470  0.92597  0.35723  Biso   1.000  O
  O37      1.0000 0.06540  0.76369  0.48318  Biso   1.000  O
  O38      1.0000 0.07700  0.66462  0.46361  Biso   1.000  O
  O39      1.0000 0.25900  0.03029  0.28680  Biso   1.000  O
  O40      1.0000 0.24060  0.12243  0.37154  Biso   1.000  O
  O41      1.0000 0.89820  0.82770  0.72318  Biso   1.000  O
  O42      1.0000 0.98910  0.89888  0.78282  Biso   1.000  O
  O43      1.0000 0.96260  0.58745  0.78085  Biso   1.000  O
  O44      1.0000 0.81530  0.57403  0.85723  Biso   1.000  O
  O45      1.0000 0.93460  0.73631  0.98318  Biso   1.000  O
  O46      1.0000 0.92300  0.83538  0.96361  Biso   1.000  O
  O47      1.0000 0.74100  0.46971  0.78680  Biso   1.000  O
  O48      1.0000 0.75940  0.37757  0.87154  Biso   1.000  O
  O49      1.0000 0.60180  0.32770  0.27682  Biso   1.000  O
  O50      1.0000 0.51090  0.39888  0.21718  Biso   1.000  O
  O51      1.0000 0.53740  0.08745  0.21915  Biso   1.000  O
  O52      1.0000 0.68470  0.07403  0.14277  Biso   1.000  O
  O53      1.0000 0.56540  0.23631  0.01682  Biso   1.000  O
  O54      1.0000 0.57700  0.33538  0.03639  Biso   1.000  O
  O55      1.0000 0.75900  0.96971  0.21320  Biso   1.000  O
  O56      1.0000 0.74060  0.87757  0.12846  Biso   1.000  O
  O57      1.0000 0.39820  0.17230  0.77682  Biso   1.000  O
  O58      1.0000 0.48910  0.10112  0.71718  Biso   1.000  O
  O59      1.0000 0.46260  0.41255  0.71915  Biso   1.000  O
  O60      1.0000 0.31530  0.42597  0.64277  Biso   1.000  O
  O61      1.0000 0.43460  0.26369  0.51682  Biso   1.000  O
  O62      1.0000 0.42300  0.16462  0.53639  Biso   1.000  O
  O63      1.0000 0.24100  0.53029  0.71320  Biso   1.000  O
  O64      1.0000 0.25940  0.62243  0.62846  Biso   1.000  O
