data_image0
_cell_length_a       27.72
_cell_length_b       27.72
_cell_length_c       9.7135
_cell_angle_alpha    90
_cell_angle_beta     90
_cell_angle_gamma    120

_symmetry_space_group_name_H-M    "P 1"
_symmetry_int_tables_number       1

loop_
  _symmetry_equiv_pos_as_xyz
  'x, y, z'

loop_
  _atom_site_label
  _atom_site_occupancy
  _atom_site_fract_x
  _atom_site_fract_y
  _atom_site_fract_z
  _atom_site_thermal_displace_type
  _atom_site_B_iso_or_equiv
  _atom_site_type_symbol
  N1       1.0000 0.54532  0.01378  0.17500  Biso   1.000  N
  N2       1.0000 0.59619  0.05340  0.22050  Biso   1.000  N
  N3       1.0000 0.55461  0.98687  0.38550  Biso   1.000  N
  N4       1.0000 0.44402  0.92958  0.12820  Biso   1.000  N
  N5       1.0000 0.74893  0.12611  0.57650  Biso   1.000  N
  C1       1.0000 0.39180  0.88980  0.10230  Biso   1.000  C
  H1       1.0000 0.37690  0.88890  0.01590  Biso   1.000  H
  C2       1.0000 0.35910  0.85050  0.19700  Biso   1.000  C
  H2       1.0000 0.32260  0.82400  0.17570  Biso   1.000  H
  C3       1.0000 0.38110  0.85060  0.32460  Biso   1.000  C
  H3       1.0000 0.35970  0.82370  0.38970  Biso   1.000  H
  C4       1.0000 0.43430  0.89030  0.35440  Biso   1.000  C
  H4       1.0000 0.44960  0.89120  0.44020  Biso   1.000  H
  C5       1.0000 0.46560  0.92960  0.25450  Biso   1.000  C
  C6       1.0000 0.52190  0.97550  0.27450  Biso   1.000  C
  C7       1.0000 0.59930  0.03470  0.34640  Biso   1.000  C
  C8       1.0000 0.65019  0.06670  0.42940  Biso   1.000  C
  C9       1.0000 0.69150  0.11830  0.38780  Biso   1.000  C
  H5       1.0000 0.68710  0.13410  0.30780  Biso   1.000  H
  C10      1.0000 0.73910  0.14630  0.46350  Biso   1.000  C
  H6       1.0000 0.76610  0.18150  0.43410  Biso   1.000  H
  C11      1.0000 0.70860  0.07580  0.61640  Biso   1.000  C
  H7       1.0000 0.71430  0.06040  0.69550  Biso   1.000  H
  C12      1.0000 0.65930  0.04570  0.54710  Biso   1.000  C
  H8       1.0000 0.63220  0.01110  0.58010  Biso   1.000  H
  N6       1.0000 0.21199  0.34711  0.50833  Biso   1.000  N
  N7       1.0000 0.26286  0.38673  0.55383  Biso   1.000  N
  N8       1.0000 0.22128  0.32020  0.71883  Biso   1.000  N
  N9       1.0000 0.11069  0.26291  0.46153  Biso   1.000  N
  N10      1.0000 0.41560  0.45944  0.90983  Biso   1.000  N
  C13      1.0000 0.05847  0.22313  0.43563  Biso   1.000  C
  H9       1.0000 0.04357  0.22223  0.34923  Biso   1.000  H
  C14      1.0000 0.02577  0.18383  0.53033  Biso   1.000  C
  H10      1.0000 0.98927  0.15733  0.50903  Biso   1.000  H
  C15      1.0000 0.04777  0.18393  0.65793  Biso   1.000  C
  H11      1.0000 0.02637  0.15703  0.72303  Biso   1.000  H
  C16      1.0000 0.10097  0.22363  0.68773  Biso   1.000  C
  H12      1.0000 0.11627  0.22453  0.77353  Biso   1.000  H
  C17      1.0000 0.13227  0.26293  0.58783  Biso   1.000  C
  C18      1.0000 0.18857  0.30883  0.60783  Biso   1.000  C
  C19      1.0000 0.26597  0.36803  0.67973  Biso   1.000  C
  C20      1.0000 0.31686  0.40003  0.76273  Biso   1.000  C
  C21      1.0000 0.35817  0.45163  0.72113  Biso   1.000  C
  H13      1.0000 0.35377  0.46743  0.64113  Biso   1.000  H
  C22      1.0000 0.40577  0.47963  0.79683  Biso   1.000  C
  H14      1.0000 0.43277  0.51483  0.76743  Biso   1.000  H
  C23      1.0000 0.37527  0.40913  0.94973  Biso   1.000  C
  H15      1.0000 0.38097  0.39373  0.02883  Biso   1.000  H
  C24      1.0000 0.32597  0.37903  0.88043  Biso   1.000  C
  H16      1.0000 0.29887  0.34443  0.91343  Biso   1.000  H
  N11      1.0000 0.87865  0.68045  0.84167  Biso   1.000  N
  N12      1.0000 0.92952  0.72007  0.88717  Biso   1.000  N
  N13      1.0000 0.88794  0.65354  0.05217  Biso   1.000  N
  N14      1.0000 0.77735  0.59625  0.79487  Biso   1.000  N
  N15      1.0000 0.08226  0.79278  0.24317  Biso   1.000  N
  C25      1.0000 0.72513  0.55647  0.76897  Biso   1.000  C
  H17      1.0000 0.71023  0.55557  0.68257  Biso   1.000  H
  C26      1.0000 0.69243  0.51717  0.86367  Biso   1.000  C
  H18      1.0000 0.65593  0.49067  0.84237  Biso   1.000  H
  C27      1.0000 0.71443  0.51727  0.99127  Biso   1.000  C
  H19      1.0000 0.69303  0.49037  0.05637  Biso   1.000  H
  C28      1.0000 0.76763  0.55697  0.02107  Biso   1.000  C
  H20      1.0000 0.78293  0.55787  0.10687  Biso   1.000  H
  C29      1.0000 0.79893  0.59627  0.92117  Biso   1.000  C
  C30      1.0000 0.85523  0.64217  0.94117  Biso   1.000  C
  C31      1.0000 0.93263  0.70137  0.01307  Biso   1.000  C
  C32      1.0000 0.98352  0.73337  0.09607  Biso   1.000  C
  C33      1.0000 0.02483  0.78497  0.05447  Biso   1.000  C
  H21      1.0000 0.02043  0.80077  0.97447  Biso   1.000  H
  C34      1.0000 0.07243  0.81297  0.13017  Biso   1.000  C
  H22      1.0000 0.09943  0.84817  0.10077  Biso   1.000  H
  C35      1.0000 0.04193  0.74247  0.28307  Biso   1.000  C
  H23      1.0000 0.04763  0.72707  0.36217  Biso   1.000  H
  C36      1.0000 0.99263  0.71237  0.21377  Biso   1.000  C
  H24      1.0000 0.96553  0.67777  0.24677  Biso   1.000  H
  N16      1.0000 0.98622  0.53154  0.17500  Biso   1.000  N
  N17      1.0000 0.94660  0.54279  0.22050  Biso   1.000  N
  N18      1.0000 0.01313  0.56774  0.38550  Biso   1.000  N
  N19      1.0000 0.07042  0.51444  0.12820  Biso   1.000  N
  N20      1.0000 0.87389  0.62282  0.57650  Biso   1.000  N
  C37      1.0000 0.11020  0.50200  0.10230  Biso   1.000  C
  H25      1.0000 0.11110  0.48800  0.01590  Biso   1.000  H
  C38      1.0000 0.14950  0.50860  0.19700  Biso   1.000  C
  H26      1.0000 0.17600  0.49860  0.17570  Biso   1.000  H
  C39      1.0000 0.14940  0.53050  0.32460  Biso   1.000  C
  H27      1.0000 0.17630  0.53600  0.38970  Biso   1.000  H
  C40      1.0000 0.10970  0.54400  0.35440  Biso   1.000  C
  H28      1.0000 0.10880  0.55840  0.44020  Biso   1.000  H
  C41      1.0000 0.07040  0.53600  0.25450  Biso   1.000  C
  C42      1.0000 0.02450  0.54640  0.27450  Biso   1.000  C
  C43      1.0000 0.96530  0.56460  0.34640  Biso   1.000  C
  C44      1.0000 0.93330  0.58349  0.42940  Biso   1.000  C
  C45      1.0000 0.88170  0.57320  0.38780  Biso   1.000  C
  H29      1.0000 0.86590  0.55300  0.30780  Biso   1.000  H
  C46      1.0000 0.85370  0.59280  0.46350  Biso   1.000  C
  H30      1.0000 0.81850  0.58460  0.43410  Biso   1.000  H
  C47      1.0000 0.92420  0.63280  0.61640  Biso   1.000  C
  H31      1.0000 0.93960  0.65390  0.69550  Biso   1.000  H
  C48      1.0000 0.95430  0.61360  0.54710  Biso   1.000  C
  H32      1.0000 0.98890  0.62110  0.58010  Biso   1.000  H
  N21      1.0000 0.65289  0.86487  0.50833  Biso   1.000  N
  N22      1.0000 0.61327  0.87612  0.55383  Biso   1.000  N
  N23      1.0000 0.67980  0.90107  0.71883  Biso   1.000  N
  N24      1.0000 0.73709  0.84777  0.46153  Biso   1.000  N
  N25      1.0000 0.54056  0.95615  0.90983  Biso   1.000  N
  C49      1.0000 0.77687  0.83533  0.43563  Biso   1.000  C
  H33      1.0000 0.77777  0.82133  0.34923  Biso   1.000  H
  C50      1.0000 0.81617  0.84193  0.53033  Biso   1.000  C
  H34      1.0000 0.84267  0.83193  0.50903  Biso   1.000  H
  C51      1.0000 0.81607  0.86383  0.65793  Biso   1.000  C
  H35      1.0000 0.84297  0.86933  0.72303  Biso   1.000  H
  C52      1.0000 0.77637  0.87733  0.68773  Biso   1.000  C
  H36      1.0000 0.77547  0.89173  0.77353  Biso   1.000  H
  C53      1.0000 0.73707  0.86933  0.58783  Biso   1.000  C
  C54      1.0000 0.69117  0.87973  0.60783  Biso   1.000  C
  C55      1.0000 0.63197  0.89793  0.67973  Biso   1.000  C
  C56      1.0000 0.59997  0.91682  0.76273  Biso   1.000  C
  C57      1.0000 0.54837  0.90653  0.72113  Biso   1.000  C
  H37      1.0000 0.53257  0.88633  0.64113  Biso   1.000  H
  C58      1.0000 0.52037  0.92613  0.79683  Biso   1.000  C
  H38      1.0000 0.48517  0.91793  0.76743  Biso   1.000  H
  C59      1.0000 0.59087  0.96613  0.94973  Biso   1.000  C
  H39      1.0000 0.60627  0.98723  0.02883  Biso   1.000  H
  C60      1.0000 0.62097  0.94693  0.88043  Biso   1.000  C
  H40      1.0000 0.65557  0.95443  0.91343  Biso   1.000  H
  N26      1.0000 0.31955  0.19821  0.84167  Biso   1.000  N
  N27      1.0000 0.27993  0.20946  0.88717  Biso   1.000  N
  N28      1.0000 0.34646  0.23441  0.05217  Biso   1.000  N
  N29      1.0000 0.40375  0.18111  0.79487  Biso   1.000  N
  N30      1.0000 0.20722  0.28949  0.24317  Biso   1.000  N
  C61      1.0000 0.44353  0.16867  0.76897  Biso   1.000  C
  H41      1.0000 0.44443  0.15467  0.68257  Biso   1.000  H
  C62      1.0000 0.48283  0.17527  0.86367  Biso   1.000  C
  H42      1.0000 0.50933  0.16527  0.84237  Biso   1.000  H
  C63      1.0000 0.48273  0.19717  0.99127  Biso   1.000  C
  H43      1.0000 0.50963  0.20267  0.05637  Biso   1.000  H
  C64      1.0000 0.44303  0.21067  0.02107  Biso   1.000  C
  H44      1.0000 0.44213  0.22507  0.10687  Biso   1.000  H
  C65      1.0000 0.40373  0.20267  0.92117  Biso   1.000  C
  C66      1.0000 0.35783  0.21307  0.94117  Biso   1.000  C
  C67      1.0000 0.29863  0.23127  0.01307  Biso   1.000  C
  C68      1.0000 0.26663  0.25016  0.09607  Biso   1.000  C
  C69      1.0000 0.21503  0.23987  0.05447  Biso   1.000  C
  H45      1.0000 0.19923  0.21967  0.97447  Biso   1.000  H
  C70      1.0000 0.18703  0.25947  0.13017  Biso   1.000  C
  H46      1.0000 0.15183  0.25127  0.10077  Biso   1.000  H
  C71      1.0000 0.25753  0.29947  0.28307  Biso   1.000  C
  H47      1.0000 0.27293  0.32057  0.36217  Biso   1.000  H
  C72      1.0000 0.28763  0.28027  0.21377  Biso   1.000  C
  H48      1.0000 0.32223  0.28777  0.24677  Biso   1.000  H
  N31      1.0000 0.46846  0.45468  0.17500  Biso   1.000  N
  N32      1.0000 0.45721  0.40381  0.22050  Biso   1.000  N
  N33      1.0000 0.43226  0.44539  0.38550  Biso   1.000  N
  N34      1.0000 0.48556  0.55598  0.12820  Biso   1.000  N
  N35      1.0000 0.37718  0.25107  0.57650  Biso   1.000  N
  C73      1.0000 0.49800  0.60820  0.10230  Biso   1.000  C
  H49      1.0000 0.51200  0.62310  0.01590  Biso   1.000  H
  C74      1.0000 0.49140  0.64090  0.19700  Biso   1.000  C
  H50      1.0000 0.50140  0.67740  0.17570  Biso   1.000  H
  C75      1.0000 0.46950  0.61890  0.32460  Biso   1.000  C
  H51      1.0000 0.46400  0.64030  0.38970  Biso   1.000  H
  C76      1.0000 0.45600  0.56570  0.35440  Biso   1.000  C
  H52      1.0000 0.44160  0.55040  0.44020  Biso   1.000  H
  C77      1.0000 0.46400  0.53440  0.25450  Biso   1.000  C
  C78      1.0000 0.45360  0.47810  0.27450  Biso   1.000  C
  C79      1.0000 0.43540  0.40070  0.34640  Biso   1.000  C
  C80      1.0000 0.41651  0.34981  0.42940  Biso   1.000  C
  C81      1.0000 0.42680  0.30850  0.38780  Biso   1.000  C
  H53      1.0000 0.44700  0.31290  0.30780  Biso   1.000  H
  C82      1.0000 0.40720  0.26090  0.46350  Biso   1.000  C
  H54      1.0000 0.41540  0.23390  0.43410  Biso   1.000  H
  C83      1.0000 0.36720  0.29140  0.61640  Biso   1.000  C
  H55      1.0000 0.34610  0.28570  0.69550  Biso   1.000  H
  C84      1.0000 0.38640  0.34070  0.54710  Biso   1.000  C
  H56      1.0000 0.37890  0.36780  0.58010  Biso   1.000  H
  N36      1.0000 0.13513  0.78801  0.50833  Biso   1.000  N
  N37      1.0000 0.12388  0.73714  0.55383  Biso   1.000  N
  N38      1.0000 0.09893  0.77872  0.71883  Biso   1.000  N
  N39      1.0000 0.15223  0.88931  0.46153  Biso   1.000  N
  N40      1.0000 0.04385  0.58440  0.90983  Biso   1.000  N
  C85      1.0000 0.16467  0.94153  0.43563  Biso   1.000  C
  H57      1.0000 0.17867  0.95643  0.34923  Biso   1.000  H
  C86      1.0000 0.15807  0.97423  0.53033  Biso   1.000  C
  H58      1.0000 0.16807  0.01073  0.50903  Biso   1.000  H
  C87      1.0000 0.13617  0.95223  0.65793  Biso   1.000  C
  H59      1.0000 0.13067  0.97363  0.72303  Biso   1.000  H
  C88      1.0000 0.12267  0.89903  0.68773  Biso   1.000  C
  H60      1.0000 0.10827  0.88373  0.77353  Biso   1.000  H
  C89      1.0000 0.13067  0.86773  0.58783  Biso   1.000  C
  C90      1.0000 0.12027  0.81143  0.60783  Biso   1.000  C
  C91      1.0000 0.10207  0.73403  0.67973  Biso   1.000  C
  C92      1.0000 0.08318  0.68314  0.76273  Biso   1.000  C
  C93      1.0000 0.09347  0.64183  0.72113  Biso   1.000  C
  H61      1.0000 0.11367  0.64623  0.64113  Biso   1.000  H
  C94      1.0000 0.07387  0.59423  0.79683  Biso   1.000  C
  H62      1.0000 0.08207  0.56723  0.76743  Biso   1.000  H
  C95      1.0000 0.03387  0.62473  0.94973  Biso   1.000  C
  H63      1.0000 0.01277  0.61903  0.02883  Biso   1.000  H
  C96      1.0000 0.05307  0.67403  0.88043  Biso   1.000  C
  H64      1.0000 0.04557  0.70113  0.91343  Biso   1.000  H
  N41      1.0000 0.80179  0.12135  0.84167  Biso   1.000  N
  N42      1.0000 0.79054  0.07048  0.88717  Biso   1.000  N
  N43      1.0000 0.76559  0.11206  0.05217  Biso   1.000  N
  N44      1.0000 0.81889  0.22265  0.79487  Biso   1.000  N
  N45      1.0000 0.71051  0.91774  0.24317  Biso   1.000  N
  C97      1.0000 0.83133  0.27487  0.76897  Biso   1.000  C
  H65      1.0000 0.84533  0.28977  0.68257  Biso   1.000  H
  C98      1.0000 0.82473  0.30757  0.86367  Biso   1.000  C
  H66      1.0000 0.83473  0.34407  0.84237  Biso   1.000  H
  C99      1.0000 0.80283  0.28557  0.99127  Biso   1.000  C
  H67      1.0000 0.79733  0.30697  0.05637  Biso   1.000  H
  C100     1.0000 0.78933  0.23237  0.02107  Biso   1.000  C
  H68      1.0000 0.77493  0.21707  0.10687  Biso   1.000  H
  C101     1.0000 0.79733  0.20107  0.92117  Biso   1.000  C
  C102     1.0000 0.78693  0.14477  0.94117  Biso   1.000  C
  C103     1.0000 0.76873  0.06737  0.01307  Biso   1.000  C
  C104     1.0000 0.74984  0.01648  0.09607  Biso   1.000  C
  C105     1.0000 0.76013  0.97517  0.05447  Biso   1.000  C
  H69      1.0000 0.78033  0.97957  0.97447  Biso   1.000  H
  C106     1.0000 0.74053  0.92757  0.13017  Biso   1.000  C
  H70      1.0000 0.74873  0.90057  0.10077  Biso   1.000  H
  C107     1.0000 0.70053  0.95807  0.28307  Biso   1.000  C
  H71      1.0000 0.67943  0.95237  0.36217  Biso   1.000  H
  C108     1.0000 0.71973  0.00737  0.21377  Biso   1.000  C
  H72      1.0000 0.71223  0.03447  0.24677  Biso   1.000  H
  N46      1.0000 0.45468  0.98622  0.82500  Biso   1.000  N
  N47      1.0000 0.40381  0.94660  0.77950  Biso   1.000  N
  N48      1.0000 0.44539  0.01313  0.61450  Biso   1.000  N
  N49      1.0000 0.55598  0.07042  0.87180  Biso   1.000  N
  N50      1.0000 0.25107  0.87389  0.42350  Biso   1.000  N
  C109     1.0000 0.60820  0.11020  0.89770  Biso   1.000  C
  H73      1.0000 0.62310  0.11110  0.98410  Biso   1.000  H
  C110     1.0000 0.64090  0.14950  0.80300  Biso   1.000  C
  H74      1.0000 0.67740  0.17600  0.82430  Biso   1.000  H
  C111     1.0000 0.61890  0.14940  0.67540  Biso   1.000  C
  H75      1.0000 0.64030  0.17630  0.61030  Biso   1.000  H
  C112     1.0000 0.56570  0.10970  0.64560  Biso   1.000  C
  H76      1.0000 0.55040  0.10880  0.55980  Biso   1.000  H
  C113     1.0000 0.53440  0.07040  0.74550  Biso   1.000  C
  C114     1.0000 0.47810  0.02450  0.72550  Biso   1.000  C
  C115     1.0000 0.40070  0.96530  0.65360  Biso   1.000  C
  C116     1.0000 0.34981  0.93330  0.57060  Biso   1.000  C
  C117     1.0000 0.30850  0.88170  0.61220  Biso   1.000  C
  H77      1.0000 0.31290  0.86590  0.69220  Biso   1.000  H
  C118     1.0000 0.26090  0.85370  0.53650  Biso   1.000  C
  H78      1.0000 0.23390  0.81850  0.56590  Biso   1.000  H
  C119     1.0000 0.29140  0.92420  0.38360  Biso   1.000  C
  H79      1.0000 0.28570  0.93960  0.30450  Biso   1.000  H
  C120     1.0000 0.34070  0.95430  0.45290  Biso   1.000  C
  H80      1.0000 0.36780  0.98890  0.41990  Biso   1.000  H
  N51      1.0000 0.12135  0.31955  0.15833  Biso   1.000  N
  N52      1.0000 0.07048  0.27993  0.11283  Biso   1.000  N
  N53      1.0000 0.11206  0.34646  0.94783  Biso   1.000  N
  N54      1.0000 0.22265  0.40375  0.20513  Biso   1.000  N
  N55      1.0000 0.91774  0.20722  0.75683  Biso   1.000  N
  C121     1.0000 0.27487  0.44353  0.23103  Biso   1.000  C
  H81      1.0000 0.28977  0.44443  0.31743  Biso   1.000  H
  C122     1.0000 0.30757  0.48283  0.13633  Biso   1.000  C
  H82      1.0000 0.34407  0.50933  0.15763  Biso   1.000  H
  C123     1.0000 0.28557  0.48273  0.00873  Biso   1.000  C
  H83      1.0000 0.30697  0.50963  0.94363  Biso   1.000  H
  C124     1.0000 0.23237  0.44303  0.97893  Biso   1.000  C
  H84      1.0000 0.21707  0.44213  0.89313  Biso   1.000  H
  C125     1.0000 0.20107  0.40373  0.07883  Biso   1.000  C
  C126     1.0000 0.14477  0.35783  0.05883  Biso   1.000  C
  C127     1.0000 0.06737  0.29863  0.98693  Biso   1.000  C
  C128     1.0000 0.01648  0.26663  0.90393  Biso   1.000  C
  C129     1.0000 0.97517  0.21503  0.94553  Biso   1.000  C
  H85      1.0000 0.97957  0.19923  0.02553  Biso   1.000  H
  C130     1.0000 0.92757  0.18703  0.86983  Biso   1.000  C
  H86      1.0000 0.90057  0.15183  0.89923  Biso   1.000  H
  C131     1.0000 0.95807  0.25753  0.71693  Biso   1.000  C
  H87      1.0000 0.95237  0.27293  0.63783  Biso   1.000  H
  C132     1.0000 0.00737  0.28763  0.78623  Biso   1.000  C
  H88      1.0000 0.03447  0.32223  0.75323  Biso   1.000  H
  N56      1.0000 0.78801  0.65289  0.49167  Biso   1.000  N
  N57      1.0000 0.73714  0.61327  0.44617  Biso   1.000  N
  N58      1.0000 0.77872  0.67980  0.28117  Biso   1.000  N
  N59      1.0000 0.88931  0.73709  0.53847  Biso   1.000  N
  N60      1.0000 0.58440  0.54056  0.09017  Biso   1.000  N
  C133     1.0000 0.94153  0.77687  0.56437  Biso   1.000  C
  H89      1.0000 0.95643  0.77777  0.65077  Biso   1.000  H
  C134     1.0000 0.97423  0.81617  0.46967  Biso   1.000  C
  H90      1.0000 0.01073  0.84267  0.49097  Biso   1.000  H
  C135     1.0000 0.95223  0.81607  0.34207  Biso   1.000  C
  H91      1.0000 0.97363  0.84297  0.27697  Biso   1.000  H
  C136     1.0000 0.89903  0.77637  0.31227  Biso   1.000  C
  H92      1.0000 0.88373  0.77547  0.22647  Biso   1.000  H
  C137     1.0000 0.86773  0.73707  0.41217  Biso   1.000  C
  C138     1.0000 0.81143  0.69117  0.39217  Biso   1.000  C
  C139     1.0000 0.73403  0.63197  0.32027  Biso   1.000  C
  C140     1.0000 0.68314  0.59997  0.23727  Biso   1.000  C
  C141     1.0000 0.64183  0.54837  0.27887  Biso   1.000  C
  H93      1.0000 0.64623  0.53257  0.35887  Biso   1.000  H
  C142     1.0000 0.59423  0.52037  0.20317  Biso   1.000  C
  H94      1.0000 0.56723  0.48517  0.23257  Biso   1.000  H
  C143     1.0000 0.62473  0.59087  0.05027  Biso   1.000  C
  H95      1.0000 0.61903  0.60627  0.97117  Biso   1.000  H
  C144     1.0000 0.67403  0.62097  0.11957  Biso   1.000  C
  H96      1.0000 0.70113  0.65557  0.08657  Biso   1.000  H
  N61      1.0000 0.01378  0.46846  0.82500  Biso   1.000  N
  N62      1.0000 0.05340  0.45721  0.77950  Biso   1.000  N
  N63      1.0000 0.98687  0.43226  0.61450  Biso   1.000  N
  N64      1.0000 0.92958  0.48556  0.87180  Biso   1.000  N
  N65      1.0000 0.12611  0.37718  0.42350  Biso   1.000  N
  C145     1.0000 0.88980  0.49800  0.89770  Biso   1.000  C
  H97      1.0000 0.88890  0.51200  0.98410  Biso   1.000  H
  C146     1.0000 0.85050  0.49140  0.80300  Biso   1.000  C
  H98      1.0000 0.82400  0.50140  0.82430  Biso   1.000  H
  C147     1.0000 0.85060  0.46950  0.67540  Biso   1.000  C
  H99      1.0000 0.82370  0.46400  0.61030  Biso   1.000  H
  C148     1.0000 0.89030  0.45600  0.64560  Biso   1.000  C
  H100     1.0000 0.89120  0.44160  0.55980  Biso   1.000  H
  C149     1.0000 0.92960  0.46400  0.74550  Biso   1.000  C
  C150     1.0000 0.97550  0.45360  0.72550  Biso   1.000  C
  C151     1.0000 0.03470  0.43540  0.65360  Biso   1.000  C
  C152     1.0000 0.06670  0.41651  0.57060  Biso   1.000  C
  C153     1.0000 0.11830  0.42680  0.61220  Biso   1.000  C
  H101     1.0000 0.13410  0.44700  0.69220  Biso   1.000  H
  C154     1.0000 0.14630  0.40720  0.53650  Biso   1.000  C
  H102     1.0000 0.18150  0.41540  0.56590  Biso   1.000  H
  C155     1.0000 0.07580  0.36720  0.38360  Biso   1.000  C
  H103     1.0000 0.06040  0.34610  0.30450  Biso   1.000  H
  C156     1.0000 0.04570  0.38640  0.45290  Biso   1.000  C
  H104     1.0000 0.01110  0.37890  0.41990  Biso   1.000  H
  N66      1.0000 0.68045  0.80179  0.15833  Biso   1.000  N
  N67      1.0000 0.72007  0.79054  0.11283  Biso   1.000  N
  N68      1.0000 0.65354  0.76559  0.94783  Biso   1.000  N
  N69      1.0000 0.59625  0.81889  0.20513  Biso   1.000  N
  N70      1.0000 0.79278  0.71051  0.75683  Biso   1.000  N
  C157     1.0000 0.55647  0.83133  0.23103  Biso   1.000  C
  H105     1.0000 0.55557  0.84533  0.31743  Biso   1.000  H
  C158     1.0000 0.51717  0.82473  0.13633  Biso   1.000  C
  H106     1.0000 0.49067  0.83473  0.15763  Biso   1.000  H
  C159     1.0000 0.51727  0.80283  0.00873  Biso   1.000  C
  H107     1.0000 0.49037  0.79733  0.94363  Biso   1.000  H
  C160     1.0000 0.55697  0.78933  0.97893  Biso   1.000  C
  H108     1.0000 0.55787  0.77493  0.89313  Biso   1.000  H
  C161     1.0000 0.59627  0.79733  0.07883  Biso   1.000  C
  C162     1.0000 0.64217  0.78693  0.05883  Biso   1.000  C
  C163     1.0000 0.70137  0.76873  0.98693  Biso   1.000  C
  C164     1.0000 0.73337  0.74984  0.90393  Biso   1.000  C
  C165     1.0000 0.78497  0.76013  0.94553  Biso   1.000  C
  H109     1.0000 0.80077  0.78033  0.02553  Biso   1.000  H
  C166     1.0000 0.81297  0.74053  0.86983  Biso   1.000  C
  H110     1.0000 0.84817  0.74873  0.89923  Biso   1.000  H
  C167     1.0000 0.74247  0.70053  0.71693  Biso   1.000  C
  H111     1.0000 0.72707  0.67943  0.63783  Biso   1.000  H
  C168     1.0000 0.71237  0.71973  0.78623  Biso   1.000  C
  H112     1.0000 0.67777  0.71223  0.75323  Biso   1.000  H
  N71      1.0000 0.34711  0.13513  0.49167  Biso   1.000  N
  N72      1.0000 0.38673  0.12388  0.44617  Biso   1.000  N
  N73      1.0000 0.32020  0.09893  0.28117  Biso   1.000  N
  N74      1.0000 0.26291  0.15223  0.53847  Biso   1.000  N
  N75      1.0000 0.45944  0.04385  0.09017  Biso   1.000  N
  C169     1.0000 0.22313  0.16467  0.56437  Biso   1.000  C
  H113     1.0000 0.22223  0.17867  0.65077  Biso   1.000  H
  C170     1.0000 0.18383  0.15807  0.46967  Biso   1.000  C
  H114     1.0000 0.15733  0.16807  0.49097  Biso   1.000  H
  C171     1.0000 0.18393  0.13617  0.34207  Biso   1.000  C
  H115     1.0000 0.15703  0.13067  0.27697  Biso   1.000  H
  C172     1.0000 0.22363  0.12267  0.31227  Biso   1.000  C
  H116     1.0000 0.22453  0.10827  0.22647  Biso   1.000  H
  C173     1.0000 0.26293  0.13067  0.41217  Biso   1.000  C
  C174     1.0000 0.30883  0.12027  0.39217  Biso   1.000  C
  C175     1.0000 0.36803  0.10207  0.32027  Biso   1.000  C
  C176     1.0000 0.40003  0.08318  0.23727  Biso   1.000  C
  C177     1.0000 0.45163  0.09347  0.27887  Biso   1.000  C
  H117     1.0000 0.46743  0.11367  0.35887  Biso   1.000  H
  C178     1.0000 0.47963  0.07387  0.20317  Biso   1.000  C
  H118     1.0000 0.51483  0.08207  0.23257  Biso   1.000  H
  C179     1.0000 0.40913  0.03387  0.05027  Biso   1.000  C
  H119     1.0000 0.39373  0.01277  0.97117  Biso   1.000  H
  C180     1.0000 0.37903  0.05307  0.11957  Biso   1.000  C
  H120     1.0000 0.34443  0.04557  0.08657  Biso   1.000  H
  N76      1.0000 0.53154  0.54532  0.82500  Biso   1.000  N
  N77      1.0000 0.54279  0.59619  0.77950  Biso   1.000  N
  N78      1.0000 0.56774  0.55461  0.61450  Biso   1.000  N
  N79      1.0000 0.51444  0.44402  0.87180  Biso   1.000  N
  N80      1.0000 0.62282  0.74893  0.42350  Biso   1.000  N
  C181     1.0000 0.50200  0.39180  0.89770  Biso   1.000  C
  H121     1.0000 0.48800  0.37690  0.98410  Biso   1.000  H
  C182     1.0000 0.50860  0.35910  0.80300  Biso   1.000  C
  H122     1.0000 0.49860  0.32260  0.82430  Biso   1.000  H
  C183     1.0000 0.53050  0.38110  0.67540  Biso   1.000  C
  H123     1.0000 0.53600  0.35970  0.61030  Biso   1.000  H
  C184     1.0000 0.54400  0.43430  0.64560  Biso   1.000  C
  H124     1.0000 0.55840  0.44960  0.55980  Biso   1.000  H
  C185     1.0000 0.53600  0.46560  0.74550  Biso   1.000  C
  C186     1.0000 0.54640  0.52190  0.72550  Biso   1.000  C
  C187     1.0000 0.56460  0.59930  0.65360  Biso   1.000  C
  C188     1.0000 0.58349  0.65019  0.57060  Biso   1.000  C
  C189     1.0000 0.57320  0.69150  0.61220  Biso   1.000  C
  H125     1.0000 0.55300  0.68710  0.69220  Biso   1.000  H
  C190     1.0000 0.59280  0.73910  0.53650  Biso   1.000  C
  H126     1.0000 0.58460  0.76610  0.56590  Biso   1.000  H
  C191     1.0000 0.63280  0.70860  0.38360  Biso   1.000  C
  H127     1.0000 0.65390  0.71430  0.30450  Biso   1.000  H
  C192     1.0000 0.61360  0.65930  0.45290  Biso   1.000  C
  H128     1.0000 0.62110  0.63220  0.41990  Biso   1.000  H
  N81      1.0000 0.19821  0.87865  0.15833  Biso   1.000  N
  N82      1.0000 0.20946  0.92952  0.11283  Biso   1.000  N
  N83      1.0000 0.23441  0.88794  0.94783  Biso   1.000  N
  N84      1.0000 0.18111  0.77735  0.20513  Biso   1.000  N
  N85      1.0000 0.28949  0.08226  0.75683  Biso   1.000  N
  C193     1.0000 0.16867  0.72513  0.23103  Biso   1.000  C
  H129     1.0000 0.15467  0.71023  0.31743  Biso   1.000  H
  C194     1.0000 0.17527  0.69243  0.13633  Biso   1.000  C
  H130     1.0000 0.16527  0.65593  0.15763  Biso   1.000  H
  C195     1.0000 0.19717  0.71443  0.00873  Biso   1.000  C
  H131     1.0000 0.20267  0.69303  0.94363  Biso   1.000  H
  C196     1.0000 0.21067  0.76763  0.97893  Biso   1.000  C
  H132     1.0000 0.22507  0.78293  0.89313  Biso   1.000  H
  C197     1.0000 0.20267  0.79893  0.07883  Biso   1.000  C
  C198     1.0000 0.21307  0.85523  0.05883  Biso   1.000  C
  C199     1.0000 0.23127  0.93263  0.98693  Biso   1.000  C
  C200     1.0000 0.25016  0.98352  0.90393  Biso   1.000  C
  C201     1.0000 0.23987  0.02483  0.94553  Biso   1.000  C
  H133     1.0000 0.21967  0.02043  0.02553  Biso   1.000  H
  C202     1.0000 0.25947  0.07243  0.86983  Biso   1.000  C
  H134     1.0000 0.25127  0.09943  0.89923  Biso   1.000  H
  C203     1.0000 0.29947  0.04193  0.71693  Biso   1.000  C
  H135     1.0000 0.32057  0.04763  0.63783  Biso   1.000  H
  C204     1.0000 0.28027  0.99263  0.78623  Biso   1.000  C
  H136     1.0000 0.28777  0.96553  0.75323  Biso   1.000  H
  N86      1.0000 0.86487  0.21199  0.49167  Biso   1.000  N
  N87      1.0000 0.87612  0.26286  0.44617  Biso   1.000  N
  N88      1.0000 0.90107  0.22128  0.28117  Biso   1.000  N
  N89      1.0000 0.84777  0.11069  0.53847  Biso   1.000  N
  N90      1.0000 0.95615  0.41560  0.09017  Biso   1.000  N
  C205     1.0000 0.83533  0.05847  0.56437  Biso   1.000  C
  H137     1.0000 0.82133  0.04357  0.65077  Biso   1.000  H
  C206     1.0000 0.84193  0.02577  0.46967  Biso   1.000  C
  H138     1.0000 0.83193  0.98927  0.49097  Biso   1.000  H
  C207     1.0000 0.86383  0.04777  0.34207  Biso   1.000  C
  H139     1.0000 0.86933  0.02637  0.27697  Biso   1.000  H
  C208     1.0000 0.87733  0.10097  0.31227  Biso   1.000  C
  H140     1.0000 0.89173  0.11627  0.22647  Biso   1.000  H
  C209     1.0000 0.86933  0.13227  0.41217  Biso   1.000  C
  C210     1.0000 0.87973  0.18857  0.39217  Biso   1.000  C
  C211     1.0000 0.89793  0.26597  0.32027  Biso   1.000  C
  C212     1.0000 0.91682  0.31686  0.23727  Biso   1.000  C
  C213     1.0000 0.90653  0.35817  0.27887  Biso   1.000  C
  H141     1.0000 0.88633  0.35377  0.35887  Biso   1.000  H
  C214     1.0000 0.92613  0.40577  0.20317  Biso   1.000  C
  H142     1.0000 0.91793  0.43277  0.23257  Biso   1.000  H
  C215     1.0000 0.96613  0.37527  0.05027  Biso   1.000  C
  H143     1.0000 0.98723  0.38097  0.97117  Biso   1.000  H
  C216     1.0000 0.94693  0.32597  0.11957  Biso   1.000  C
  H144     1.0000 0.95443  0.29887  0.08657  Biso   1.000  H
  Co1      1.0000 0.50000  0.00000  0.00000  Biso   1.000  Co
  Co2      1.0000 0.16667  0.33333  0.33333  Biso   1.000  Co
  Co3      1.0000 0.83333  0.66667  0.66667  Biso   1.000  Co
  Co4      1.0000 0.00000  0.50000  0.00000  Biso   1.000  Co
  Co5      1.0000 0.66667  0.83333  0.33333  Biso   1.000  Co
  Co6      1.0000 0.33333  0.16667  0.66667  Biso   1.000  Co
  Co7      1.0000 0.50000  0.50000  0.00000  Biso   1.000  Co
  Co8      1.0000 0.16667  0.83333  0.33333  Biso   1.000  Co
  Co9      1.0000 0.83333  0.16667  0.66667  Biso   1.000  Co
