data_image0
_cell_length_a       9.1985
_cell_length_b       15.9576
_cell_length_c       16.0966
_cell_angle_alpha    73.171
_cell_angle_beta     74.44
_cell_angle_gamma    76.392

_symmetry_space_group_name_H-M    P 1
_symmetry_int_tables_number       1

loop_
  _symmetry_equiv_pos_as_xyz
  'x, y, z'

loop_
  _atom_site_label
  _atom_site_occupancy
  _atom_site_fract_x
  _atom_site_fract_y
  _atom_site_fract_z
  _atom_site_thermal_displace_type
  _atom_site_B_iso_or_equiv
  _atom_site_type_symbol
  Co1      1.0000 0.50000  0.50000  0.00000  Biso   1.000  Co
  Co2      1.0000 0.00000  0.00000  0.50000  Biso   1.000  Co
  Co3      1.0000 0.00000  0.50000  0.50000  Biso   1.000  Co
  H1       1.0000 0.97390  0.67590  0.02980  Biso   1.000  H
  H2       1.0000 0.96280  0.73110  0.15130  Biso   1.000  H
  H3       1.0000 0.17240  0.69150  0.21560  Biso   1.000  H
  H4       1.0000 0.38650  0.60180  0.16030  Biso   1.000  H
  H5       1.0000 0.18270  0.38880  0.64220  Biso   1.000  H
  H6       1.0000 0.25960  0.39780  0.76230  Biso   1.000  H
  H7       1.0000 0.98250  0.63120  0.75590  Biso   1.000  H
  H8       1.0000 0.91580  0.61770  0.63390  Biso   1.000  H
  H9       1.0000 0.95140  0.01080  0.81220  Biso   1.000  H
  H10      1.0000 0.10150  0.11710  0.78910  Biso   1.000  H
  H11      1.0000 0.21430  0.18370  0.64350  Biso   1.000  H
  H12      1.0000 0.17500  0.14160  0.52900  Biso   1.000  H
  H13      1.0000 0.63290  0.65770  0.99400  Biso   1.000  H
  H14      1.0000 0.73210  0.77770  0.90420  Biso   1.000  H
  H15      1.0000 0.65200  0.72030  0.69860  Biso   1.000  H
  H16      1.0000 0.55270  0.60030  0.79380  Biso   1.000  H
  H17      1.0000 0.49130  0.41590  0.64860  Biso   1.000  H
  H18      1.0000 0.56070  0.26240  0.68210  Biso   1.000  H
  H19      1.0000 0.81740  0.20080  0.64220  Biso   1.000  H
  H20      1.0000 0.99200  0.29230  0.57010  Biso   1.000  H
  H21      1.0000 0.36200  0.95850  0.45880  Biso   1.000  H
  H22      1.0000 0.56260  0.84580  0.47370  Biso   1.000  H
  H23      1.0000 0.26870  0.67950  0.59790  Biso   1.000  H
  H24      1.0000 0.07510  0.79710  0.58040  Biso   1.000  H
  H25      1.0000 0.02610  0.32410  0.97020  Biso   1.000  H
  H26      1.0000 0.03720  0.26890  0.84870  Biso   1.000  H
  H27      1.0000 0.82760  0.30850  0.78440  Biso   1.000  H
  H28      1.0000 0.61350  0.39820  0.83970  Biso   1.000  H
  H29      1.0000 0.81730  0.61120  0.35780  Biso   1.000  H
  H30      1.0000 0.74040  0.60220  0.23770  Biso   1.000  H
  H31      1.0000 0.01750  0.36880  0.24410  Biso   1.000  H
  H32      1.0000 0.08420  0.38230  0.36610  Biso   1.000  H
  H33      1.0000 0.04860  0.98920  0.18780  Biso   1.000  H
  H34      1.0000 0.89850  0.88290  0.21090  Biso   1.000  H
  H35      1.0000 0.78570  0.81630  0.35650  Biso   1.000  H
  H36      1.0000 0.82500  0.85840  0.47100  Biso   1.000  H
  H37      1.0000 0.36710  0.34230  0.00600  Biso   1.000  H
  H38      1.0000 0.26790  0.22230  0.09580  Biso   1.000  H
  H39      1.0000 0.34800  0.27970  0.30140  Biso   1.000  H
  H40      1.0000 0.44730  0.39970  0.20620  Biso   1.000  H
  H41      1.0000 0.50870  0.58410  0.35140  Biso   1.000  H
  H42      1.0000 0.43930  0.73760  0.31790  Biso   1.000  H
  H43      1.0000 0.18260  0.79920  0.35780  Biso   1.000  H
  H44      1.0000 0.00800  0.70770  0.42990  Biso   1.000  H
  H45      1.0000 0.63800  0.04150  0.54120  Biso   1.000  H
  H46      1.0000 0.43740  0.15420  0.52630  Biso   1.000  H
  H47      1.0000 0.73130  0.32050  0.40210  Biso   1.000  H
  H48      1.0000 0.92490  0.20290  0.41960  Biso   1.000  H
  C1       1.0000 0.18780  0.52600  0.84590  Biso   1.000  C
  C2       1.0000 0.20770  0.56750  0.95230  Biso   1.000  C
  C3       1.0000 0.18870  0.60700  0.02610  Biso   1.000  C
  C4       1.0000 0.05690  0.66140  0.05700  Biso   1.000  C
  C5       1.0000 0.05010  0.69410  0.12920  Biso   1.000  C
  C6       1.0000 0.17470  0.67070  0.16690  Biso   1.000  C
  C7       1.0000 0.30300  0.61680  0.13350  Biso   1.000  C
  C8       1.0000 0.14320  0.43910  0.66460  Biso   1.000  C
  C9       1.0000 0.18980  0.44390  0.73690  Biso   1.000  C
  C10      1.0000 0.13300  0.51690  0.77170  Biso   1.000  C
  C11      1.0000 0.02690  0.58170  0.73290  Biso   1.000  C
  C12      1.0000 0.98660  0.57280  0.65980  Biso   1.000  C
  C13      1.0000 0.77610  0.83920  0.73170  Biso   1.000  C
  C14      1.0000 0.89320  0.94650  0.69010  Biso   1.000  C
  C15      1.0000 0.98020  0.01370  0.68310  Biso   1.000  C
  C16      1.0000 0.99850  0.03740  0.75490  Biso   1.000  C
  C17      1.0000 0.08700  0.10090  0.74120  Biso   1.000  C
  C18      1.0000 0.15440  0.14050  0.65470  Biso   1.000  C
  C19      1.0000 0.13060  0.11450  0.58680  Biso   1.000  C
  C20      1.0000 0.63650  0.67020  0.93340  Biso   1.000  C
  C21      1.0000 0.69650  0.74240  0.87980  Biso   1.000  C
  C22      1.0000 0.70510  0.76370  0.79010  Biso   1.000  C
  C23      1.0000 0.64940  0.70870  0.75900  Biso   1.000  C
  C24      1.0000 0.58960  0.63650  0.81650  Biso   1.000  C
  C25      1.0000 0.56480  0.67050  0.54290  Biso   1.000  C
  C26      1.0000 0.67140  0.53820  0.56790  Biso   1.000  C
  C27      1.0000 0.70430  0.44130  0.59180  Biso   1.000  C
  C28      1.0000 0.59320  0.38960  0.63360  Biso   1.000  C
  C29      1.0000 0.63410  0.29860  0.65330  Biso   1.000  C
  C30      1.0000 0.78620  0.26210  0.62940  Biso   1.000  C
  C31      1.0000 0.88980  0.31730  0.58670  Biso   1.000  C
  C32      1.0000 0.34220  0.90140  0.48690  Biso   1.000  C
  C33      1.0000 0.46350  0.83360  0.49550  Biso   1.000  C
  C34      1.0000 0.44190  0.74830  0.53560  Biso   1.000  C
  C35      1.0000 0.29120  0.73590  0.56860  Biso   1.000  C
  C36      1.0000 0.17520  0.80740  0.55760  Biso   1.000  C
  C37      1.0000 0.81220  0.47400  0.15410  Biso   1.000  C
  C38      1.0000 0.79230  0.43250  0.04770  Biso   1.000  C
  C39      1.0000 0.81130  0.39300  0.97390  Biso   1.000  C
  C40      1.0000 0.94310  0.33860  0.94300  Biso   1.000  C
  C41      1.0000 0.94990  0.30590  0.87080  Biso   1.000  C
  C42      1.0000 0.82530  0.32930  0.83310  Biso   1.000  C
  C43      1.0000 0.69700  0.38320  0.86650  Biso   1.000  C
  C44      1.0000 0.85680  0.56090  0.33540  Biso   1.000  C
  C45      1.0000 0.81020  0.55610  0.26310  Biso   1.000  C
  C46      1.0000 0.86700  0.48310  0.22830  Biso   1.000  C
  C47      1.0000 0.97310  0.41830  0.26710  Biso   1.000  C
  C48      1.0000 0.01340  0.42720  0.34020  Biso   1.000  C
  C49      1.0000 0.22390  0.16080  0.26830  Biso   1.000  C
  C50      1.0000 0.10680  0.05350  0.30990  Biso   1.000  C
  C51      1.0000 0.01980  0.98630  0.31690  Biso   1.000  C
  C52      1.0000 0.00150  0.96260  0.24510  Biso   1.000  C
  C53      1.0000 0.91300  0.89910  0.25880  Biso   1.000  C
  C54      1.0000 0.84560  0.85950  0.34530  Biso   1.000  C
  C55      1.0000 0.86940  0.88550  0.41320  Biso   1.000  C
  C56      1.0000 0.36350  0.32980  0.06660  Biso   1.000  C
  C57      1.0000 0.30350  0.25760  0.12020  Biso   1.000  C
  C58      1.0000 0.29490  0.23630  0.20990  Biso   1.000  C
  C59      1.0000 0.35060  0.29130  0.24100  Biso   1.000  C
  C60      1.0000 0.41040  0.36350  0.18350  Biso   1.000  C
  C61      1.0000 0.43520  0.32950  0.45710  Biso   1.000  C
  C62      1.0000 0.32860  0.46180  0.43210  Biso   1.000  C
  C63      1.0000 0.29570  0.55870  0.40820  Biso   1.000  C
  C64      1.0000 0.40680  0.61040  0.36640  Biso   1.000  C
  C65      1.0000 0.36590  0.70140  0.34670  Biso   1.000  C
  C66      1.0000 0.21380  0.73790  0.37060  Biso   1.000  C
  C67      1.0000 0.11020  0.68270  0.41330  Biso   1.000  C
  C68      1.0000 0.65780  0.09860  0.51310  Biso   1.000  C
  C69      1.0000 0.53650  0.16640  0.50450  Biso   1.000  C
  C70      1.0000 0.55810  0.25170  0.46440  Biso   1.000  C
  C71      1.0000 0.70880  0.26410  0.43140  Biso   1.000  C
  C72      1.0000 0.82480  0.19260  0.44240  Biso   1.000  C
  N1       1.0000 0.33580  0.51160  0.93150  Biso   1.000  N
  N2       1.0000 0.32500  0.48320  0.86220  Biso   1.000  N
  N3       1.0000 0.11070  0.58050  0.89910  Biso   1.000  N
  N4       1.0000 0.31250  0.58490  0.06340  Biso   1.000  N
  N5       1.0000 0.04410  0.50300  0.62460  Biso   1.000  N
  N6       1.0000 0.87300  0.93180  0.61640  Biso   1.000  N
  N7       1.0000 0.79590  0.86130  0.64320  Biso   1.000  N
  N8       1.0000 0.83430  0.89050  0.76460  Biso   1.000  N
  N9       1.0000 0.04670  0.05180  0.59820  Biso   1.000  N
  N10      1.0000 0.58270  0.61640  0.90400  Biso   1.000  N
  N11      1.0000 0.78310  0.58540  0.52570  Biso   1.000  N
  N12      1.0000 0.71450  0.67240  0.50920  Biso   1.000  N
  N13      1.0000 0.53170  0.58740  0.58000  Biso   1.000  N
  N14      1.0000 0.85200  0.40570  0.56760  Biso   1.000  N
  N15      1.0000 0.19590  0.88970  0.51700  Biso   1.000  N
  N16      1.0000 0.66420  0.48840  0.06850  Biso   1.000  N
  N17      1.0000 0.67500  0.51680  0.13780  Biso   1.000  N
  N18      1.0000 0.88930  0.41950  0.10090  Biso   1.000  N
  N19      1.0000 0.68750  0.41510  0.93660  Biso   1.000  N
  N20      1.0000 0.95590  0.49700  0.37540  Biso   1.000  N
  N21      1.0000 0.12700  0.06820  0.38360  Biso   1.000  N
  N22      1.0000 0.20410  0.13870  0.35680  Biso   1.000  N
  N23      1.0000 0.16570  0.10950  0.23540  Biso   1.000  N
  N24      1.0000 0.95330  0.94820  0.40180  Biso   1.000  N
  N25      1.0000 0.41730  0.38360  0.09600  Biso   1.000  N
  N26      1.0000 0.21690  0.41460  0.47430  Biso   1.000  N
  N27      1.0000 0.28550  0.32760  0.49080  Biso   1.000  N
  N28      1.0000 0.46830  0.41260  0.42000  Biso   1.000  N
  N29      1.0000 0.14800  0.59430  0.43240  Biso   1.000  N
  N30      1.0000 0.80410  0.11030  0.48300  Biso   1.000  N
