data_image0
_cell_length_a       9.003
_cell_length_b       17.382
_cell_length_c       17.057
_cell_angle_alpha    90
_cell_angle_beta     104.595
_cell_angle_gamma    90

_symmetry_space_group_name_H-M    "P 1"
_symmetry_int_tables_number       1

loop_
  _symmetry_equiv_pos_as_xyz
  'x, y, z'

loop_
  _atom_site_label
  _atom_site_occupancy
  _atom_site_fract_x
  _atom_site_fract_y
  _atom_site_fract_z
  _atom_site_thermal_displace_type
  _atom_site_B_iso_or_equiv
  _atom_site_type_symbol
  Cd1      1.0000 0.38438  0.06015  0.21475  Biso   1.000  Cd
  N1       1.0000 0.76210  0.90500  0.17940  Biso   1.000  N
  C1       1.0000 0.68920  0.95580  0.28290  Biso   1.000  C
  H1       1.0000 0.68270  0.96780  0.33630  Biso   1.000  H
  C2       1.0000 0.80720  0.66750  0.23020  Biso   1.000  C
  H2       1.0000 0.75380  0.63020  0.25340  Biso   1.000  H
  N2       1.0000 0.95770  0.66140  0.22570  Biso   1.000  N
  N3       1.0000 0.00210  0.88780  0.12860  Biso   1.000  N
  N4       1.0000 0.74500  0.84850  0.04080  Biso   1.000  N
  C3       1.0000 0.07140  0.95140  0.16890  Biso   1.000  C
  H3       1.0000 0.02940  0.98130  0.20470  Biso   1.000  H
  C4       1.0000 0.64200  0.95260  0.15280  Biso   1.000  C
  H4       1.0000 0.59670  0.96220  0.09710  Biso   1.000  H
  N5       1.0000 0.86190  0.77230  0.16980  Biso   1.000  N
  O1       1.0000 0.20640  0.08750  0.29320  Biso   1.000  O
  C5       1.0000 0.74750  0.73470  0.19670  Biso   1.000  C
  H5       1.0000 0.64620  0.75280  0.19230  Biso   1.000  H
  N6       1.0000 0.20410  0.96610  0.15210  Biso   1.000  N
  C6       1.0000 0.98680  0.72510  0.18920  Biso   1.000  C
  H6       1.0000 0.08260  0.73640  0.17800  Biso   1.000  H
  N7       1.0000 0.64890  0.88080  0.91080  Biso   1.000  N
  N8       1.0000 0.59350  0.98450  0.21210  Biso   1.000  N
  C7       1.0000 0.10030  0.86230  0.08340  Biso   1.000  C
  H7       1.0000 0.08450  0.81920  0.04810  Biso   1.000  H
  O2       1.0000 0.38840  0.00520  0.34660  Biso   1.000  O
  C8       1.0000 0.79360  0.90790  0.26370  Biso   1.000  C
  H8       1.0000 0.87350  0.88130  0.30080  Biso   1.000  H
  C9       1.0000 0.75490  0.89500  0.97840  Biso   1.000  C
  H9       1.0000 0.83060  0.93400  0.98280  Biso   1.000  H
  C10      1.0000 0.04530  0.04830  0.41110  Biso   1.000  C
  H10      1.0000 0.99930  0.08420  0.37020  Biso   1.000  H
  C11      1.0000 0.96570  0.02710  0.46980  Biso   1.000  C
  C12      1.0000 0.22310  0.91000  0.09880  Biso   1.000  C
  H11      1.0000 0.30890  0.90550  0.07620  Biso   1.000  H
  C13      1.0000 0.18670  0.01850  0.41160  Biso   1.000  C
  B1       1.0000 0.84460  0.85370  0.12940  Biso   1.000  B
  C14      1.0000 0.25700  0.96530  0.47370  Biso   1.000  C
  H12      1.0000 0.35610  0.94530  0.47580  Biso   1.000  H
  C15      1.0000 0.56390  0.82150  0.93060  Biso   1.000  C
  H13      1.0000 0.47790  0.79810  0.89450  Biso   1.000  H
  C16      1.0000 0.62120  0.80140  0.00940  Biso   1.000  C
  H14      1.0000 0.58290  0.76210  0.03770  Biso   1.000  H
  C17      1.0000 0.26670  0.03890  0.34730  Biso   1.000  C
  C18      1.0000 0.18070  0.94310  0.53060  Biso   1.000  C
  H15      1.0000 0.22750  0.90690  0.57100  Biso   1.000  H
  Cd2      1.0000 0.11562  0.56015  0.28525  Biso   1.000  Cd
  N9       1.0000 0.73790  0.40500  0.32060  Biso   1.000  N
  C19      1.0000 0.81080  0.45580  0.21710  Biso   1.000  C
  H16      1.0000 0.81730  0.46780  0.16370  Biso   1.000  H
  C20      1.0000 0.69280  0.16750  0.26980  Biso   1.000  C
  H17      1.0000 0.74620  0.13020  0.24660  Biso   1.000  H
  N10      1.0000 0.54230  0.16140  0.27430  Biso   1.000  N
  N11      1.0000 0.49790  0.38780  0.37140  Biso   1.000  N
  N12      1.0000 0.75500  0.34850  0.45920  Biso   1.000  N
  C21      1.0000 0.42860  0.45140  0.33110  Biso   1.000  C
  H18      1.0000 0.47060  0.48130  0.29530  Biso   1.000  H
  C22      1.0000 0.85800  0.45260  0.34720  Biso   1.000  C
  H19      1.0000 0.90330  0.46220  0.40290  Biso   1.000  H
  N13      1.0000 0.63810  0.27230  0.33020  Biso   1.000  N
  O3       1.0000 0.29360  0.58750  0.20680  Biso   1.000  O
  C23      1.0000 0.75250  0.23470  0.30330  Biso   1.000  C
  H20      1.0000 0.85380  0.25280  0.30770  Biso   1.000  H
  N14      1.0000 0.29590  0.46610  0.34790  Biso   1.000  N
  C24      1.0000 0.51320  0.22510  0.31080  Biso   1.000  C
  H21      1.0000 0.41740  0.23640  0.32200  Biso   1.000  H
  N15      1.0000 0.85110  0.38080  0.58920  Biso   1.000  N
  N16      1.0000 0.90650  0.48450  0.28790  Biso   1.000  N
  C25      1.0000 0.39970  0.36230  0.41660  Biso   1.000  C
  H22      1.0000 0.41550  0.31920  0.45190  Biso   1.000  H
  O4       1.0000 0.11160  0.50520  0.15340  Biso   1.000  O
  C26      1.0000 0.70640  0.40790  0.23630  Biso   1.000  C
  H23      1.0000 0.62650  0.38130  0.19920  Biso   1.000  H
  C27      1.0000 0.74510  0.39500  0.52160  Biso   1.000  C
  H24      1.0000 0.66940  0.43400  0.51720  Biso   1.000  H
  C28      1.0000 0.45470  0.54830  0.08890  Biso   1.000  C
  H25      1.0000 0.50070  0.58420  0.12980  Biso   1.000  H
  C29      1.0000 0.53430  0.52710  0.03020  Biso   1.000  C
  C30      1.0000 0.27690  0.41000  0.40120  Biso   1.000  C
  H26      1.0000 0.19110  0.40550  0.42380  Biso   1.000  H
  C31      1.0000 0.31330  0.51850  0.08840  Biso   1.000  C
  B2       1.0000 0.65540  0.35370  0.37060  Biso   1.000  B
  C32      1.0000 0.24300  0.46530  0.02630  Biso   1.000  C
  H27      1.0000 0.14390  0.44530  0.02420  Biso   1.000  H
  C33      1.0000 0.93610  0.32150  0.56940  Biso   1.000  C
  H28      1.0000 0.02210  0.29810  0.60550  Biso   1.000  H
  C34      1.0000 0.87880  0.30140  0.49060  Biso   1.000  C
  H29      1.0000 0.91710  0.26210  0.46230  Biso   1.000  H
  C35      1.0000 0.23330  0.53890  0.15270  Biso   1.000  C
  C36      1.0000 0.31930  0.44310  0.96940  Biso   1.000  C
  H30      1.0000 0.27250  0.40690  0.92900  Biso   1.000  H
  Cd3      1.0000 0.61562  0.93985  0.78525  Biso   1.000  Cd
  N17      1.0000 0.23790  0.09500  0.82060  Biso   1.000  N
  C37      1.0000 0.31080  0.04420  0.71710  Biso   1.000  C
  H31      1.0000 0.31730  0.03220  0.66370  Biso   1.000  H
  C38      1.0000 0.19280  0.33250  0.76980  Biso   1.000  C
  H32      1.0000 0.24620  0.36980  0.74660  Biso   1.000  H
  N18      1.0000 0.04230  0.33860  0.77430  Biso   1.000  N
  N19      1.0000 0.99790  0.11220  0.87140  Biso   1.000  N
  N20      1.0000 0.25500  0.15150  0.95920  Biso   1.000  N
  C39      1.0000 0.92860  0.04860  0.83110  Biso   1.000  C
  H33      1.0000 0.97060  0.01870  0.79530  Biso   1.000  H
  C40      1.0000 0.35800  0.04740  0.84720  Biso   1.000  C
  H34      1.0000 0.40330  0.03780  0.90290  Biso   1.000  H
  N21      1.0000 0.13810  0.22770  0.83020  Biso   1.000  N
  O5       1.0000 0.79360  0.91250  0.70680  Biso   1.000  O
  C41      1.0000 0.25250  0.26530  0.80330  Biso   1.000  C
  H35      1.0000 0.35380  0.24720  0.80770  Biso   1.000  H
  N22      1.0000 0.79590  0.03390  0.84790  Biso   1.000  N
  C42      1.0000 0.01320  0.27490  0.81080  Biso   1.000  C
  H36      1.0000 0.91740  0.26360  0.82200  Biso   1.000  H
  N23      1.0000 0.35110  0.11920  0.08920  Biso   1.000  N
  N24      1.0000 0.40650  0.01550  0.78790  Biso   1.000  N
  C43      1.0000 0.89970  0.13770  0.91660  Biso   1.000  C
  H37      1.0000 0.91550  0.18080  0.95190  Biso   1.000  H
  O6       1.0000 0.61160  0.99480  0.65340  Biso   1.000  O
  C44      1.0000 0.20640  0.09210  0.73630  Biso   1.000  C
  H38      1.0000 0.12650  0.11870  0.69920  Biso   1.000  H
  C45      1.0000 0.24510  0.10500  0.02160  Biso   1.000  C
  H39      1.0000 0.16940  0.06600  0.01720  Biso   1.000  H
  C46      1.0000 0.95470  0.95170  0.58890  Biso   1.000  C
  H40      1.0000 0.00070  0.91580  0.62980  Biso   1.000  H
  C47      1.0000 0.03430  0.97290  0.53020  Biso   1.000  C
  C48      1.0000 0.77690  0.09000  0.90120  Biso   1.000  C
  H41      1.0000 0.69110  0.09450  0.92380  Biso   1.000  H
  C49      1.0000 0.81330  0.98150  0.58840  Biso   1.000  C
  B3       1.0000 0.15540  0.14630  0.87060  Biso   1.000  B
  C50      1.0000 0.74300  0.03470  0.52630  Biso   1.000  C
  H42      1.0000 0.64390  0.05470  0.52420  Biso   1.000  H
  C51      1.0000 0.43610  0.17850  0.06940  Biso   1.000  C
  H43      1.0000 0.52210  0.20190  0.10550  Biso   1.000  H
  C52      1.0000 0.37880  0.19860  0.99060  Biso   1.000  C
  H44      1.0000 0.41710  0.23790  0.96230  Biso   1.000  H
  C53      1.0000 0.73330  0.96110  0.65270  Biso   1.000  C
  C54      1.0000 0.81930  0.05690  0.46940  Biso   1.000  C
  H45      1.0000 0.77250  0.09310  0.42900  Biso   1.000  H
  Cd4      1.0000 0.88438  0.43985  0.71475  Biso   1.000  Cd
  N25      1.0000 0.26210  0.59500  0.67940  Biso   1.000  N
  C55      1.0000 0.18920  0.54420  0.78290  Biso   1.000  C
  H46      1.0000 0.18270  0.53220  0.83630  Biso   1.000  H
  C56      1.0000 0.30720  0.83250  0.73020  Biso   1.000  C
  H47      1.0000 0.25380  0.86980  0.75340  Biso   1.000  H
  N26      1.0000 0.45770  0.83860  0.72570  Biso   1.000  N
  N27      1.0000 0.50210  0.61220  0.62860  Biso   1.000  N
  N28      1.0000 0.24500  0.65150  0.54080  Biso   1.000  N
  C57      1.0000 0.57140  0.54860  0.66890  Biso   1.000  C
  H48      1.0000 0.52940  0.51870  0.70470  Biso   1.000  H
  C58      1.0000 0.14200  0.54740  0.65280  Biso   1.000  C
  H49      1.0000 0.09670  0.53780  0.59710  Biso   1.000  H
  N29      1.0000 0.36190  0.72770  0.66980  Biso   1.000  N
  O7       1.0000 0.70640  0.41250  0.79320  Biso   1.000  O
  C59      1.0000 0.24750  0.76530  0.69670  Biso   1.000  C
  H50      1.0000 0.14620  0.74720  0.69230  Biso   1.000  H
  N30      1.0000 0.70410  0.53390  0.65210  Biso   1.000  N
  C60      1.0000 0.48680  0.77490  0.68920  Biso   1.000  C
  H51      1.0000 0.58260  0.76360  0.67800  Biso   1.000  H
  N31      1.0000 0.14890  0.61920  0.41080  Biso   1.000  N
  N32      1.0000 0.09350  0.51550  0.71210  Biso   1.000  N
  C61      1.0000 0.60030  0.63770  0.58340  Biso   1.000  C
  H52      1.0000 0.58450  0.68080  0.54810  Biso   1.000  H
  O8       1.0000 0.88840  0.49480  0.84660  Biso   1.000  O
  C62      1.0000 0.29360  0.59210  0.76370  Biso   1.000  C
  H53      1.0000 0.37350  0.61870  0.80080  Biso   1.000  H
  C63      1.0000 0.25490  0.60500  0.47840  Biso   1.000  C
  H54      1.0000 0.33060  0.56600  0.48280  Biso   1.000  H
  C64      1.0000 0.54530  0.45170  0.91110  Biso   1.000  C
  H55      1.0000 0.49930  0.41580  0.87020  Biso   1.000  H
  C65      1.0000 0.46570  0.47290  0.96980  Biso   1.000  C
  C66      1.0000 0.72310  0.59000  0.59880  Biso   1.000  C
  H56      1.0000 0.80890  0.59450  0.57620  Biso   1.000  H
  C67      1.0000 0.68670  0.48150  0.91160  Biso   1.000  C
  B4       1.0000 0.34460  0.64630  0.62940  Biso   1.000  B
  C68      1.0000 0.75700  0.53470  0.97370  Biso   1.000  C
  H57      1.0000 0.85610  0.55470  0.97580  Biso   1.000  H
  C69      1.0000 0.06390  0.67850  0.43060  Biso   1.000  C
  H58      1.0000 0.97790  0.70190  0.39450  Biso   1.000  H
  C70      1.0000 0.12120  0.69860  0.50940  Biso   1.000  C
  H59      1.0000 0.08290  0.73790  0.53770  Biso   1.000  H
  C71      1.0000 0.76670  0.46110  0.84730  Biso   1.000  C
  C72      1.0000 0.68070  0.55690  0.03060  Biso   1.000  C
  H60      1.0000 0.72750  0.59310  0.07100  Biso   1.000  H
