data_image0
_cell_length_a       9.7736
_cell_length_b       18.3539
_cell_length_c       18.3539
_cell_angle_alpha    120
_cell_angle_beta     90
_cell_angle_gamma    90

_symmetry_space_group_name_H-M    P 1
_symmetry_int_tables_number       1

loop_
  _symmetry_equiv_pos_as_xyz
  'x, y, z'

loop_
  _atom_site_label
  _atom_site_occupancy
  _atom_site_fract_x
  _atom_site_fract_y
  _atom_site_fract_z
  _atom_site_thermal_displace_type
  _atom_site_B_iso_or_equiv
  _atom_site_type_symbol
  U1       1.0000 0.75000  0.64292  0.44095  Biso   1.000  U
  U2       1.0000 0.75000  0.79803  0.35708  Biso   1.000  U
  U3       1.0000 0.75000  0.55905  0.20197  Biso   1.000  U
  U4       1.0000 0.25000  0.35708  0.55905  Biso   1.000  U
  U5       1.0000 0.25000  0.20197  0.64292  Biso   1.000  U
  U6       1.0000 0.25000  0.44095  0.79803  Biso   1.000  U
  H1       1.0000 0.04150  0.91590  0.51550  Biso   1.000  H
  H2       1.0000 0.04150  0.59960  0.08410  Biso   1.000  H
  H3       1.0000 0.04150  0.48450  0.40040  Biso   1.000  H
  H4       1.0000 0.54150  0.08410  0.48450  Biso   1.000  H
  H5       1.0000 0.54150  0.40040  0.91590  Biso   1.000  H
  H6       1.0000 0.54150  0.51550  0.59960  Biso   1.000  H
  H7       1.0000 0.95850  0.08410  0.48450  Biso   1.000  H
  H8       1.0000 0.95850  0.40040  0.91590  Biso   1.000  H
  H9       1.0000 0.95850  0.51550  0.59960  Biso   1.000  H
  H10      1.0000 0.45850  0.91590  0.51550  Biso   1.000  H
  H11      1.0000 0.45850  0.59960  0.08410  Biso   1.000  H
  H12      1.0000 0.45850  0.48450  0.40040  Biso   1.000  H
  H13      1.0000 0.25000  0.70700  0.46330  Biso   1.000  H
  H14      1.0000 0.25000  0.75630  0.29300  Biso   1.000  H
  H15      1.0000 0.25000  0.53670  0.24370  Biso   1.000  H
  H16      1.0000 0.75000  0.29300  0.53670  Biso   1.000  H
  H17      1.0000 0.75000  0.24370  0.70700  Biso   1.000  H
  H18      1.0000 0.75000  0.46330  0.75630  Biso   1.000  H
  C1       1.0000 0.12700  0.80470  0.48710  Biso   1.000  C
  C2       1.0000 0.12430  0.88890  0.51070  Biso   1.000  C
  C3       1.0000 0.99360  0.76020  0.47190  Biso   1.000  C
  C4       1.0000 0.12700  0.68240  0.19530  Biso   1.000  C
  C5       1.0000 0.12430  0.62180  0.11110  Biso   1.000  C
  C6       1.0000 0.99360  0.71170  0.23980  Biso   1.000  C
  C7       1.0000 0.12700  0.51290  0.31760  Biso   1.000  C
  C8       1.0000 0.12430  0.48930  0.37820  Biso   1.000  C
  C9       1.0000 0.99360  0.52810  0.28830  Biso   1.000  C
  C10      1.0000 0.62700  0.19530  0.51290  Biso   1.000  C
  C11      1.0000 0.62430  0.11110  0.48930  Biso   1.000  C
  C12      1.0000 0.49360  0.23980  0.52810  Biso   1.000  C
  C13      1.0000 0.62700  0.31760  0.80470  Biso   1.000  C
  C14      1.0000 0.62430  0.37820  0.88890  Biso   1.000  C
  C15      1.0000 0.49360  0.28830  0.76020  Biso   1.000  C
  C16      1.0000 0.62700  0.48710  0.68240  Biso   1.000  C
  C17      1.0000 0.62430  0.51070  0.62180  Biso   1.000  C
  C18      1.0000 0.49360  0.47190  0.71170  Biso   1.000  C
  C19      1.0000 0.87300  0.19530  0.51290  Biso   1.000  C
  C20      1.0000 0.87570  0.11110  0.48930  Biso   1.000  C
  C21      1.0000 0.00640  0.23980  0.52810  Biso   1.000  C
  C22      1.0000 0.87300  0.31760  0.80470  Biso   1.000  C
  C23      1.0000 0.87570  0.37820  0.88890  Biso   1.000  C
  C24      1.0000 0.00640  0.28830  0.76020  Biso   1.000  C
  C25      1.0000 0.87300  0.48710  0.68240  Biso   1.000  C
  C26      1.0000 0.87570  0.51070  0.62180  Biso   1.000  C
  C27      1.0000 0.00640  0.47190  0.71170  Biso   1.000  C
  C28      1.0000 0.37300  0.80470  0.48710  Biso   1.000  C
  C29      1.0000 0.37570  0.88890  0.51070  Biso   1.000  C
  C30      1.0000 0.50640  0.76020  0.47190  Biso   1.000  C
  C31      1.0000 0.37300  0.68240  0.19530  Biso   1.000  C
  C32      1.0000 0.37570  0.62180  0.11110  Biso   1.000  C
  C33      1.0000 0.50640  0.71170  0.23980  Biso   1.000  C
  C34      1.0000 0.37300  0.51290  0.31760  Biso   1.000  C
  C35      1.0000 0.37570  0.48930  0.37820  Biso   1.000  C
  C36      1.0000 0.50640  0.52810  0.28830  Biso   1.000  C
  C37      1.0000 0.25000  0.93370  0.52760  Biso   1.000  C
  C38      1.0000 0.25000  0.76310  0.47700  Biso   1.000  C
  C39      1.0000 0.25000  0.02560  0.55820  Biso   1.000  C
  C40      1.0000 0.25000  0.59390  0.06630  Biso   1.000  C
  C41      1.0000 0.25000  0.71390  0.23690  Biso   1.000  C
  C42      1.0000 0.25000  0.53260  0.97440  Biso   1.000  C
  C43      1.0000 0.25000  0.47240  0.40610  Biso   1.000  C
  C44      1.0000 0.25000  0.52300  0.28610  Biso   1.000  C
  C45      1.0000 0.25000  0.44180  0.46740  Biso   1.000  C
  C46      1.0000 0.75000  0.06630  0.47240  Biso   1.000  C
  C47      1.0000 0.75000  0.23690  0.52300  Biso   1.000  C
  C48      1.0000 0.75000  0.97440  0.44180  Biso   1.000  C
  C49      1.0000 0.75000  0.40610  0.93370  Biso   1.000  C
  C50      1.0000 0.75000  0.28610  0.76310  Biso   1.000  C
  C51      1.0000 0.75000  0.46740  0.02560  Biso   1.000  C
  C52      1.0000 0.75000  0.52760  0.59390  Biso   1.000  C
  C53      1.0000 0.75000  0.47700  0.71390  Biso   1.000  C
  C54      1.0000 0.75000  0.55820  0.53260  Biso   1.000  C
  O1       1.0000 0.99130  0.68800  0.46180  Biso   1.000  O
  O2       1.0000 0.36200  0.06500  0.57100  Biso   1.000  O
  O3       1.0000 0.88400  0.79620  0.46700  Biso   1.000  O
  O4       1.0000 0.99130  0.77380  0.31200  Biso   1.000  O
  O5       1.0000 0.36200  0.50600  0.93500  Biso   1.000  O
  O6       1.0000 0.88400  0.67080  0.20380  Biso   1.000  O
  O7       1.0000 0.99130  0.53820  0.22620  Biso   1.000  O
  O8       1.0000 0.36200  0.42900  0.49400  Biso   1.000  O
  O9       1.0000 0.88400  0.53300  0.32920  Biso   1.000  O
  O10      1.0000 0.49130  0.31200  0.53820  Biso   1.000  O
  O11      1.0000 0.86200  0.93500  0.42900  Biso   1.000  O
  O12      1.0000 0.38400  0.20380  0.53300  Biso   1.000  O
  O13      1.0000 0.49130  0.22620  0.68800  Biso   1.000  O
  O14      1.0000 0.86200  0.49400  0.06500  Biso   1.000  O
  O15      1.0000 0.38400  0.32920  0.79620  Biso   1.000  O
  O16      1.0000 0.49130  0.46180  0.77380  Biso   1.000  O
  O17      1.0000 0.86200  0.57100  0.50600  Biso   1.000  O
  O18      1.0000 0.38400  0.46700  0.67080  Biso   1.000  O
  O19      1.0000 0.00870  0.31200  0.53820  Biso   1.000  O
  O20      1.0000 0.63800  0.93500  0.42900  Biso   1.000  O
  O21      1.0000 0.11600  0.20380  0.53300  Biso   1.000  O
  O22      1.0000 0.00870  0.22620  0.68800  Biso   1.000  O
  O23      1.0000 0.63800  0.49400  0.06500  Biso   1.000  O
  O24      1.0000 0.11600  0.32920  0.79620  Biso   1.000  O
  O25      1.0000 0.00870  0.46180  0.77380  Biso   1.000  O
  O26      1.0000 0.63800  0.57100  0.50600  Biso   1.000  O
  O27      1.0000 0.11600  0.46700  0.67080  Biso   1.000  O
  O28      1.0000 0.50870  0.68800  0.46180  Biso   1.000  O
  O29      1.0000 0.13800  0.06500  0.57100  Biso   1.000  O
  O30      1.0000 0.61600  0.79620  0.46700  Biso   1.000  O
  O31      1.0000 0.50870  0.77380  0.31200  Biso   1.000  O
  O32      1.0000 0.13800  0.50600  0.93500  Biso   1.000  O
  O33      1.0000 0.61600  0.67080  0.20380  Biso   1.000  O
  O34      1.0000 0.50870  0.53820  0.22620  Biso   1.000  O
  O35      1.0000 0.13800  0.42900  0.49400  Biso   1.000  O
  O36      1.0000 0.61600  0.53300  0.32920  Biso   1.000  O
  O37      1.0000 0.75000  0.74880  0.59270  Biso   1.000  O
  O38      1.0000 0.75000  0.84390  0.25120  Biso   1.000  O
  O39      1.0000 0.75000  0.40730  0.15610  Biso   1.000  O
  O40      1.0000 0.25000  0.25120  0.40730  Biso   1.000  O
  O41      1.0000 0.25000  0.15610  0.74880  Biso   1.000  O
  O42      1.0000 0.25000  0.59270  0.84390  Biso   1.000  O
  O43      1.0000 0.75000  0.66667  0.33334  Biso   1.000  O
  O44      1.0000 0.25000  0.33333  0.66666  Biso   1.000  O
