data_image0
_cell_length_a       15.1
_cell_length_b       15.677
_cell_length_c       15.677
_cell_angle_alpha    120
_cell_angle_beta     90
_cell_angle_gamma    90

_symmetry_space_group_name_H-M    P 1
_symmetry_int_tables_number       1

loop_
  _symmetry_equiv_pos_as_xyz
  'x, y, z'

loop_
  _atom_site_label
  _atom_site_occupancy
  _atom_site_fract_x
  _atom_site_fract_y
  _atom_site_fract_z
  _atom_site_thermal_displace_type
  _atom_site_B_iso_or_equiv
  _atom_site_type_symbol
  La1      1.0000 0.75000  0.33333  0.66666  Biso   1.000  La
  La2      1.0000 0.75000  0.66667  0.33334  Biso   1.000  La
  La3      1.0000 0.25000  0.66667  0.33334  Biso   1.000  La
  La4      1.0000 0.25000  0.33333  0.66666  Biso   1.000  La
  Mg1      1.0000 0.00000  0.50000  0.00000  Biso   1.000  Mg
  Mg2      1.0000 0.00000  0.50000  0.50000  Biso   1.000  Mg
  Mg3      1.0000 0.00000  0.00000  0.50000  Biso   1.000  Mg
  Mg4      1.0000 0.50000  0.50000  0.00000  Biso   1.000  Mg
  Mg5      1.0000 0.50000  0.00000  0.50000  Biso   1.000  Mg
  Mg6      1.0000 0.50000  0.50000  0.50000  Biso   1.000  Mg
  H1       1.0000 0.95370  0.47750  0.84230  Biso   1.000  H
  H2       1.0000 0.84400  0.23500  0.94660  Biso   1.000  H
  H3       1.0000 0.95370  0.36480  0.52250  Biso   1.000  H
  H4       1.0000 0.84400  0.71160  0.76500  Biso   1.000  H
  H5       1.0000 0.95370  0.15770  0.63520  Biso   1.000  H
  H6       1.0000 0.84400  0.05340  0.28840  Biso   1.000  H
  H7       1.0000 0.95370  0.52250  0.15770  Biso   1.000  H
  H8       1.0000 0.84400  0.76500  0.05340  Biso   1.000  H
  H9       1.0000 0.95370  0.63520  0.47750  Biso   1.000  H
  H10      1.0000 0.84400  0.28840  0.23500  Biso   1.000  H
  H11      1.0000 0.95370  0.84230  0.36480  Biso   1.000  H
  H12      1.0000 0.84400  0.94660  0.71160  Biso   1.000  H
  H13      1.0000 0.54630  0.63520  0.15770  Biso   1.000  H
  H14      1.0000 0.65600  0.28840  0.05340  Biso   1.000  H
  H15      1.0000 0.54630  0.84230  0.47750  Biso   1.000  H
  H16      1.0000 0.65600  0.94660  0.23500  Biso   1.000  H
  H17      1.0000 0.54630  0.52250  0.36480  Biso   1.000  H
  H18      1.0000 0.65600  0.76500  0.71160  Biso   1.000  H
  H19      1.0000 0.54630  0.36480  0.84230  Biso   1.000  H
  H20      1.0000 0.65600  0.71160  0.94660  Biso   1.000  H
  H21      1.0000 0.54630  0.15770  0.52250  Biso   1.000  H
  H22      1.0000 0.65600  0.05340  0.76500  Biso   1.000  H
  H23      1.0000 0.54630  0.47750  0.63520  Biso   1.000  H
  H24      1.0000 0.65600  0.23500  0.28840  Biso   1.000  H
  H25      1.0000 0.04630  0.52250  0.15770  Biso   1.000  H
  H26      1.0000 0.15600  0.76500  0.05340  Biso   1.000  H
  H27      1.0000 0.04630  0.63520  0.47750  Biso   1.000  H
  H28      1.0000 0.15600  0.28840  0.23500  Biso   1.000  H
  H29      1.0000 0.04630  0.84230  0.36480  Biso   1.000  H
  H30      1.0000 0.15600  0.94660  0.71160  Biso   1.000  H
  H31      1.0000 0.04630  0.47750  0.84230  Biso   1.000  H
  H32      1.0000 0.15600  0.23500  0.94660  Biso   1.000  H
  H33      1.0000 0.04630  0.36480  0.52250  Biso   1.000  H
  H34      1.0000 0.15600  0.71160  0.76500  Biso   1.000  H
  H35      1.0000 0.04630  0.15770  0.63520  Biso   1.000  H
  H36      1.0000 0.15600  0.05340  0.28840  Biso   1.000  H
  H37      1.0000 0.45370  0.36480  0.84230  Biso   1.000  H
  H38      1.0000 0.34400  0.71160  0.94660  Biso   1.000  H
  H39      1.0000 0.45370  0.15770  0.52250  Biso   1.000  H
  H40      1.0000 0.34400  0.05340  0.76500  Biso   1.000  H
  H41      1.0000 0.45370  0.47750  0.63520  Biso   1.000  H
  H42      1.0000 0.34400  0.23500  0.28840  Biso   1.000  H
  H43      1.0000 0.45370  0.63520  0.15770  Biso   1.000  H
  H44      1.0000 0.34400  0.28840  0.05340  Biso   1.000  H
  H45      1.0000 0.45370  0.84230  0.47750  Biso   1.000  H
  H46      1.0000 0.34400  0.94660  0.23500  Biso   1.000  H
  H47      1.0000 0.45370  0.52250  0.36480  Biso   1.000  H
  H48      1.0000 0.34400  0.76500  0.71160  Biso   1.000  H
  H49      1.0000 0.75000  0.10100  0.89900  Biso   1.000  H
  H50      1.0000 0.75000  0.79800  0.89900  Biso   1.000  H
  H51      1.0000 0.75000  0.10100  0.20200  Biso   1.000  H
  H52      1.0000 0.75000  0.89900  0.10100  Biso   1.000  H
  H53      1.0000 0.75000  0.20200  0.10100  Biso   1.000  H
  H54      1.0000 0.75000  0.89900  0.79800  Biso   1.000  H
  H55      1.0000 0.25000  0.89900  0.10100  Biso   1.000  H
  H56      1.0000 0.25000  0.20200  0.10100  Biso   1.000  H
  H57      1.0000 0.25000  0.89900  0.79800  Biso   1.000  H
  H58      1.0000 0.25000  0.10100  0.89900  Biso   1.000  H
  H59      1.0000 0.25000  0.79800  0.89900  Biso   1.000  H
  H60      1.0000 0.25000  0.10100  0.20200  Biso   1.000  H
  C1       1.0000 0.80574  0.21511  0.89348  Biso   1.000  C
  C2       1.0000 0.80306  0.26469  0.84108  Biso   1.000  C
  C3       1.0000 0.86094  0.35256  0.86598  Biso   1.000  C
  C4       1.0000 0.80574  0.67837  0.78489  Biso   1.000  C
  C5       1.0000 0.80306  0.57639  0.73531  Biso   1.000  C
  C6       1.0000 0.86094  0.51342  0.64744  Biso   1.000  C
  C7       1.0000 0.80574  0.10652  0.32163  Biso   1.000  C
  C8       1.0000 0.80306  0.15892  0.42361  Biso   1.000  C
  C9       1.0000 0.86094  0.13402  0.48658  Biso   1.000  C
  C10      1.0000 0.80574  0.78489  0.10652  Biso   1.000  C
  C11      1.0000 0.80306  0.73531  0.15892  Biso   1.000  C
  C12      1.0000 0.86094  0.64744  0.13402  Biso   1.000  C
  C13      1.0000 0.80574  0.32163  0.21511  Biso   1.000  C
  C14      1.0000 0.80306  0.42361  0.26469  Biso   1.000  C
  C15      1.0000 0.86094  0.48658  0.35256  Biso   1.000  C
  C16      1.0000 0.80574  0.89348  0.67837  Biso   1.000  C
  C17      1.0000 0.80306  0.84108  0.57639  Biso   1.000  C
  C18      1.0000 0.86094  0.86598  0.51342  Biso   1.000  C
  C19      1.0000 0.69426  0.32163  0.10652  Biso   1.000  C
  C20      1.0000 0.69694  0.42361  0.15892  Biso   1.000  C
  C21      1.0000 0.63906  0.48658  0.13402  Biso   1.000  C
  C22      1.0000 0.69426  0.89348  0.21511  Biso   1.000  C
  C23      1.0000 0.69694  0.84108  0.26469  Biso   1.000  C
  C24      1.0000 0.63906  0.86598  0.35256  Biso   1.000  C
  C25      1.0000 0.69426  0.78489  0.67837  Biso   1.000  C
  C26      1.0000 0.69694  0.73531  0.57639  Biso   1.000  C
  C27      1.0000 0.63906  0.64744  0.51342  Biso   1.000  C
  C28      1.0000 0.69426  0.67837  0.89348  Biso   1.000  C
  C29      1.0000 0.69694  0.57639  0.84108  Biso   1.000  C
  C30      1.0000 0.63906  0.51342  0.86598  Biso   1.000  C
  C31      1.0000 0.69426  0.10652  0.78489  Biso   1.000  C
  C32      1.0000 0.69694  0.15892  0.73531  Biso   1.000  C
  C33      1.0000 0.63906  0.13402  0.64744  Biso   1.000  C
  C34      1.0000 0.69426  0.21511  0.32163  Biso   1.000  C
  C35      1.0000 0.69694  0.26469  0.42361  Biso   1.000  C
  C36      1.0000 0.63906  0.35256  0.48658  Biso   1.000  C
  C37      1.0000 0.19426  0.78489  0.10652  Biso   1.000  C
  C38      1.0000 0.19694  0.73531  0.15892  Biso   1.000  C
  C39      1.0000 0.13906  0.64744  0.13402  Biso   1.000  C
  C40      1.0000 0.19426  0.32163  0.21511  Biso   1.000  C
  C41      1.0000 0.19694  0.42361  0.26469  Biso   1.000  C
  C42      1.0000 0.13906  0.48658  0.35256  Biso   1.000  C
  C43      1.0000 0.19426  0.89348  0.67837  Biso   1.000  C
  C44      1.0000 0.19694  0.84108  0.57639  Biso   1.000  C
  C45      1.0000 0.13906  0.86598  0.51342  Biso   1.000  C
  C46      1.0000 0.19426  0.21511  0.89348  Biso   1.000  C
  C47      1.0000 0.19694  0.26469  0.84108  Biso   1.000  C
  C48      1.0000 0.13906  0.35256  0.86598  Biso   1.000  C
  C49      1.0000 0.19426  0.67837  0.78489  Biso   1.000  C
  C50      1.0000 0.19694  0.57639  0.73531  Biso   1.000  C
  C51      1.0000 0.13906  0.51342  0.64744  Biso   1.000  C
  C52      1.0000 0.19426  0.10652  0.32163  Biso   1.000  C
  C53      1.0000 0.19694  0.15892  0.42361  Biso   1.000  C
  C54      1.0000 0.13906  0.13402  0.48658  Biso   1.000  C
  C55      1.0000 0.30574  0.67837  0.89348  Biso   1.000  C
  C56      1.0000 0.30306  0.57639  0.84108  Biso   1.000  C
  C57      1.0000 0.36094  0.51342  0.86598  Biso   1.000  C
  C58      1.0000 0.30574  0.10652  0.78489  Biso   1.000  C
  C59      1.0000 0.30306  0.15892  0.73531  Biso   1.000  C
  C60      1.0000 0.36094  0.13402  0.64744  Biso   1.000  C
  C61      1.0000 0.30574  0.21511  0.32163  Biso   1.000  C
  C62      1.0000 0.30306  0.26469  0.42361  Biso   1.000  C
  C63      1.0000 0.36094  0.35256  0.48658  Biso   1.000  C
  C64      1.0000 0.30574  0.32163  0.10652  Biso   1.000  C
  C65      1.0000 0.30306  0.42361  0.15892  Biso   1.000  C
  C66      1.0000 0.36094  0.48658  0.13402  Biso   1.000  C
  C67      1.0000 0.30574  0.89348  0.21511  Biso   1.000  C
  C68      1.0000 0.30306  0.84108  0.26469  Biso   1.000  C
  C69      1.0000 0.36094  0.86598  0.35256  Biso   1.000  C
  C70      1.0000 0.30574  0.78489  0.67837  Biso   1.000  C
  C71      1.0000 0.30306  0.73531  0.57639  Biso   1.000  C
  C72      1.0000 0.36094  0.64744  0.51342  Biso   1.000  C
  C73      1.0000 0.75000  0.13525  0.86475  Biso   1.000  C
  C74      1.0000 0.75000  0.72950  0.86475  Biso   1.000  C
  C75      1.0000 0.75000  0.13525  0.27050  Biso   1.000  C
  C76      1.0000 0.75000  0.86475  0.13525  Biso   1.000  C
  C77      1.0000 0.75000  0.27050  0.13525  Biso   1.000  C
  C78      1.0000 0.75000  0.86475  0.72950  Biso   1.000  C
  C79      1.0000 0.25000  0.86475  0.13525  Biso   1.000  C
  C80      1.0000 0.25000  0.27050  0.13525  Biso   1.000  C
  C81      1.0000 0.25000  0.86475  0.72950  Biso   1.000  C
  C82      1.0000 0.25000  0.13525  0.86475  Biso   1.000  C
  C83      1.0000 0.25000  0.72950  0.86475  Biso   1.000  C
  C84      1.0000 0.25000  0.13525  0.27050  Biso   1.000  C
  N1       1.0000 0.75000  0.23653  0.76348  Biso   1.000  N
  N2       1.0000 0.75000  0.52695  0.76348  Biso   1.000  N
  N3       1.0000 0.75000  0.23653  0.47306  Biso   1.000  N
  N4       1.0000 0.75000  0.76347  0.23652  Biso   1.000  N
  N5       1.0000 0.75000  0.47305  0.23652  Biso   1.000  N
  N6       1.0000 0.75000  0.76347  0.52694  Biso   1.000  N
  N7       1.0000 0.25000  0.76347  0.23652  Biso   1.000  N
  N8       1.0000 0.25000  0.47305  0.23652  Biso   1.000  N
  N9       1.0000 0.25000  0.76347  0.52694  Biso   1.000  N
  N10      1.0000 0.25000  0.23653  0.76348  Biso   1.000  N
  N11      1.0000 0.25000  0.52695  0.76348  Biso   1.000  N
  N12      1.0000 0.25000  0.23653  0.47306  Biso   1.000  N
  O1       1.0000 0.90539  0.38843  0.94261  Biso   1.000  O
  O2       1.0000 0.85938  0.38344  0.80493  Biso   1.000  O
  O3       1.0000 0.90539  0.55418  0.61157  Biso   1.000  O
  O4       1.0000 0.85938  0.42149  0.61656  Biso   1.000  O
  O5       1.0000 0.90539  0.05739  0.44582  Biso   1.000  O
  O6       1.0000 0.85938  0.19507  0.57851  Biso   1.000  O
  O7       1.0000 0.90539  0.61157  0.05739  Biso   1.000  O
  O8       1.0000 0.85938  0.61656  0.19507  Biso   1.000  O
  O9       1.0000 0.90539  0.44582  0.38843  Biso   1.000  O
  O10      1.0000 0.85938  0.57851  0.38344  Biso   1.000  O
  O11      1.0000 0.90539  0.94261  0.55418  Biso   1.000  O
  O12      1.0000 0.85938  0.80493  0.42149  Biso   1.000  O
  O13      1.0000 0.59461  0.44582  0.05739  Biso   1.000  O
  O14      1.0000 0.64062  0.57851  0.19507  Biso   1.000  O
  O15      1.0000 0.59461  0.94261  0.38843  Biso   1.000  O
  O16      1.0000 0.64062  0.80493  0.38344  Biso   1.000  O
  O17      1.0000 0.59461  0.61157  0.55418  Biso   1.000  O
  O18      1.0000 0.64062  0.61656  0.42149  Biso   1.000  O
  O19      1.0000 0.59461  0.55418  0.94261  Biso   1.000  O
  O20      1.0000 0.64062  0.42149  0.80493  Biso   1.000  O
  O21      1.0000 0.59461  0.05739  0.61157  Biso   1.000  O
  O22      1.0000 0.64062  0.19507  0.61656  Biso   1.000  O
  O23      1.0000 0.59461  0.38843  0.44582  Biso   1.000  O
  O24      1.0000 0.64062  0.38344  0.57851  Biso   1.000  O
  O25      1.0000 0.09461  0.61157  0.05739  Biso   1.000  O
  O26      1.0000 0.14062  0.61656  0.19507  Biso   1.000  O
  O27      1.0000 0.09461  0.44582  0.38843  Biso   1.000  O
  O28      1.0000 0.14062  0.57851  0.38344  Biso   1.000  O
  O29      1.0000 0.09461  0.94261  0.55418  Biso   1.000  O
  O30      1.0000 0.14062  0.80493  0.42149  Biso   1.000  O
  O31      1.0000 0.09461  0.38843  0.94261  Biso   1.000  O
  O32      1.0000 0.14062  0.38344  0.80493  Biso   1.000  O
  O33      1.0000 0.09461  0.55418  0.61157  Biso   1.000  O
  O34      1.0000 0.14062  0.42149  0.61656  Biso   1.000  O
  O35      1.0000 0.09461  0.05739  0.44582  Biso   1.000  O
  O36      1.0000 0.14062  0.19507  0.57851  Biso   1.000  O
  O37      1.0000 0.40539  0.55418  0.94261  Biso   1.000  O
  O38      1.0000 0.35938  0.42149  0.80493  Biso   1.000  O
  O39      1.0000 0.40539  0.05739  0.61157  Biso   1.000  O
  O40      1.0000 0.35938  0.19507  0.61656  Biso   1.000  O
  O41      1.0000 0.40539  0.38843  0.44582  Biso   1.000  O
  O42      1.0000 0.35938  0.38344  0.57851  Biso   1.000  O
  O43      1.0000 0.40539  0.44582  0.05739  Biso   1.000  O
  O44      1.0000 0.35938  0.57851  0.19507  Biso   1.000  O
  O45      1.0000 0.40539  0.94261  0.38843  Biso   1.000  O
  O46      1.0000 0.35938  0.80493  0.38344  Biso   1.000  O
  O47      1.0000 0.40539  0.61157  0.55418  Biso   1.000  O
  O48      1.0000 0.35938  0.61656  0.42149  Biso   1.000  O
  O49      1.0000 0.00000  0.51036  0.87084  Biso   1.000  O
  O50      1.0000 0.00000  0.36048  0.48964  Biso   1.000  O
  O51      1.0000 0.00000  0.12916  0.63952  Biso   1.000  O
  O52      1.0000 0.00000  0.48964  0.12916  Biso   1.000  O
  O53      1.0000 0.00000  0.63952  0.51036  Biso   1.000  O
  O54      1.0000 0.00000  0.87084  0.36048  Biso   1.000  O
  O55      1.0000 0.50000  0.63952  0.12916  Biso   1.000  O
  O56      1.0000 0.50000  0.87084  0.51036  Biso   1.000  O
  O57      1.0000 0.50000  0.48964  0.36048  Biso   1.000  O
  O58      1.0000 0.50000  0.36048  0.87084  Biso   1.000  O
  O59      1.0000 0.50000  0.12916  0.48964  Biso   1.000  O
  O60      1.0000 0.50000  0.51036  0.63952  Biso   1.000  O
