data_image0
_cell_length_a       9.3272
_cell_length_b       21.377
_cell_length_c       21.377
_cell_angle_alpha    90
_cell_angle_beta     90
_cell_angle_gamma    90

_symmetry_space_group_name_H-M    "P 1"
_symmetry_int_tables_number       1

loop_
  _symmetry_equiv_pos_as_xyz
  'x, y, z'

loop_
  _atom_site_label
  _atom_site_occupancy
  _atom_site_fract_x
  _atom_site_fract_y
  _atom_site_fract_z
  _atom_site_thermal_displace_type
  _atom_site_B_iso_or_equiv
  _atom_site_type_symbol
  Zn1      1.0000 0.42272  0.99694  0.64694  Biso   1.000  Zn
  C1       1.0000 0.13660  0.95129  0.60266  Biso   1.000  C
  H1       1.0000 0.10686  0.94020  0.64268  Biso   1.000  H
  C2       1.0000 0.25540  0.98573  0.52591  Biso   1.000  C
  H2       1.0000 0.32873  0.00427  0.50300  Biso   1.000  H
  C3       1.0000 0.25200  0.93750  0.24905  Biso   1.000  C
  H3       1.0000 0.31736  0.97000  0.25389  Biso   1.000  H
  C4       1.0000 0.08270  0.87898  0.21814  Biso   1.000  C
  H4       1.0000 0.00487  0.86484  0.19490  Biso   1.000  H
  C5       1.0000 0.05980  0.78660  0.72760  Biso   1.000  C
  H5       1.0000 0.03110  0.82588  0.71364  Biso   1.000  H
  C6       1.0000 0.07850  0.70380  0.77620  Biso   1.000  C
  H6       1.0000 0.06061  0.67252  0.80541  Biso   1.000  H
  C7       1.0000 0.92900  0.91019  0.54159  Biso   1.000  C
  C8       1.0000 0.90320  0.88144  0.48438  Biso   1.000  C
  H7       1.0000 0.97268  0.88210  0.45318  Biso   1.000  H
  C9       1.0000 0.77320  0.85175  0.47417  Biso   1.000  C
  H8       1.0000 0.75601  0.83224  0.43602  Biso   1.000  H
  C10      1.0000 0.66760  0.85080  0.52050  Biso   1.000  C
  C11      1.0000 0.69760  0.87818  0.57802  Biso   1.000  C
  H9       1.0000 0.62982  0.87651  0.60988  Biso   1.000  H
  C12      1.0000 0.82720  0.90786  0.58834  Biso   1.000  C
  H10      1.0000 0.84583  0.92629  0.62690  Biso   1.000  H
  C13      1.0000 0.32970  0.86903  0.33784  Biso   1.000  C
  C14      1.0000 0.33010  0.80703  0.35831  Biso   1.000  C
  H11      1.0000 0.28466  0.77608  0.33504  Biso   1.000  H
  C15      1.0000 0.39850  0.79234  0.41323  Biso   1.000  C
  H12      1.0000 0.39746  0.75142  0.42799  Biso   1.000  H
  C16      1.0000 0.46970  0.83893  0.44692  Biso   1.000  C
  C17      1.0000 0.47400  0.90017  0.42445  Biso   1.000  C
  H13      1.0000 0.52500  0.93070  0.44602  Biso   1.000  H
  C18      1.0000 0.40250  0.91514  0.37031  Biso   1.000  C
  H14      1.0000 0.40311  0.95606  0.35554  Biso   1.000  H
  C19      1.0000 0.43880  0.80358  0.55428  Biso   1.000  C
  C20      1.0000 0.48870  0.76663  0.60340  Biso   1.000  C
  H15      1.0000 0.58343  0.75308  0.60324  Biso   1.000  H
  C21      1.0000 0.40010  0.74980  0.65219  Biso   1.000  C
  H16      1.0000 0.43565  0.72639  0.68542  Biso   1.000  H
  C22      1.0000 0.25750  0.76813  0.65122  Biso   1.000  C
  C23      1.0000 0.20420  0.80164  0.60138  Biso   1.000  C
  H17      1.0000 0.10733  0.81193  0.60008  Biso   1.000  H
  C24      1.0000 0.29360  0.82007  0.55327  Biso   1.000  C
  H18      1.0000 0.25724  0.84346  0.52019  Biso   1.000  H
  C25      1.0000 0.63540  0.04577  0.56060  Biso   1.000  C
  C26      1.0000 0.59950  0.40042  0.76946  Biso   1.000  C
  C27      1.0000 0.78320  0.07528  0.55603  Biso   1.000  C
  C28      1.0000 0.87910  0.07240  0.60530  Biso   1.000  C
  H19      1.0000 0.85201  0.05297  0.64240  Biso   1.000  H
  C29      1.0000 0.01640  0.09825  0.60000  Biso   1.000  C
  H20      1.0000 0.07928  0.09622  0.63372  Biso   1.000  H
  C30      1.0000 0.05970  0.12702  0.54470  Biso   1.000  C
  C31      1.0000 0.96410  0.12790  0.49490  Biso   1.000  C
  H21      1.0000 0.99164  0.14571  0.45709  Biso   1.000  H
  C32      1.0000 0.82800  0.10270  0.50110  Biso   1.000  C
  H22      1.0000 0.76532  0.10425  0.46725  Biso   1.000  H
  C33      1.0000 0.54560  0.35243  0.72361  Biso   1.000  C
  C34      1.0000 0.64100  0.31990  0.68515  Biso   1.000  C
  H23      1.0000 0.73884  0.32752  0.68873  Biso   1.000  H
  C35      1.0000 0.59330  0.27663  0.64195  Biso   1.000  C
  H24      1.0000 0.65941  0.25537  0.61730  Biso   1.000  H
  C36      1.0000 0.44560  0.26422  0.63465  Biso   1.000  C
  C37      1.0000 0.35120  0.29540  0.67470  Biso   1.000  C
  H25      1.0000 0.25346  0.28738  0.67154  Biso   1.000  H
  C38      1.0000 0.39920  0.33800  0.71903  Biso   1.000  C
  H26      1.0000 0.33401  0.35708  0.74584  Biso   1.000  H
  C39      1.0000 0.39410  0.22123  0.58449  Biso   1.000  C
  C40      1.0000 0.47350  0.21230  0.53034  Biso   1.000  C
  H27      1.0000 0.56378  0.23055  0.52701  Biso   1.000  H
  C41      1.0000 0.42110  0.17690  0.48110  Biso   1.000  C
  H28      1.0000 0.47524  0.17198  0.44490  Biso   1.000  H
  C42      1.0000 0.28770  0.14870  0.48600  Biso   1.000  C
  H29      1.0000 0.25333  0.12447  0.45312  Biso   1.000  H
  C43      1.0000 0.20470  0.15626  0.53943  Biso   1.000  C
  C44      1.0000 0.26010  0.19199  0.58805  Biso   1.000  C
  H30      1.0000 0.20614  0.19664  0.62433  Biso   1.000  H
  N1       1.0000 0.26070  0.97896  0.58831  Biso   1.000  N
  N2       1.0000 0.06240  0.94221  0.55021  Biso   1.000  N
  N3       1.0000 0.13790  0.96399  0.49994  Biso   1.000  N
  N4       1.0000 0.14830  0.93555  0.20684  Biso   1.000  N
  N5       1.0000 0.24810  0.88560  0.28353  Biso   1.000  N
  N6       1.0000 0.13850  0.84650  0.26431  Biso   1.000  N
  N7       1.0000 0.00230  0.75710  0.77560  Biso   1.000  N
  N8       1.0000 0.16590  0.75237  0.70153  Biso   1.000  N
  N9       1.0000 0.18080  0.69780  0.73330  Biso   1.000  N
  N10      1.0000 0.53240  0.82371  0.50651  Biso   1.000  N
  O1       1.0000 0.59270  0.03859  0.61752  Biso   1.000  O
  O2       1.0000 0.57030  0.02970  0.51444  Biso   1.000  O
  O3       1.0000 0.50400  0.42541  0.80520  Biso   1.000  O
  O4       1.0000 0.72820  0.41497  0.77038  Biso   1.000  O
  Zn2      1.0000 0.07728  0.00306  0.14694  Biso   1.000  Zn
  C45      1.0000 0.36340  0.04871  0.10266  Biso   1.000  C
  H31      1.0000 0.39314  0.05980  0.14268  Biso   1.000  H
  C46      1.0000 0.24460  0.01427  0.02591  Biso   1.000  C
  H32      1.0000 0.17127  0.99573  0.00300  Biso   1.000  H
  C47      1.0000 0.24800  0.06250  0.74905  Biso   1.000  C
  H33      1.0000 0.18264  0.03000  0.75389  Biso   1.000  H
  C48      1.0000 0.41730  0.12102  0.71814  Biso   1.000  C
  H34      1.0000 0.49513  0.13516  0.69490  Biso   1.000  H
  C49      1.0000 0.44020  0.21340  0.22760  Biso   1.000  C
  H35      1.0000 0.46890  0.17412  0.21364  Biso   1.000  H
  C50      1.0000 0.42150  0.29620  0.27620  Biso   1.000  C
  H36      1.0000 0.43939  0.32748  0.30541  Biso   1.000  H
  C51      1.0000 0.57100  0.08981  0.04159  Biso   1.000  C
  C52      1.0000 0.59680  0.11856  0.98438  Biso   1.000  C
  H37      1.0000 0.52732  0.11790  0.95318  Biso   1.000  H
  C53      1.0000 0.72680  0.14825  0.97417  Biso   1.000  C
  H38      1.0000 0.74399  0.16776  0.93602  Biso   1.000  H
  C54      1.0000 0.83240  0.14920  0.02050  Biso   1.000  C
  C55      1.0000 0.80240  0.12182  0.07802  Biso   1.000  C
  H39      1.0000 0.87018  0.12349  0.10988  Biso   1.000  H
  C56      1.0000 0.67280  0.09214  0.08834  Biso   1.000  C
  H40      1.0000 0.65417  0.07371  0.12690  Biso   1.000  H
  C57      1.0000 0.17030  0.13097  0.83784  Biso   1.000  C
  C58      1.0000 0.16990  0.19297  0.85831  Biso   1.000  C
  H41      1.0000 0.21534  0.22392  0.83504  Biso   1.000  H
  C59      1.0000 0.10150  0.20766  0.91323  Biso   1.000  C
  H42      1.0000 0.10254  0.24858  0.92799  Biso   1.000  H
  C60      1.0000 0.03030  0.16107  0.94692  Biso   1.000  C
  C61      1.0000 0.02600  0.09983  0.92445  Biso   1.000  C
  H43      1.0000 0.97500  0.06930  0.94602  Biso   1.000  H
  C62      1.0000 0.09750  0.08486  0.87031  Biso   1.000  C
  H44      1.0000 0.09689  0.04394  0.85554  Biso   1.000  H
  C63      1.0000 0.06120  0.19642  0.05428  Biso   1.000  C
  C64      1.0000 0.01130  0.23337  0.10340  Biso   1.000  C
  H45      1.0000 0.91657  0.24692  0.10324  Biso   1.000  H
  C65      1.0000 0.09990  0.25020  0.15219  Biso   1.000  C
  H46      1.0000 0.06435  0.27361  0.18542  Biso   1.000  H
  C66      1.0000 0.24250  0.23187  0.15122  Biso   1.000  C
  C67      1.0000 0.29580  0.19836  0.10138  Biso   1.000  C
  H47      1.0000 0.39267  0.18807  0.10008  Biso   1.000  H
  C68      1.0000 0.20640  0.17993  0.05327  Biso   1.000  C
  H48      1.0000 0.24276  0.15654  0.02019  Biso   1.000  H
  C69      1.0000 0.86460  0.95423  0.06060  Biso   1.000  C
  C70      1.0000 0.90050  0.59958  0.26946  Biso   1.000  C
  C71      1.0000 0.71680  0.92472  0.05603  Biso   1.000  C
  C72      1.0000 0.62090  0.92760  0.10530  Biso   1.000  C
  H49      1.0000 0.64799  0.94703  0.14240  Biso   1.000  H
  C73      1.0000 0.48360  0.90175  0.10000  Biso   1.000  C
  H50      1.0000 0.42072  0.90378  0.13372  Biso   1.000  H
  C74      1.0000 0.44030  0.87298  0.04470  Biso   1.000  C
  C75      1.0000 0.53590  0.87210  0.99490  Biso   1.000  C
  H51      1.0000 0.50836  0.85429  0.95709  Biso   1.000  H
  C76      1.0000 0.67200  0.89730  0.00110  Biso   1.000  C
  H52      1.0000 0.73468  0.89575  0.96725  Biso   1.000  H
  C77      1.0000 0.95440  0.64757  0.22361  Biso   1.000  C
  C78      1.0000 0.85900  0.68010  0.18515  Biso   1.000  C
  H53      1.0000 0.76116  0.67248  0.18873  Biso   1.000  H
  C79      1.0000 0.90670  0.72337  0.14195  Biso   1.000  C
  H54      1.0000 0.84059  0.74463  0.11730  Biso   1.000  H
  C80      1.0000 0.05440  0.73578  0.13465  Biso   1.000  C
  C81      1.0000 0.14880  0.70460  0.17470  Biso   1.000  C
  H55      1.0000 0.24654  0.71262  0.17154  Biso   1.000  H
  C82      1.0000 0.10080  0.66200  0.21903  Biso   1.000  C
  H56      1.0000 0.16599  0.64292  0.24584  Biso   1.000  H
  C83      1.0000 0.10590  0.77877  0.08449  Biso   1.000  C
  C84      1.0000 0.02650  0.78770  0.03034  Biso   1.000  C
  H57      1.0000 0.93622  0.76945  0.02701  Biso   1.000  H
  C85      1.0000 0.07890  0.82310  0.98110  Biso   1.000  C
  H58      1.0000 0.02476  0.82802  0.94490  Biso   1.000  H
  C86      1.0000 0.21230  0.85130  0.98600  Biso   1.000  C
  H59      1.0000 0.24667  0.87553  0.95312  Biso   1.000  H
  C87      1.0000 0.29530  0.84374  0.03943  Biso   1.000  C
  C88      1.0000 0.23990  0.80801  0.08805  Biso   1.000  C
  H60      1.0000 0.29386  0.80336  0.12433  Biso   1.000  H
  N11      1.0000 0.23930  0.02104  0.08831  Biso   1.000  N
  N12      1.0000 0.43760  0.05779  0.05021  Biso   1.000  N
  N13      1.0000 0.36210  0.03601  0.99994  Biso   1.000  N
  N14      1.0000 0.35170  0.06445  0.70684  Biso   1.000  N
  N15      1.0000 0.25190  0.11440  0.78353  Biso   1.000  N
  N16      1.0000 0.36150  0.15350  0.76431  Biso   1.000  N
  N17      1.0000 0.49770  0.24290  0.27560  Biso   1.000  N
  N18      1.0000 0.33410  0.24763  0.20153  Biso   1.000  N
  N19      1.0000 0.31920  0.30220  0.23330  Biso   1.000  N
  N20      1.0000 0.96760  0.17629  0.00651  Biso   1.000  N
  O5       1.0000 0.90730  0.96141  0.11752  Biso   1.000  O
  O6       1.0000 0.92970  0.97030  0.01444  Biso   1.000  O
  O7       1.0000 0.99600  0.57459  0.30520  Biso   1.000  O
  O8       1.0000 0.77180  0.58503  0.27038  Biso   1.000  O
  Zn3      1.0000 0.57728  0.49694  0.85306  Biso   1.000  Zn
  C89      1.0000 0.86340  0.45129  0.89734  Biso   1.000  C
  H61      1.0000 0.89314  0.44020  0.85732  Biso   1.000  H
  C90      1.0000 0.74460  0.48573  0.97409  Biso   1.000  C
  H62      1.0000 0.67127  0.50427  0.99700  Biso   1.000  H
  C91      1.0000 0.74800  0.43750  0.25095  Biso   1.000  C
  H63      1.0000 0.68264  0.47000  0.24611  Biso   1.000  H
  C92      1.0000 0.91730  0.37898  0.28186  Biso   1.000  C
  H64      1.0000 0.99513  0.36484  0.30510  Biso   1.000  H
  C93      1.0000 0.94020  0.28660  0.77240  Biso   1.000  C
  H65      1.0000 0.96890  0.32588  0.78636  Biso   1.000  H
  C94      1.0000 0.92150  0.20380  0.72380  Biso   1.000  C
  H66      1.0000 0.93939  0.17252  0.69459  Biso   1.000  H
  C95      1.0000 0.07100  0.41019  0.95841  Biso   1.000  C
  C96      1.0000 0.09680  0.38144  0.01562  Biso   1.000  C
  H67      1.0000 0.02732  0.38210  0.04682  Biso   1.000  H
  C97      1.0000 0.22680  0.35175  0.02583  Biso   1.000  C
  H68      1.0000 0.24399  0.33224  0.06398  Biso   1.000  H
  C98      1.0000 0.33240  0.35080  0.97950  Biso   1.000  C
  C99      1.0000 0.30240  0.37818  0.92198  Biso   1.000  C
  H69      1.0000 0.37018  0.37651  0.89012  Biso   1.000  H
  C100     1.0000 0.17280  0.40786  0.91166  Biso   1.000  C
  H70      1.0000 0.15417  0.42629  0.87310  Biso   1.000  H
  C101     1.0000 0.67030  0.36903  0.16216  Biso   1.000  C
  C102     1.0000 0.66990  0.30703  0.14169  Biso   1.000  C
  H71      1.0000 0.71534  0.27608  0.16496  Biso   1.000  H
  C103     1.0000 0.60150  0.29234  0.08677  Biso   1.000  C
  H72      1.0000 0.60254  0.25142  0.07201  Biso   1.000  H
  C104     1.0000 0.53030  0.33893  0.05308  Biso   1.000  C
  C105     1.0000 0.52600  0.40017  0.07555  Biso   1.000  C
  H73      1.0000 0.47500  0.43070  0.05398  Biso   1.000  H
  C106     1.0000 0.59750  0.41514  0.12969  Biso   1.000  C
  H74      1.0000 0.59689  0.45606  0.14446  Biso   1.000  H
  C107     1.0000 0.56120  0.30358  0.94572  Biso   1.000  C
  C108     1.0000 0.51130  0.26663  0.89660  Biso   1.000  C
  H75      1.0000 0.41657  0.25308  0.89676  Biso   1.000  H
  C109     1.0000 0.59990  0.24980  0.84781  Biso   1.000  C
  H76      1.0000 0.56435  0.22639  0.81458  Biso   1.000  H
  C110     1.0000 0.74250  0.26813  0.84878  Biso   1.000  C
  C111     1.0000 0.79580  0.30164  0.89862  Biso   1.000  C
  H77      1.0000 0.89267  0.31193  0.89992  Biso   1.000  H
  C112     1.0000 0.70640  0.32007  0.94673  Biso   1.000  C
  H78      1.0000 0.74276  0.34346  0.97981  Biso   1.000  H
  C113     1.0000 0.36460  0.54577  0.93940  Biso   1.000  C
  C114     1.0000 0.40050  0.90042  0.73054  Biso   1.000  C
  C115     1.0000 0.21680  0.57528  0.94397  Biso   1.000  C
  C116     1.0000 0.12090  0.57240  0.89470  Biso   1.000  C
  H79      1.0000 0.14799  0.55297  0.85760  Biso   1.000  H
  C117     1.0000 0.98360  0.59825  0.90000  Biso   1.000  C
  H80      1.0000 0.92072  0.59622  0.86628  Biso   1.000  H
  C118     1.0000 0.94030  0.62702  0.95530  Biso   1.000  C
  C119     1.0000 0.03590  0.62790  0.00510  Biso   1.000  C
  H81      1.0000 0.00836  0.64571  0.04291  Biso   1.000  H
  C120     1.0000 0.17200  0.60270  0.99890  Biso   1.000  C
  H82      1.0000 0.23468  0.60425  0.03275  Biso   1.000  H
  C121     1.0000 0.45440  0.85243  0.77639  Biso   1.000  C
  C122     1.0000 0.35900  0.81990  0.81485  Biso   1.000  C
  H83      1.0000 0.26116  0.82752  0.81127  Biso   1.000  H
  C123     1.0000 0.40670  0.77663  0.85805  Biso   1.000  C
  H84      1.0000 0.34059  0.75537  0.88270  Biso   1.000  H
  C124     1.0000 0.55440  0.76422  0.86535  Biso   1.000  C
  C125     1.0000 0.64880  0.79540  0.82530  Biso   1.000  C
  H85      1.0000 0.74654  0.78738  0.82846  Biso   1.000  H
  C126     1.0000 0.60080  0.83800  0.78097  Biso   1.000  C
  H86      1.0000 0.66599  0.85708  0.75416  Biso   1.000  H
  C127     1.0000 0.60590  0.72123  0.91551  Biso   1.000  C
  C128     1.0000 0.52650  0.71230  0.96966  Biso   1.000  C
  H87      1.0000 0.43622  0.73055  0.97299  Biso   1.000  H
  C129     1.0000 0.57890  0.67690  0.01890  Biso   1.000  C
  H88      1.0000 0.52476  0.67198  0.05510  Biso   1.000  H
  C130     1.0000 0.71230  0.64870  0.01400  Biso   1.000  C
  H89      1.0000 0.74667  0.62447  0.04688  Biso   1.000  H
  C131     1.0000 0.79530  0.65626  0.96057  Biso   1.000  C
  C132     1.0000 0.73990  0.69199  0.91195  Biso   1.000  C
  H90      1.0000 0.79386  0.69664  0.87567  Biso   1.000  H
  N21      1.0000 0.73930  0.47896  0.91169  Biso   1.000  N
  N22      1.0000 0.93760  0.44221  0.94979  Biso   1.000  N
  N23      1.0000 0.86210  0.46399  0.00006  Biso   1.000  N
  N24      1.0000 0.85170  0.43555  0.29316  Biso   1.000  N
  N25      1.0000 0.75190  0.38560  0.21647  Biso   1.000  N
  N26      1.0000 0.86150  0.34650  0.23569  Biso   1.000  N
  N27      1.0000 0.99770  0.25710  0.72440  Biso   1.000  N
  N28      1.0000 0.83410  0.25237  0.79847  Biso   1.000  N
  N29      1.0000 0.81920  0.19780  0.76670  Biso   1.000  N
  N30      1.0000 0.46760  0.32371  0.99349  Biso   1.000  N
  O9       1.0000 0.40730  0.53859  0.88248  Biso   1.000  O
  O10      1.0000 0.42970  0.52970  0.98556  Biso   1.000  O
  O11      1.0000 0.49600  0.92541  0.69480  Biso   1.000  O
  O12      1.0000 0.27180  0.91497  0.72962  Biso   1.000  O
  Zn4      1.0000 0.92272  0.50306  0.35306  Biso   1.000  Zn
  C133     1.0000 0.63660  0.54871  0.39734  Biso   1.000  C
  H91      1.0000 0.60686  0.55980  0.35732  Biso   1.000  H
  C134     1.0000 0.75540  0.51427  0.47409  Biso   1.000  C
  H92      1.0000 0.82873  0.49573  0.49700  Biso   1.000  H
  C135     1.0000 0.75200  0.56250  0.75095  Biso   1.000  C
  H93      1.0000 0.81736  0.53000  0.74611  Biso   1.000  H
  C136     1.0000 0.58270  0.62102  0.78186  Biso   1.000  C
  H94      1.0000 0.50487  0.63516  0.80510  Biso   1.000  H
  C137     1.0000 0.55980  0.71340  0.27240  Biso   1.000  C
  H95      1.0000 0.53110  0.67412  0.28636  Biso   1.000  H
  C138     1.0000 0.57850  0.79620  0.22380  Biso   1.000  C
  H96      1.0000 0.56061  0.82748  0.19459  Biso   1.000  H
  C139     1.0000 0.42900  0.58981  0.45841  Biso   1.000  C
  C140     1.0000 0.40320  0.61856  0.51562  Biso   1.000  C
  H97      1.0000 0.47268  0.61790  0.54682  Biso   1.000  H
  C141     1.0000 0.27320  0.64825  0.52583  Biso   1.000  C
  H98      1.0000 0.25601  0.66776  0.56398  Biso   1.000  H
  C142     1.0000 0.16760  0.64920  0.47950  Biso   1.000  C
  C143     1.0000 0.19760  0.62182  0.42198  Biso   1.000  C
  H99      1.0000 0.12982  0.62349  0.39012  Biso   1.000  H
  C144     1.0000 0.32720  0.59214  0.41166  Biso   1.000  C
  H100     1.0000 0.34583  0.57371  0.37310  Biso   1.000  H
  C145     1.0000 0.82970  0.63097  0.66216  Biso   1.000  C
  C146     1.0000 0.83010  0.69297  0.64169  Biso   1.000  C
  H101     1.0000 0.78466  0.72392  0.66496  Biso   1.000  H
  C147     1.0000 0.89850  0.70766  0.58677  Biso   1.000  C
  H102     1.0000 0.89746  0.74858  0.57201  Biso   1.000  H
  C148     1.0000 0.96970  0.66107  0.55308  Biso   1.000  C
  C149     1.0000 0.97400  0.59983  0.57555  Biso   1.000  C
  H103     1.0000 0.02500  0.56930  0.55398  Biso   1.000  H
  C150     1.0000 0.90250  0.58486  0.62969  Biso   1.000  C
  H104     1.0000 0.90311  0.54394  0.64446  Biso   1.000  H
  C151     1.0000 0.93880  0.69642  0.44572  Biso   1.000  C
  C152     1.0000 0.98870  0.73337  0.39660  Biso   1.000  C
  H105     1.0000 0.08343  0.74692  0.39676  Biso   1.000  H
  C153     1.0000 0.90010  0.75020  0.34781  Biso   1.000  C
  H106     1.0000 0.93565  0.77361  0.31458  Biso   1.000  H
  C154     1.0000 0.75750  0.73187  0.34878  Biso   1.000  C
  C155     1.0000 0.70420  0.69836  0.39862  Biso   1.000  C
  H107     1.0000 0.60733  0.68807  0.39992  Biso   1.000  H
  C156     1.0000 0.79360  0.67993  0.44673  Biso   1.000  C
  H108     1.0000 0.75724  0.65654  0.47981  Biso   1.000  H
  C157     1.0000 0.13540  0.45423  0.43940  Biso   1.000  C
  C158     1.0000 0.09950  0.09958  0.23054  Biso   1.000  C
  C159     1.0000 0.28320  0.42472  0.44397  Biso   1.000  C
  C160     1.0000 0.37910  0.42760  0.39470  Biso   1.000  C
  H109     1.0000 0.35201  0.44703  0.35760  Biso   1.000  H
  C161     1.0000 0.51640  0.40175  0.40000  Biso   1.000  C
  H110     1.0000 0.57928  0.40378  0.36628  Biso   1.000  H
  C162     1.0000 0.55970  0.37298  0.45530  Biso   1.000  C
  C163     1.0000 0.46410  0.37210  0.50510  Biso   1.000  C
  H111     1.0000 0.49164  0.35429  0.54291  Biso   1.000  H
  C164     1.0000 0.32800  0.39730  0.49890  Biso   1.000  C
  H112     1.0000 0.26532  0.39575  0.53275  Biso   1.000  H
  C165     1.0000 0.04560  0.14757  0.27639  Biso   1.000  C
  C166     1.0000 0.14100  0.18010  0.31485  Biso   1.000  C
  H113     1.0000 0.23884  0.17248  0.31127  Biso   1.000  H
  C167     1.0000 0.09330  0.22337  0.35805  Biso   1.000  C
  H114     1.0000 0.15941  0.24463  0.38270  Biso   1.000  H
  C168     1.0000 0.94560  0.23578  0.36535  Biso   1.000  C
  C169     1.0000 0.85120  0.20460  0.32530  Biso   1.000  C
  H115     1.0000 0.75346  0.21262  0.32846  Biso   1.000  H
  C170     1.0000 0.89920  0.16200  0.28097  Biso   1.000  C
  H116     1.0000 0.83401  0.14292  0.25416  Biso   1.000  H
  C171     1.0000 0.89410  0.27877  0.41551  Biso   1.000  C
  C172     1.0000 0.97350  0.28770  0.46966  Biso   1.000  C
  H117     1.0000 0.06378  0.26945  0.47299  Biso   1.000  H
  C173     1.0000 0.92110  0.32310  0.51890  Biso   1.000  C
  H118     1.0000 0.97524  0.32802  0.55510  Biso   1.000  H
  C174     1.0000 0.78770  0.35130  0.51400  Biso   1.000  C
  H119     1.0000 0.75333  0.37553  0.54688  Biso   1.000  H
  C175     1.0000 0.70470  0.34374  0.46057  Biso   1.000  C
  C176     1.0000 0.76010  0.30801  0.41195  Biso   1.000  C
  H120     1.0000 0.70614  0.30336  0.37567  Biso   1.000  H
  N31      1.0000 0.76070  0.52104  0.41169  Biso   1.000  N
  N32      1.0000 0.56240  0.55779  0.44979  Biso   1.000  N
  N33      1.0000 0.63790  0.53601  0.50006  Biso   1.000  N
  N34      1.0000 0.64830  0.56445  0.79316  Biso   1.000  N
  N35      1.0000 0.74810  0.61440  0.71647  Biso   1.000  N
  N36      1.0000 0.63850  0.65350  0.73569  Biso   1.000  N
  N37      1.0000 0.50230  0.74290  0.22440  Biso   1.000  N
  N38      1.0000 0.66590  0.74763  0.29847  Biso   1.000  N
  N39      1.0000 0.68080  0.80220  0.26670  Biso   1.000  N
  N40      1.0000 0.03240  0.67629  0.49349  Biso   1.000  N
  O13      1.0000 0.09270  0.46141  0.38248  Biso   1.000  O
  O14      1.0000 0.07030  0.47030  0.48556  Biso   1.000  O
  O15      1.0000 0.00400  0.07459  0.19480  Biso   1.000  O
  O16      1.0000 0.22820  0.08503  0.22962  Biso   1.000  O
