data_image0
_cell_length_a       9.4299
_cell_length_b       16.49
_cell_length_c       11.2803
_cell_angle_alpha    90
_cell_angle_beta     97.731
_cell_angle_gamma    90

_symmetry_space_group_name_H-M    "P 1"
_symmetry_int_tables_number       1

loop_
  _symmetry_equiv_pos_as_xyz
  'x, y, z'

loop_
  _atom_site_label
  _atom_site_occupancy
  _atom_site_fract_x
  _atom_site_fract_y
  _atom_site_fract_z
  _atom_site_thermal_displace_type
  _atom_site_B_iso_or_equiv
  _atom_site_type_symbol
  Zn1      1.0000 0.36663  0.07754  0.04912  Biso   1.000  Zn
  O1       1.0000 0.70782  0.42033  0.64209  Biso   1.000  O
  O2       1.0000 0.42611  0.16307  0.94959  Biso   1.000  O
  O3       1.0000 0.19357  0.19128  0.91002  Biso   1.000  O
  O4       1.0000 0.76876  0.29717  0.71263  Biso   1.000  O
  O5       1.0000 0.04506  0.43598  0.66162  Biso   1.000  O
  O6       1.0000 0.19979  0.47992  0.54118  Biso   1.000  O
  C1       1.0000 0.31931  0.20450  0.89944  Biso   1.000  C
  C2       1.0000 0.35723  0.27321  0.82068  Biso   1.000  C
  C3       1.0000 0.49738  0.28345  0.79720  Biso   1.000  C
  H1       1.0000 0.56900  0.24920  0.83300  Biso   1.000  H
  C4       1.0000 0.53114  0.34459  0.72043  Biso   1.000  C
  C5       1.0000 0.42349  0.39558  0.66719  Biso   1.000  C
  H2       1.0000 0.44550  0.43660  0.61610  Biso   1.000  H
  C6       1.0000 0.28256  0.38561  0.68989  Biso   1.000  C
  C7       1.0000 0.25010  0.32461  0.76714  Biso   1.000  C
  H3       1.0000 0.15650  0.31810  0.78310  Biso   1.000  H
  C8       1.0000 0.68085  0.35312  0.69043  Biso   1.000  C
  C9       1.0000 0.16661  0.43820  0.62652  Biso   1.000  C
  Zn2      1.0000 0.13337  0.57754  0.45088  Biso   1.000  Zn
  O7       1.0000 0.79218  0.92033  0.85791  Biso   1.000  O
  O8       1.0000 0.07389  0.66307  0.55041  Biso   1.000  O
  O9       1.0000 0.30643  0.69128  0.58998  Biso   1.000  O
  O10      1.0000 0.73124  0.79717  0.78737  Biso   1.000  O
  O11      1.0000 0.45494  0.93598  0.83838  Biso   1.000  O
  O12      1.0000 0.30021  0.97992  0.95882  Biso   1.000  O
  C10      1.0000 0.18069  0.70450  0.60056  Biso   1.000  C
  C11      1.0000 0.14277  0.77321  0.67932  Biso   1.000  C
  C12      1.0000 0.00262  0.78345  0.70280  Biso   1.000  C
  H4       1.0000 0.93100  0.74920  0.66700  Biso   1.000  H
  C13      1.0000 0.96886  0.84459  0.77957  Biso   1.000  C
  C14      1.0000 0.07651  0.89558  0.83281  Biso   1.000  C
  H5       1.0000 0.05450  0.93660  0.88390  Biso   1.000  H
  C15      1.0000 0.21744  0.88561  0.81011  Biso   1.000  C
  C16      1.0000 0.24990  0.82461  0.73286  Biso   1.000  C
  H6       1.0000 0.34350  0.81810  0.71690  Biso   1.000  H
  C17      1.0000 0.81915  0.85312  0.80957  Biso   1.000  C
  C18      1.0000 0.33339  0.93820  0.87348  Biso   1.000  C
  Zn3      1.0000 0.63337  0.92246  0.95088  Biso   1.000  Zn
  O13      1.0000 0.29218  0.57967  0.35791  Biso   1.000  O
  O14      1.0000 0.57389  0.83693  0.05041  Biso   1.000  O
  O15      1.0000 0.80643  0.80872  0.08998  Biso   1.000  O
  O16      1.0000 0.23124  0.70283  0.28737  Biso   1.000  O
  O17      1.0000 0.95494  0.56402  0.33838  Biso   1.000  O
  O18      1.0000 0.80021  0.52008  0.45882  Biso   1.000  O
  C19      1.0000 0.68069  0.79550  0.10056  Biso   1.000  C
  C20      1.0000 0.64277  0.72679  0.17932  Biso   1.000  C
  C21      1.0000 0.50262  0.71655  0.20280  Biso   1.000  C
  H7       1.0000 0.43100  0.75080  0.16700  Biso   1.000  H
  C22      1.0000 0.46886  0.65541  0.27957  Biso   1.000  C
  C23      1.0000 0.57651  0.60442  0.33281  Biso   1.000  C
  H8       1.0000 0.55450  0.56340  0.38390  Biso   1.000  H
  C24      1.0000 0.71744  0.61439  0.31011  Biso   1.000  C
  C25      1.0000 0.74990  0.67539  0.23286  Biso   1.000  C
  H9       1.0000 0.84350  0.68190  0.21690  Biso   1.000  H
  C26      1.0000 0.31915  0.64688  0.30957  Biso   1.000  C
  C27      1.0000 0.83339  0.56180  0.37348  Biso   1.000  C
  Zn4      1.0000 0.86663  0.42246  0.54912  Biso   1.000  Zn
  O19      1.0000 0.20782  0.07967  0.14209  Biso   1.000  O
  O20      1.0000 0.92611  0.33693  0.44959  Biso   1.000  O
  O21      1.0000 0.69357  0.30872  0.41002  Biso   1.000  O
  O22      1.0000 0.26876  0.20283  0.21263  Biso   1.000  O
  O23      1.0000 0.54506  0.06402  0.16162  Biso   1.000  O
  O24      1.0000 0.69979  0.02008  0.04118  Biso   1.000  O
  C28      1.0000 0.81931  0.29550  0.39944  Biso   1.000  C
  C29      1.0000 0.85723  0.22679  0.32068  Biso   1.000  C
  C30      1.0000 0.99738  0.21655  0.29720  Biso   1.000  C
  H10      1.0000 0.06900  0.25080  0.33300  Biso   1.000  H
  C31      1.0000 0.03114  0.15541  0.22043  Biso   1.000  C
  C32      1.0000 0.92349  0.10442  0.16719  Biso   1.000  C
  H11      1.0000 0.94550  0.06340  0.11610  Biso   1.000  H
  C33      1.0000 0.78256  0.11439  0.18989  Biso   1.000  C
  C34      1.0000 0.75010  0.17539  0.26714  Biso   1.000  C
  H12      1.0000 0.65650  0.18190  0.28310  Biso   1.000  H
  C35      1.0000 0.18085  0.14688  0.19043  Biso   1.000  C
  C36      1.0000 0.66661  0.06180  0.12652  Biso   1.000  C
