data_NANYUX_charged
_audit_creation_date              2014-07-02
_audit_creation_method            'Materials Studio'
_symmetry_space_group_name_H-M    'P1'
_symmetry_Int_Tables_number       1
_symmetry_cell_setting            triclinic
loop_
_symmetry_equiv_pos_as_xyz
  x,y,z
_cell_length_a                    9.4550
_cell_length_b                    11.0347
_cell_length_c                    16.0074
_cell_angle_alpha                 90.0000
_cell_angle_beta                  90.0000
_cell_angle_gamma                 98.4660
loop_
_atom_site_label
_atom_site_type_symbol
_atom_site_fract_x
_atom_site_fract_y
_atom_site_fract_z
_atom_site_U_iso_or_equiv
_atom_site_adp_type
_atom_site_occupancy
Zn1    Zn    0.86887   0.06871   0.92005   0.01267  Uiso   1.00
Zn2    Zn    0.63113   0.43129   0.42005   0.01267  Uiso   1.00
Zn3    Zn    0.13113   0.93129   0.07995   0.01267  Uiso   1.00
Zn4    Zn    0.36887   0.56871   0.57995   0.01267  Uiso   1.00
H1     H     0.55400   0.86100   0.04700   0.01267  Uiso   1.00
H2     H     0.41500   0.60400   0.22300   0.01267  Uiso   1.00
H3     H     0.83800   0.67700   0.15800   0.01267  Uiso   1.00
H4     H     0.94600   0.63900   0.54700   0.01267  Uiso   1.00
H5     H     0.08500   0.89600   0.72300   0.01267  Uiso   1.00
H6     H     0.66200   0.82300   0.65800   0.01267  Uiso   1.00
H7     H     0.44600   0.13900   0.95300   0.01267  Uiso   1.00
H8     H     0.58500   0.39600   0.77700   0.01267  Uiso   1.00
H9     H     0.16200   0.32300   0.84200   0.01267  Uiso   1.00
H10    H     0.05400   0.36100   0.45300   0.01267  Uiso   1.00
H11    H     0.91500   0.10400   0.27700   0.01267  Uiso   1.00
H12    H     0.33800   0.17700   0.34200   0.01267  Uiso   1.00
C1     C     0.83040   0.85540   0.04430   0.01267  Uiso   1.00
C2     C     0.31330   0.76630   0.12329   0.01267  Uiso   1.00
C3     C     0.67180   0.54110   0.26520   0.01267  Uiso   1.00
C4     C     0.71390   0.77980   0.09330   0.01267  Uiso   1.00
C5     C     0.57310   0.80180   0.08377   0.01267  Uiso   1.00
C6     C     0.46390   0.73860   0.13127   0.01267  Uiso   1.00
C7     C     0.49630   0.65250   0.18917   0.01267  Uiso   1.00
C8     C     0.63600   0.62930   0.19910   0.01267  Uiso   1.00
C9     C     0.74520   0.69280   0.15034   0.01267  Uiso   1.00
C10    C     0.66960   0.64460   0.54430   0.01267  Uiso   1.00
C11    C     0.18670   0.73370   0.62329   0.01267  Uiso   1.00
C12    C     0.82820   0.95890   0.76520   0.01267  Uiso   1.00
C13    C     0.78610   0.72020   0.59330   0.01267  Uiso   1.00
C14    C     0.92690   0.69820   0.58377   0.01267  Uiso   1.00
C15    C     0.03610   0.76140   0.63127   0.01267  Uiso   1.00
C16    C     0.00370   0.84750   0.68917   0.01267  Uiso   1.00
C17    C     0.86400   0.87070   0.69910   0.01267  Uiso   1.00
C18    C     0.75480   0.80720   0.65034   0.01267  Uiso   1.00
C19    C     0.16960   0.14460   0.95570   0.01267  Uiso   1.00
C20    C     0.68670   0.23370   0.87671   0.01267  Uiso   1.00
C21    C     0.32820   0.45890   0.73480   0.01267  Uiso   1.00
C22    C     0.28610   0.22020   0.90670   0.01267  Uiso   1.00
C23    C     0.42690   0.19820   0.91623   0.01267  Uiso   1.00
C24    C     0.53610   0.26140   0.86873   0.01267  Uiso   1.00
C25    C     0.50370   0.34750   0.81083   0.01267  Uiso   1.00
C26    C     0.36400   0.37070   0.80090   0.01267  Uiso   1.00
C27    C     0.25480   0.30720   0.84966   0.01267  Uiso   1.00
C28    C     0.33040   0.35540   0.45570   0.01267  Uiso   1.00
C29    C     0.81330   0.26630   0.37671   0.01267  Uiso   1.00
C30    C     0.17180   0.04110   0.23480   0.01267  Uiso   1.00
C31    C     0.21390   0.27980   0.40670   0.01267  Uiso   1.00
C32    C     0.07310   0.30180   0.41623   0.01267  Uiso   1.00
C33    C     0.96390   0.23860   0.36873   0.01267  Uiso   1.00
C34    C     0.99630   0.15250   0.31083   0.01267  Uiso   1.00
C35    C     0.13600   0.12930   0.30090   0.01267  Uiso   1.00
C36    C     0.24520   0.19280   0.34966   0.01267  Uiso   1.00
O1     O     0.79700   0.94460   0.00498   0.01267  Uiso   1.00
O2     O     0.95430   0.82530   0.04746   0.01267  Uiso   1.00
O3     O     0.29440   0.84520   0.06788   0.01267  Uiso   1.00
O4     O     0.21770   0.71470   0.16975   0.01267  Uiso   1.00
O5     O     0.57670   0.51370   0.32157   0.01267  Uiso   1.00
O6     O     0.78680   0.50220   0.26250   0.01267  Uiso   1.00
O7     O     0.70300   0.55540   0.50498   0.01267  Uiso   1.00
O8     O     0.54570   0.67470   0.54746   0.01267  Uiso   1.00
O9     O     0.20560   0.65480   0.56788   0.01267  Uiso   1.00
O10    O     0.28230   0.78530   0.66975   0.01267  Uiso   1.00
O11    O     0.92330   0.98630   0.82157   0.01267  Uiso   1.00
O12    O     0.71320   0.99780   0.76250   0.01267  Uiso   1.00
O13    O     0.20300   0.05540   0.99502   0.01267  Uiso   1.00
O14    O     0.04570   0.17470   0.95254   0.01267  Uiso   1.00
O15    O     0.70560   0.15480   0.93212   0.01267  Uiso   1.00
O16    O     0.78230   0.28530   0.83025   0.01267  Uiso   1.00
O17    O     0.42330   0.48630   0.67843   0.01267  Uiso   1.00
O18    O     0.21320   0.49780   0.73750   0.01267  Uiso   1.00
O19    O     0.29700   0.44460   0.49502   0.01267  Uiso   1.00
O20    O     0.45430   0.32530   0.45254   0.01267  Uiso   1.00
O21    O     0.79440   0.34520   0.43212   0.01267  Uiso   1.00
O22    O     0.71770   0.21470   0.33025   0.01267  Uiso   1.00
O23    O     0.07670   0.01370   0.17843   0.01267  Uiso   1.00
O24    O     0.28680   0.00220   0.23750   0.01267  Uiso   1.00
H13    H     0.91540   0.40470   0.58380   0.01267  Uiso   1.00
H14    H     0.98540   0.42440   0.67240   0.01267  Uiso   1.00
H15    H     0.82930   0.45200   0.65760   0.01267  Uiso   1.00
H16    H     0.63330   0.28120   0.64480   0.01267  Uiso   1.00
H17    H     0.66760   0.14640   0.64290   0.01267  Uiso   1.00
H18    H     0.70990   0.23390   0.56700   0.01267  Uiso   1.00
H19    H     0.91100   0.22500   0.65500   0.01267  Uiso   1.00
H20    H     0.82000   0.26400   0.73000   0.01267  Uiso   1.00
C37    C     0.89770   0.39940   0.64280   0.01267  Uiso   1.00
C38    C     0.70070   0.22950   0.62670   0.01267  Uiso   1.00
N1     N     0.84030   0.27070   0.66540   0.01267  Uiso   1.00
H21    H     0.58460   0.09530   0.08380   0.01267  Uiso   1.00
H22    H     0.51460   0.07560   0.17240   0.01267  Uiso   1.00
H23    H     0.67070   0.04800   0.15760   0.01267  Uiso   1.00
H24    H     0.86670   0.21880   0.14480   0.01267  Uiso   1.00
H25    H     0.83240   0.35360   0.14290   0.01267  Uiso   1.00
H26    H     0.79010   0.26610   0.06700   0.01267  Uiso   1.00
H27    H     0.58900   0.27500   0.15500   0.01267  Uiso   1.00
H28    H     0.68000   0.23600   0.23000   0.01267  Uiso   1.00
C39    C     0.60230   0.10060   0.14280   0.01267  Uiso   1.00
C40    C     0.79930   0.27050   0.12670   0.01267  Uiso   1.00
N2     N     0.65970   0.22930   0.16540   0.01267  Uiso   1.00
H29    H     0.08460   0.59530   0.41620   0.01267  Uiso   1.00
H30    H     0.01460   0.57560   0.32760   0.01267  Uiso   1.00
H31    H     0.17070   0.54800   0.34240   0.01267  Uiso   1.00
H32    H     0.36670   0.71880   0.35520   0.01267  Uiso   1.00
H33    H     0.33240   0.85360   0.35710   0.01267  Uiso   1.00
H34    H     0.29010   0.76610   0.43300   0.01267  Uiso   1.00
H35    H     0.08900   0.77500   0.34500   0.01267  Uiso   1.00
H36    H     0.18000   0.73600   0.27000   0.01267  Uiso   1.00
C41    C     0.10230   0.60060   0.35720   0.01267  Uiso   1.00
C42    C     0.29930   0.77050   0.37330   0.01267  Uiso   1.00
N3     N     0.15970   0.72930   0.33460   0.01267  Uiso   1.00
H37    H     0.41540   0.90470   0.91620   0.01267  Uiso   1.00
H38    H     0.48540   0.92440   0.82760   0.01267  Uiso   1.00
H39    H     0.32930   0.95200   0.84240   0.01267  Uiso   1.00
H40    H     0.13330   0.78120   0.85520   0.01267  Uiso   1.00
H41    H     0.16760   0.64640   0.85710   0.01267  Uiso   1.00
H42    H     0.20990   0.73390   0.93300   0.01267  Uiso   1.00
H43    H     0.41100   0.72500   0.84500   0.01267  Uiso   1.00
H44    H     0.32000   0.76400   0.77000   0.01267  Uiso   1.00
C43    C     0.39770   0.89940   0.85720   0.01267  Uiso   1.00
C44    C     0.20070   0.72950   0.87330   0.01267  Uiso   1.00
N4     N     0.34030   0.77070   0.83460   0.01267  Uiso   1.00
