data_image0
_cell_length_a       12.5583
_cell_length_b       14.5949
_cell_length_c       25.741
_cell_angle_alpha    100.093
_cell_angle_beta     90
_cell_angle_gamma    90

_symmetry_space_group_name_H-M    P 1
_symmetry_int_tables_number       1

loop_
  _symmetry_equiv_pos_as_xyz
  'x, y, z'

loop_
  _atom_site_label
  _atom_site_occupancy
  _atom_site_fract_x
  _atom_site_fract_y
  _atom_site_fract_z
  _atom_site_thermal_displace_type
  _atom_site_B_iso_or_equiv
  _atom_site_type_symbol
  Zn1      1.0000 0.10479  0.88344  0.87660  Biso   1.000  Zn
  Zn2      1.0000 0.72139  0.01732  0.19449  Biso   1.000  Zn
  Zn3      1.0000 0.92478  0.93005  0.47016  Biso   1.000  Zn
  Zn4      1.0000 0.60479  0.61656  0.62340  Biso   1.000  Zn
  Zn5      1.0000 0.22139  0.48268  0.30551  Biso   1.000  Zn
  Zn6      1.0000 0.42478  0.56995  0.02984  Biso   1.000  Zn
  Zn7      1.0000 0.89521  0.11656  0.12340  Biso   1.000  Zn
  Zn8      1.0000 0.27861  0.98268  0.80551  Biso   1.000  Zn
  Zn9      1.0000 0.07522  0.06995  0.52984  Biso   1.000  Zn
  Zn10     1.0000 0.39521  0.38344  0.37660  Biso   1.000  Zn
  Zn11     1.0000 0.77861  0.51732  0.69449  Biso   1.000  Zn
  Zn12     1.0000 0.57522  0.43005  0.97016  Biso   1.000  Zn
  H1       1.0000 0.81940  0.70140  0.31260  Biso   1.000  H
  H2       1.0000 0.59030  0.50910  0.45150  Biso   1.000  H
  H3       1.0000 0.04710  0.98680  0.68350  Biso   1.000  H
  H4       1.0000 0.51810  0.06690  0.17700  Biso   1.000  H
  H5       1.0000 0.77400  0.78740  0.49320  Biso   1.000  H
  H6       1.0000 0.61180  0.84460  0.20940  Biso   1.000  H
  H7       1.0000 0.70990  0.06020  0.31290  Biso   1.000  H
  H8       1.0000 0.88970  0.83520  0.35860  Biso   1.000  H
  H9       1.0000 0.51790  0.71240  0.23840  Biso   1.000  H
  H10      1.0000 0.71720  0.54940  0.31290  Biso   1.000  H
  H11      1.0000 0.45150  0.64440  0.30610  Biso   1.000  H
  H12      1.0000 0.62680  0.45720  0.36260  Biso   1.000  H
  H13      1.0000 0.64830  0.99630  0.38210  Biso   1.000  H
  H14      1.0000 0.66220  0.64710  0.49550  Biso   1.000  H
  H15      1.0000 0.47150  0.71960  0.39420  Biso   1.000  H
  H16      1.0000 0.55650  0.86040  0.41490  Biso   1.000  H
  H17      1.0000 0.92780  0.88880  0.00910  Biso   1.000  H
  H18      1.0000 0.90930  0.78550  0.75060  Biso   1.000  H
  H19      1.0000 0.68470  0.77120  0.07690  Biso   1.000  H
  H20      1.0000 0.83140  0.81170  0.60110  Biso   1.000  H
  H21      1.0000 0.80530  0.64250  0.93710  Biso   1.000  H
  H22      1.0000 0.47780  0.91190  0.15420  Biso   1.000  H
  H23      1.0000 0.44810  0.97580  0.11180  Biso   1.000  H
  H24      1.0000 0.55220  0.91160  0.10370  Biso   1.000  H
  H25      1.0000 0.31940  0.79860  0.18740  Biso   1.000  H
  H26      1.0000 0.09030  0.99090  0.04850  Biso   1.000  H
  H27      1.0000 0.54710  0.51320  0.81650  Biso   1.000  H
  H28      1.0000 0.01810  0.43310  0.32300  Biso   1.000  H
  H29      1.0000 0.27400  0.71260  0.00680  Biso   1.000  H
  H30      1.0000 0.11180  0.65540  0.29060  Biso   1.000  H
  H31      1.0000 0.20990  0.43980  0.18710  Biso   1.000  H
  H32      1.0000 0.38970  0.66480  0.14140  Biso   1.000  H
  H33      1.0000 0.01790  0.78760  0.26160  Biso   1.000  H
  H34      1.0000 0.21720  0.95060  0.18710  Biso   1.000  H
  H35      1.0000 0.95150  0.85560  0.19390  Biso   1.000  H
  H36      1.0000 0.12680  0.04280  0.13740  Biso   1.000  H
  H37      1.0000 0.14830  0.50370  0.11790  Biso   1.000  H
  H38      1.0000 0.16220  0.85290  0.00450  Biso   1.000  H
  H39      1.0000 0.97150  0.78040  0.10580  Biso   1.000  H
  H40      1.0000 0.05650  0.63960  0.08510  Biso   1.000  H
  H41      1.0000 0.42780  0.61120  0.49090  Biso   1.000  H
  H42      1.0000 0.40930  0.71450  0.74940  Biso   1.000  H
  H43      1.0000 0.18470  0.72880  0.42310  Biso   1.000  H
  H44      1.0000 0.33140  0.68830  0.89890  Biso   1.000  H
  H45      1.0000 0.30530  0.85750  0.56290  Biso   1.000  H
  H46      1.0000 0.97780  0.58810  0.34580  Biso   1.000  H
  H47      1.0000 0.94810  0.52420  0.38820  Biso   1.000  H
  H48      1.0000 0.05220  0.58840  0.39630  Biso   1.000  H
  H49      1.0000 0.18060  0.29860  0.68740  Biso   1.000  H
  H50      1.0000 0.40970  0.49090  0.54850  Biso   1.000  H
  H51      1.0000 0.95290  0.01320  0.31650  Biso   1.000  H
  H52      1.0000 0.48190  0.93310  0.82300  Biso   1.000  H
  H53      1.0000 0.22600  0.21260  0.50680  Biso   1.000  H
  H54      1.0000 0.38820  0.15540  0.79060  Biso   1.000  H
  H55      1.0000 0.29010  0.93980  0.68710  Biso   1.000  H
  H56      1.0000 0.11030  0.16480  0.64140  Biso   1.000  H
  H57      1.0000 0.48210  0.28760  0.76160  Biso   1.000  H
  H58      1.0000 0.28280  0.45060  0.68710  Biso   1.000  H
  H59      1.0000 0.54850  0.35560  0.69390  Biso   1.000  H
  H60      1.0000 0.37320  0.54280  0.63740  Biso   1.000  H
  H61      1.0000 0.35170  0.00370  0.61790  Biso   1.000  H
  H62      1.0000 0.33780  0.35290  0.50450  Biso   1.000  H
  H63      1.0000 0.52850  0.28040  0.60580  Biso   1.000  H
  H64      1.0000 0.44350  0.13960  0.58510  Biso   1.000  H
  H65      1.0000 0.07220  0.11120  0.99090  Biso   1.000  H
  H66      1.0000 0.09070  0.21450  0.24940  Biso   1.000  H
  H67      1.0000 0.31530  0.22880  0.92310  Biso   1.000  H
  H68      1.0000 0.16860  0.18830  0.39890  Biso   1.000  H
  H69      1.0000 0.19470  0.35750  0.06290  Biso   1.000  H
  H70      1.0000 0.52220  0.08810  0.84580  Biso   1.000  H
  H71      1.0000 0.55190  0.02420  0.88820  Biso   1.000  H
  H72      1.0000 0.44780  0.08840  0.89630  Biso   1.000  H
  H73      1.0000 0.68060  0.20140  0.81260  Biso   1.000  H
  H74      1.0000 0.90970  0.00910  0.95150  Biso   1.000  H
  H75      1.0000 0.45290  0.48680  0.18350  Biso   1.000  H
  H76      1.0000 0.98190  0.56690  0.67700  Biso   1.000  H
  H77      1.0000 0.72600  0.28740  0.99320  Biso   1.000  H
  H78      1.0000 0.88820  0.34460  0.70940  Biso   1.000  H
  H79      1.0000 0.79010  0.56020  0.81290  Biso   1.000  H
  H80      1.0000 0.61030  0.33520  0.85860  Biso   1.000  H
  H81      1.0000 0.98210  0.21240  0.73840  Biso   1.000  H
  H82      1.0000 0.78280  0.04940  0.81290  Biso   1.000  H
  H83      1.0000 0.04850  0.14440  0.80610  Biso   1.000  H
  H84      1.0000 0.87320  0.95720  0.86260  Biso   1.000  H
  H85      1.0000 0.85170  0.49630  0.88210  Biso   1.000  H
  H86      1.0000 0.83780  0.14710  0.99550  Biso   1.000  H
  H87      1.0000 0.02850  0.21960  0.89420  Biso   1.000  H
  H88      1.0000 0.94350  0.36040  0.91490  Biso   1.000  H
  H89      1.0000 0.57220  0.38880  0.50910  Biso   1.000  H
  H90      1.0000 0.59070  0.28550  0.25060  Biso   1.000  H
  H91      1.0000 0.81530  0.27120  0.57690  Biso   1.000  H
  H92      1.0000 0.66860  0.31170  0.10110  Biso   1.000  H
  H93      1.0000 0.69470  0.14250  0.43710  Biso   1.000  H
  H94      1.0000 0.02220  0.41190  0.65420  Biso   1.000  H
  H95      1.0000 0.05190  0.47580  0.61180  Biso   1.000  H
  H96      1.0000 0.94780  0.41160  0.60370  Biso   1.000  H
  C1       1.0000 0.57650  0.83150  0.28550  Biso   1.000  C
  C2       1.0000 0.80930  0.71670  0.34970  Biso   1.000  C
  C3       1.0000 0.05460  0.91730  0.77227  Biso   1.000  C
  C4       1.0000 0.63300  0.54620  0.43290  Biso   1.000  C
  C5       1.0000 0.73380  0.69490  0.00713  Biso   1.000  C
  C6       1.0000 0.95650  0.95110  0.58771  Biso   1.000  C
  C7       1.0000 0.65440  0.61810  0.00626  Biso   1.000  C
  C8       1.0000 0.98600  0.89140  0.72435  Biso   1.000  C
  C9       1.0000 0.99880  0.93620  0.68147  Biso   1.000  C
  C10      1.0000 0.94060  0.90700  0.63529  Biso   1.000  C
  C11      1.0000 0.75160  0.65770  0.37630  Biso   1.000  C
  C12      1.0000 0.78360  0.76890  0.45620  Biso   1.000  C
  C13      1.0000 0.61800  0.87550  0.24499  Biso   1.000  C
  C14      1.0000 0.67570  0.00130  0.30586  Biso   1.000  C
  C15      1.0000 0.85070  0.79550  0.37720  Biso   1.000  C
  C16      1.0000 0.52510  0.74310  0.27390  Biso   1.000  C
  C17      1.0000 0.70770  0.56940  0.34980  Biso   1.000  C
  C18      1.0000 0.73490  0.68300  0.43060  Biso   1.000  C
  C19      1.0000 0.48650  0.70290  0.31370  Biso   1.000  C
  C20      1.0000 0.65260  0.51630  0.37920  Biso   1.000  C
  C21      1.0000 0.63930  0.96380  0.34700  Biso   1.000  C
  C22      1.0000 0.58820  0.87670  0.33790  Biso   1.000  C
  C23      1.0000 0.67430  0.62780  0.45880  Biso   1.000  C
  C24      1.0000 0.49880  0.74840  0.36660  Biso   1.000  C
  C25      1.0000 0.54830  0.83190  0.37900  Biso   1.000  C
  C26      1.0000 0.87790  0.83960  0.00826  Biso   1.000  C
  C27      1.0000 0.91720  0.81630  0.72120  Biso   1.000  C
  C28      1.0000 0.87710  0.76720  0.96556  Biso   1.000  C
  C29      1.0000 0.80740  0.84160  0.04967  Biso   1.000  C
  C30      1.0000 0.73430  0.76940  0.04882  Biso   1.000  C
  C31      1.0000 0.85960  0.78560  0.67497  Biso   1.000  C
  C32      1.0000 0.87110  0.83170  0.63242  Biso   1.000  C
  C33      1.0000 0.80530  0.69360  0.96559  Biso   1.000  C
  C34      1.0000 0.95130  0.76860  0.91977  Biso   1.000  C
  C35      1.0000 0.80960  0.92320  0.09397  Biso   1.000  C
  C36      1.0000 0.79160  0.70180  0.66990  Biso   1.000  C
  C37      1.0000 0.50680  0.95010  0.12980  Biso   1.000  C
  C38      1.0000 0.07650  0.66850  0.21450  Biso   1.000  C
  C39      1.0000 0.30930  0.78330  0.15030  Biso   1.000  C
  C40      1.0000 0.55460  0.58270  0.72773  Biso   1.000  C
  C41      1.0000 0.13300  0.95380  0.06710  Biso   1.000  C
  C42      1.0000 0.23380  0.80510  0.49287  Biso   1.000  C
  C43      1.0000 0.45650  0.54890  0.91229  Biso   1.000  C
  C44      1.0000 0.15440  0.88190  0.49374  Biso   1.000  C
  C45      1.0000 0.48600  0.60860  0.77565  Biso   1.000  C
  C46      1.0000 0.49880  0.56380  0.81853  Biso   1.000  C
  C47      1.0000 0.44060  0.59300  0.86471  Biso   1.000  C
  C48      1.0000 0.25160  0.84230  0.12370  Biso   1.000  C
  C49      1.0000 0.28360  0.73110  0.04380  Biso   1.000  C
  C50      1.0000 0.11800  0.62450  0.25501  Biso   1.000  C
  C51      1.0000 0.17570  0.49870  0.19414  Biso   1.000  C
  C52      1.0000 0.35070  0.70450  0.12280  Biso   1.000  C
  C53      1.0000 0.02510  0.75690  0.22610  Biso   1.000  C
  C54      1.0000 0.20770  0.93060  0.15020  Biso   1.000  C
  C55      1.0000 0.23490  0.81700  0.06940  Biso   1.000  C
  C56      1.0000 0.98650  0.79710  0.18630  Biso   1.000  C
  C57      1.0000 0.15260  0.98370  0.12080  Biso   1.000  C
  C58      1.0000 0.13930  0.53620  0.15300  Biso   1.000  C
  C59      1.0000 0.08820  0.62330  0.16210  Biso   1.000  C
  C60      1.0000 0.17430  0.87220  0.04120  Biso   1.000  C
  C61      1.0000 0.99880  0.75160  0.13340  Biso   1.000  C
  C62      1.0000 0.04830  0.66810  0.12100  Biso   1.000  C
  C63      1.0000 0.37790  0.66040  0.49174  Biso   1.000  C
  C64      1.0000 0.41720  0.68370  0.77880  Biso   1.000  C
  C65      1.0000 0.37710  0.73280  0.53444  Biso   1.000  C
  C66      1.0000 0.30740  0.65840  0.45033  Biso   1.000  C
  C67      1.0000 0.23430  0.73060  0.45118  Biso   1.000  C
  C68      1.0000 0.35960  0.71440  0.82503  Biso   1.000  C
  C69      1.0000 0.37110  0.66830  0.86758  Biso   1.000  C
  C70      1.0000 0.30530  0.80640  0.53441  Biso   1.000  C
  C71      1.0000 0.45130  0.73140  0.58023  Biso   1.000  C
  C72      1.0000 0.30960  0.57680  0.40603  Biso   1.000  C
  C73      1.0000 0.29160  0.79820  0.83010  Biso   1.000  C
  C74      1.0000 0.00680  0.54990  0.37020  Biso   1.000  C
  C75      1.0000 0.42350  0.16850  0.71450  Biso   1.000  C
  C76      1.0000 0.19070  0.28330  0.65030  Biso   1.000  C
  C77      1.0000 0.94540  0.08270  0.22773  Biso   1.000  C
  C78      1.0000 0.36700  0.45380  0.56710  Biso   1.000  C
  C79      1.0000 0.26620  0.30510  0.99287  Biso   1.000  C
  C80      1.0000 0.04350  0.04890  0.41229  Biso   1.000  C
  C81      1.0000 0.34560  0.38190  0.99374  Biso   1.000  C
  C82      1.0000 0.01400  0.10860  0.27565  Biso   1.000  C
  C83      1.0000 0.00120  0.06380  0.31853  Biso   1.000  C
  C84      1.0000 0.05940  0.09300  0.36471  Biso   1.000  C
  C85      1.0000 0.24840  0.34230  0.62370  Biso   1.000  C
  C86      1.0000 0.21640  0.23110  0.54380  Biso   1.000  C
  C87      1.0000 0.38200  0.12450  0.75501  Biso   1.000  C
  C88      1.0000 0.32430  0.99870  0.69414  Biso   1.000  C
  C89      1.0000 0.14930  0.20450  0.62280  Biso   1.000  C
  C90      1.0000 0.47490  0.25690  0.72610  Biso   1.000  C
  C91      1.0000 0.29230  0.43060  0.65020  Biso   1.000  C
  C92      1.0000 0.26510  0.31700  0.56940  Biso   1.000  C
  C93      1.0000 0.51350  0.29710  0.68630  Biso   1.000  C
  C94      1.0000 0.34740  0.48370  0.62080  Biso   1.000  C
  C95      1.0000 0.36070  0.03620  0.65300  Biso   1.000  C
  C96      1.0000 0.41180  0.12330  0.66210  Biso   1.000  C
  C97      1.0000 0.32570  0.37220  0.54120  Biso   1.000  C
  C98      1.0000 0.50120  0.25160  0.63340  Biso   1.000  C
  C99      1.0000 0.45170  0.16810  0.62100  Biso   1.000  C
  C100     1.0000 0.12210  0.16040  0.99174  Biso   1.000  C
  C101     1.0000 0.08280  0.18370  0.27880  Biso   1.000  C
  C102     1.0000 0.12290  0.23280  0.03444  Biso   1.000  C
  C103     1.0000 0.19260  0.15840  0.95033  Biso   1.000  C
  C104     1.0000 0.26570  0.23060  0.95118  Biso   1.000  C
  C105     1.0000 0.14040  0.21440  0.32503  Biso   1.000  C
  C106     1.0000 0.12890  0.16830  0.36758  Biso   1.000  C
  C107     1.0000 0.19470  0.30640  0.03441  Biso   1.000  C
  C108     1.0000 0.04870  0.23140  0.08023  Biso   1.000  C
  C109     1.0000 0.19040  0.07680  0.90603  Biso   1.000  C
  C110     1.0000 0.20840  0.29820  0.33010  Biso   1.000  C
  C111     1.0000 0.49320  0.04990  0.87020  Biso   1.000  C
  C112     1.0000 0.92350  0.33150  0.78550  Biso   1.000  C
  C113     1.0000 0.69070  0.21670  0.84970  Biso   1.000  C
  C114     1.0000 0.44540  0.41730  0.27227  Biso   1.000  C
  C115     1.0000 0.86700  0.04620  0.93290  Biso   1.000  C
  C116     1.0000 0.76620  0.19490  0.50713  Biso   1.000  C
  C117     1.0000 0.54350  0.45110  0.08771  Biso   1.000  C
  C118     1.0000 0.84560  0.11810  0.50626  Biso   1.000  C
  C119     1.0000 0.51400  0.39140  0.22435  Biso   1.000  C
  C120     1.0000 0.50120  0.43620  0.18147  Biso   1.000  C
  C121     1.0000 0.55940  0.40700  0.13529  Biso   1.000  C
  C122     1.0000 0.74840  0.15770  0.87630  Biso   1.000  C
  C123     1.0000 0.71640  0.26890  0.95620  Biso   1.000  C
  C124     1.0000 0.88200  0.37550  0.74499  Biso   1.000  C
  C125     1.0000 0.82430  0.50130  0.80586  Biso   1.000  C
  C126     1.0000 0.64930  0.29550  0.87720  Biso   1.000  C
  C127     1.0000 0.97490  0.24310  0.77390  Biso   1.000  C
  C128     1.0000 0.79230  0.06940  0.84980  Biso   1.000  C
  C129     1.0000 0.76510  0.18300  0.93060  Biso   1.000  C
  C130     1.0000 0.01350  0.20290  0.81370  Biso   1.000  C
  C131     1.0000 0.84740  0.01630  0.87920  Biso   1.000  C
  C132     1.0000 0.86070  0.46380  0.84700  Biso   1.000  C
  C133     1.0000 0.91180  0.37670  0.83790  Biso   1.000  C
  C134     1.0000 0.82570  0.12780  0.95880  Biso   1.000  C
  C135     1.0000 0.00120  0.24840  0.86660  Biso   1.000  C
  C136     1.0000 0.95170  0.33190  0.87900  Biso   1.000  C
  C137     1.0000 0.62210  0.33960  0.50826  Biso   1.000  C
  C138     1.0000 0.58280  0.31630  0.22120  Biso   1.000  C
  C139     1.0000 0.62290  0.26720  0.46556  Biso   1.000  C
  C140     1.0000 0.69260  0.34160  0.54967  Biso   1.000  C
  C141     1.0000 0.76570  0.26940  0.54882  Biso   1.000  C
  C142     1.0000 0.64040  0.28560  0.17497  Biso   1.000  C
  C143     1.0000 0.62890  0.33170  0.13242  Biso   1.000  C
  C144     1.0000 0.69470  0.19360  0.46559  Biso   1.000  C
  C145     1.0000 0.54870  0.26860  0.41977  Biso   1.000  C
  C146     1.0000 0.69040  0.42320  0.59397  Biso   1.000  C
  C147     1.0000 0.70840  0.20180  0.16990  Biso   1.000  C
  C148     1.0000 0.99320  0.45010  0.62980  Biso   1.000  C
  N1       1.0000 0.66510  0.95760  0.25460  Biso   1.000  N
  N2       1.0000 0.83950  0.82160  0.43126  Biso   1.000  N
  N3       1.0000 0.16510  0.54240  0.24540  Biso   1.000  N
  N4       1.0000 0.33950  0.67840  0.06874  Biso   1.000  N
  N5       1.0000 0.33490  0.04240  0.74540  Biso   1.000  N
  N6       1.0000 0.16050  0.17840  0.56874  Biso   1.000  N
  N7       1.0000 0.83490  0.45760  0.75460  Biso   1.000  N
  N8       1.0000 0.66050  0.32160  0.93126  Biso   1.000  N
  O1       1.0000 0.75330  0.91900  0.13359  Biso   1.000  O
  O2       1.0000 0.79050  0.65540  0.70675  Biso   1.000  O
  O3       1.0000 0.01330  0.83940  0.92633  Biso   1.000  O
  O4       1.0000 0.03180  0.87500  0.80991  Biso   1.000  O
  O5       1.0000 0.12740  0.97560  0.77198  Biso   1.000  O
  O6       1.0000 0.90960  0.91550  0.54635  Biso   1.000  O
  O7       1.0000 0.57000  0.63690  0.03033  Biso   1.000  O
  O8       1.0000 0.01780  0.01850  0.59228  Biso   1.000  O
  O9       1.0000 0.67610  0.54020  0.98038  Biso   1.000  O
  O10      1.0000 0.56740  0.02330  0.15822  Biso   1.000  O
  O11      1.0000 0.73920  0.68120  0.62721  Biso   1.000  O
  O12      1.0000 0.86810  0.99000  0.08732  Biso   1.000  O
  O13      1.0000 0.94760  0.70710  0.88105  Biso   1.000  O
  O14      1.0000 0.25330  0.58100  0.36641  Biso   1.000  O
  O15      1.0000 0.29050  0.84460  0.79325  Biso   1.000  O
  O16      1.0000 0.51330  0.66060  0.57367  Biso   1.000  O
  O17      1.0000 0.53180  0.62500  0.69009  Biso   1.000  O
  O18      1.0000 0.62740  0.52440  0.72802  Biso   1.000  O
  O19      1.0000 0.40960  0.58450  0.95365  Biso   1.000  O
  O20      1.0000 0.07000  0.86310  0.46967  Biso   1.000  O
  O21      1.0000 0.51780  0.48150  0.90772  Biso   1.000  O
  O22      1.0000 0.17610  0.95980  0.51962  Biso   1.000  O
  O23      1.0000 0.06740  0.47670  0.34178  Biso   1.000  O
  O24      1.0000 0.23920  0.81880  0.87279  Biso   1.000  O
  O25      1.0000 0.36810  0.51000  0.41268  Biso   1.000  O
  O26      1.0000 0.44760  0.79290  0.61895  Biso   1.000  O
  O27      1.0000 0.24670  0.08100  0.86641  Biso   1.000  O
  O28      1.0000 0.20950  0.34460  0.29325  Biso   1.000  O
  O29      1.0000 0.98670  0.16060  0.07367  Biso   1.000  O
  O30      1.0000 0.96820  0.12500  0.19009  Biso   1.000  O
  O31      1.0000 0.87260  0.02440  0.22802  Biso   1.000  O
  O32      1.0000 0.09040  0.08450  0.45365  Biso   1.000  O
  O33      1.0000 0.43000  0.36310  0.96967  Biso   1.000  O
  O34      1.0000 0.98220  0.98150  0.40772  Biso   1.000  O
  O35      1.0000 0.32390  0.45980  0.01962  Biso   1.000  O
  O36      1.0000 0.43260  0.97670  0.84178  Biso   1.000  O
  O37      1.0000 0.26080  0.31880  0.37279  Biso   1.000  O
  O38      1.0000 0.13190  0.01000  0.91268  Biso   1.000  O
  O39      1.0000 0.05240  0.29290  0.11895  Biso   1.000  O
  O40      1.0000 0.74670  0.41900  0.63359  Biso   1.000  O
  O41      1.0000 0.70950  0.15540  0.20675  Biso   1.000  O
  O42      1.0000 0.48670  0.33940  0.42633  Biso   1.000  O
  O43      1.0000 0.46820  0.37500  0.30991  Biso   1.000  O
  O44      1.0000 0.37260  0.47560  0.27198  Biso   1.000  O
  O45      1.0000 0.59040  0.41550  0.04635  Biso   1.000  O
  O46      1.0000 0.93000  0.13690  0.53033  Biso   1.000  O
  O47      1.0000 0.48220  0.51850  0.09228  Biso   1.000  O
  O48      1.0000 0.82390  0.04020  0.48038  Biso   1.000  O
  O49      1.0000 0.93260  0.52330  0.65822  Biso   1.000  O
  O50      1.0000 0.76080  0.18120  0.12721  Biso   1.000  O
  O51      1.0000 0.63190  0.49000  0.58732  Biso   1.000  O
  O52      1.0000 0.55240  0.20710  0.38105  Biso   1.000  O
