data_image0
_cell_length_a       29.756
_cell_length_b       29
_cell_length_c       7.6262
_cell_angle_alpha    90
_cell_angle_beta     90
_cell_angle_gamma    90

_symmetry_space_group_name_H-M    "P 1"
_symmetry_int_tables_number       1

loop_
  _symmetry_equiv_pos_as_xyz
  'x, y, z'

loop_
  _atom_site_label
  _atom_site_occupancy
  _atom_site_fract_x
  _atom_site_fract_y
  _atom_site_fract_z
  _atom_site_thermal_displace_type
  _atom_site_B_iso_or_equiv
  _atom_site_type_symbol
  C1       1.0000 0.93270  0.10310  0.89770  Biso   1.000  C
  H1       1.0000 0.94290  0.11560  0.00580  Biso   1.000  H
  C2       1.0000 0.90180  0.06750  0.90260  Biso   1.000  C
  H2       1.0000 0.89240  0.05530  0.01230  Biso   1.000  H
  C3       1.0000 0.76950  0.93600  0.90900  Biso   1.000  C
  H3       1.0000 0.78140  0.94590  0.01820  Biso   1.000  H
  C4       1.0000 0.73460  0.90360  0.90200  Biso   1.000  C
  H4       1.0000 0.72280  0.89160  0.00870  Biso   1.000  H
  C5       1.0000 0.56730  0.74310  0.88700  Biso   1.000  C
  H5       1.0000 0.55470  0.73380  0.99600  Biso   1.000  H
  C6       1.0000 0.60280  0.77360  0.89600  Biso   1.000  C
  H6       1.0000 0.61600  0.78170  0.00540  Biso   1.000  H
  C7       1.0000 0.43270  0.60310  0.89770  Biso   1.000  C
  H7       1.0000 0.44290  0.61560  0.00580  Biso   1.000  H
  C8       1.0000 0.40180  0.56750  0.90260  Biso   1.000  C
  H8       1.0000 0.39240  0.55530  0.01230  Biso   1.000  H
  C9       1.0000 0.26950  0.43600  0.90900  Biso   1.000  C
  H9       1.0000 0.28140  0.44590  0.01820  Biso   1.000  H
  C10      1.0000 0.23460  0.40360  0.90200  Biso   1.000  C
  H10      1.0000 0.22280  0.39160  0.00870  Biso   1.000  H
  C11      1.0000 0.06730  0.24310  0.88700  Biso   1.000  C
  H11      1.0000 0.05470  0.23380  0.99600  Biso   1.000  H
  C12      1.0000 0.10280  0.27360  0.89600  Biso   1.000  C
  H12      1.0000 0.11600  0.28170  0.00540  Biso   1.000  H
  C13      1.0000 0.06730  0.10310  0.60230  Biso   1.000  C
  H13      1.0000 0.05710  0.11560  0.49420  Biso   1.000  H
  C14      1.0000 0.09820  0.06750  0.59740  Biso   1.000  C
  H14      1.0000 0.10760  0.05530  0.48770  Biso   1.000  H
  C15      1.0000 0.23050  0.93600  0.59100  Biso   1.000  C
  H15      1.0000 0.21860  0.94590  0.48180  Biso   1.000  H
  C16      1.0000 0.26540  0.90360  0.59800  Biso   1.000  C
  H16      1.0000 0.27720  0.89160  0.49130  Biso   1.000  H
  C17      1.0000 0.43270  0.74310  0.61300  Biso   1.000  C
  H17      1.0000 0.44530  0.73380  0.50400  Biso   1.000  H
  C18      1.0000 0.39720  0.77360  0.60400  Biso   1.000  C
  H18      1.0000 0.38400  0.78170  0.49460  Biso   1.000  H
  C19      1.0000 0.56730  0.60310  0.60230  Biso   1.000  C
  H19      1.0000 0.55710  0.61560  0.49420  Biso   1.000  H
  C20      1.0000 0.59820  0.56750  0.59740  Biso   1.000  C
  H20      1.0000 0.60760  0.55530  0.48770  Biso   1.000  H
  C21      1.0000 0.73050  0.43600  0.59100  Biso   1.000  C
  H21      1.0000 0.71860  0.44590  0.48180  Biso   1.000  H
  C22      1.0000 0.76540  0.40360  0.59800  Biso   1.000  C
  H22      1.0000 0.77720  0.39160  0.49130  Biso   1.000  H
  C23      1.0000 0.93270  0.24310  0.61300  Biso   1.000  C
  H23      1.0000 0.94530  0.23380  0.50400  Biso   1.000  H
  C24      1.0000 0.89720  0.27360  0.60400  Biso   1.000  C
  H24      1.0000 0.88400  0.28170  0.49460  Biso   1.000  H
  C25      1.0000 0.93270  0.10310  0.60230  Biso   1.000  C
  H25      1.0000 0.94290  0.11560  0.49420  Biso   1.000  H
  C26      1.0000 0.90180  0.06750  0.59740  Biso   1.000  C
  H26      1.0000 0.89240  0.05530  0.48770  Biso   1.000  H
  C27      1.0000 0.76950  0.93600  0.59100  Biso   1.000  C
  H27      1.0000 0.78140  0.94590  0.48180  Biso   1.000  H
  C28      1.0000 0.73460  0.90360  0.59800  Biso   1.000  C
  H28      1.0000 0.72280  0.89160  0.49130  Biso   1.000  H
  C29      1.0000 0.56730  0.74310  0.61300  Biso   1.000  C
  H29      1.0000 0.55470  0.73380  0.50400  Biso   1.000  H
  C30      1.0000 0.60280  0.77360  0.60400  Biso   1.000  C
  H30      1.0000 0.61600  0.78170  0.49460  Biso   1.000  H
  C31      1.0000 0.43270  0.60310  0.60230  Biso   1.000  C
  H31      1.0000 0.44290  0.61560  0.49420  Biso   1.000  H
  C32      1.0000 0.40180  0.56750  0.59740  Biso   1.000  C
  H32      1.0000 0.39240  0.55530  0.48770  Biso   1.000  H
  C33      1.0000 0.26950  0.43600  0.59100  Biso   1.000  C
  H33      1.0000 0.28140  0.44590  0.48180  Biso   1.000  H
  C34      1.0000 0.23460  0.40360  0.59800  Biso   1.000  C
  H34      1.0000 0.22280  0.39160  0.49130  Biso   1.000  H
  C35      1.0000 0.06730  0.24310  0.61300  Biso   1.000  C
  H35      1.0000 0.05470  0.23380  0.50400  Biso   1.000  H
  C36      1.0000 0.10280  0.27360  0.60400  Biso   1.000  C
  H36      1.0000 0.11600  0.28170  0.49460  Biso   1.000  H
  C37      1.0000 0.06730  0.10310  0.89770  Biso   1.000  C
  H37      1.0000 0.05710  0.11560  0.00580  Biso   1.000  H
  C38      1.0000 0.09820  0.06750  0.90260  Biso   1.000  C
  H38      1.0000 0.10760  0.05530  0.01230  Biso   1.000  H
  C39      1.0000 0.23050  0.93600  0.90900  Biso   1.000  C
  H39      1.0000 0.21860  0.94590  0.01820  Biso   1.000  H
  C40      1.0000 0.26540  0.90360  0.90200  Biso   1.000  C
  H40      1.0000 0.27720  0.89160  0.00870  Biso   1.000  H
  C41      1.0000 0.43270  0.74310  0.88700  Biso   1.000  C
  H41      1.0000 0.44530  0.73380  0.99600  Biso   1.000  H
  C42      1.0000 0.39720  0.77360  0.89600  Biso   1.000  C
  H42      1.0000 0.38400  0.78170  0.00540  Biso   1.000  H
  C43      1.0000 0.56730  0.60310  0.89770  Biso   1.000  C
  H43      1.0000 0.55710  0.61560  0.00580  Biso   1.000  H
  C44      1.0000 0.59820  0.56750  0.90260  Biso   1.000  C
  H44      1.0000 0.60760  0.55530  0.01230  Biso   1.000  H
  C45      1.0000 0.73050  0.43600  0.90900  Biso   1.000  C
  H45      1.0000 0.71860  0.44590  0.01820  Biso   1.000  H
  C46      1.0000 0.76540  0.40360  0.90200  Biso   1.000  C
  H46      1.0000 0.77720  0.39160  0.00870  Biso   1.000  H
  C47      1.0000 0.93270  0.24310  0.88700  Biso   1.000  C
  H47      1.0000 0.94530  0.23380  0.99600  Biso   1.000  H
  C48      1.0000 0.89720  0.27360  0.89600  Biso   1.000  C
  H48      1.0000 0.88400  0.28170  0.00540  Biso   1.000  H
  Zn1      1.0000 0.50000  0.67302  0.75000  Biso   1.000  Zn
  Zn2      1.0000 0.00000  0.17302  0.75000  Biso   1.000  Zn
  Si1      1.0000 0.50000  0.67470  0.25000  Biso   1.000  Si
  F1       1.0000 0.50000  0.73220  0.25000  Biso   1.000  F
  F2       1.0000 0.50000  0.61700  0.25000  Biso   1.000  F
  Si2      1.0000 0.00000  0.17470  0.25000  Biso   1.000  Si
  F3       1.0000 0.00000  0.23220  0.25000  Biso   1.000  F
  F4       1.0000 0.00000  0.11700  0.25000  Biso   1.000  F
  F5       1.0000 0.55600  0.67340  0.25000  Biso   1.000  F
  F6       1.0000 0.05600  0.17340  0.25000  Biso   1.000  F
  F7       1.0000 0.44400  0.67340  0.25000  Biso   1.000  F
  F8       1.0000 0.94400  0.17340  0.25000  Biso   1.000  F
  F9       1.0000 0.50000  0.67380  0.47250  Biso   1.000  F
  F10      1.0000 0.00000  0.17380  0.47250  Biso   1.000  F
  F11      1.0000 0.50000  0.67380  0.02750  Biso   1.000  F
  F12      1.0000 0.00000  0.17380  0.02750  Biso   1.000  F
  C49      1.0000 0.65200  0.82490  0.75000  Biso   1.000  C
  N1       1.0000 0.54970  0.72610  0.75000  Biso   1.000  N
  C50      1.0000 0.88470  0.04970  0.75000  Biso   1.000  C
  C51      1.0000 0.82090  0.98710  0.75000  Biso   1.000  C
  C52      1.0000 0.61780  0.79090  0.75000  Biso   1.000  C
  C53      1.0000 0.78680  0.95360  0.75000  Biso   1.000  C
  C54      1.0000 0.71770  0.88930  0.75000  Biso   1.000  C
  C55      1.0000 0.68000  0.85770  0.75000  Biso   1.000  C
  C56      1.0000 0.84990  0.01480  0.75000  Biso   1.000  C
  N2       1.0000 0.94900  0.12080  0.75000  Biso   1.000  N
  C57      1.0000 0.15200  0.32490  0.75000  Biso   1.000  C
  N3       1.0000 0.04970  0.22610  0.75000  Biso   1.000  N
  C58      1.0000 0.38470  0.54970  0.75000  Biso   1.000  C
  C59      1.0000 0.32090  0.48710  0.75000  Biso   1.000  C
  C60      1.0000 0.11780  0.29090  0.75000  Biso   1.000  C
  C61      1.0000 0.28680  0.45360  0.75000  Biso   1.000  C
  C62      1.0000 0.21770  0.38930  0.75000  Biso   1.000  C
  C63      1.0000 0.18000  0.35770  0.75000  Biso   1.000  C
  C64      1.0000 0.34990  0.51480  0.75000  Biso   1.000  C
  N4       1.0000 0.44900  0.62080  0.75000  Biso   1.000  N
  C65      1.0000 0.34800  0.82490  0.75000  Biso   1.000  C
  N5       1.0000 0.45030  0.72610  0.75000  Biso   1.000  N
  C66      1.0000 0.11530  0.04970  0.75000  Biso   1.000  C
  C67      1.0000 0.17910  0.98710  0.75000  Biso   1.000  C
  C68      1.0000 0.38220  0.79090  0.75000  Biso   1.000  C
  C69      1.0000 0.21320  0.95360  0.75000  Biso   1.000  C
  C70      1.0000 0.28230  0.88930  0.75000  Biso   1.000  C
  C71      1.0000 0.32000  0.85770  0.75000  Biso   1.000  C
  C72      1.0000 0.15010  0.01480  0.75000  Biso   1.000  C
  N6       1.0000 0.05100  0.12080  0.75000  Biso   1.000  N
  C73      1.0000 0.84800  0.32490  0.75000  Biso   1.000  C
  N7       1.0000 0.95030  0.22610  0.75000  Biso   1.000  N
  C74      1.0000 0.61530  0.54970  0.75000  Biso   1.000  C
  C75      1.0000 0.67910  0.48710  0.75000  Biso   1.000  C
  C76      1.0000 0.88220  0.29090  0.75000  Biso   1.000  C
  C77      1.0000 0.71320  0.45360  0.75000  Biso   1.000  C
  C78      1.0000 0.78230  0.38930  0.75000  Biso   1.000  C
  C79      1.0000 0.82000  0.35770  0.75000  Biso   1.000  C
  C80      1.0000 0.65010  0.51480  0.75000  Biso   1.000  C
  N8       1.0000 0.55100  0.62080  0.75000  Biso   1.000  N
  C81      1.0000 0.06730  0.89690  0.39770  Biso   1.000  C
  H49      1.0000 0.05710  0.88440  0.50580  Biso   1.000  H
  C82      1.0000 0.09820  0.93250  0.40260  Biso   1.000  C
  H50      1.0000 0.10760  0.94470  0.51230  Biso   1.000  H
  C83      1.0000 0.23050  0.06400  0.40900  Biso   1.000  C
  H51      1.0000 0.21860  0.05410  0.51820  Biso   1.000  H
  C84      1.0000 0.26540  0.09640  0.40200  Biso   1.000  C
  H52      1.0000 0.27720  0.10840  0.50870  Biso   1.000  H
  C85      1.0000 0.43270  0.25690  0.38700  Biso   1.000  C
  H53      1.0000 0.44530  0.26620  0.49600  Biso   1.000  H
  C86      1.0000 0.39720  0.22640  0.39600  Biso   1.000  C
  H54      1.0000 0.38400  0.21830  0.50540  Biso   1.000  H
  C87      1.0000 0.56730  0.39690  0.39770  Biso   1.000  C
  H55      1.0000 0.55710  0.38440  0.50580  Biso   1.000  H
  C88      1.0000 0.59820  0.43250  0.40260  Biso   1.000  C
  H56      1.0000 0.60760  0.44470  0.51230  Biso   1.000  H
  C89      1.0000 0.73050  0.56400  0.40900  Biso   1.000  C
  H57      1.0000 0.71860  0.55410  0.51820  Biso   1.000  H
  C90      1.0000 0.76540  0.59640  0.40200  Biso   1.000  C
  H58      1.0000 0.77720  0.60840  0.50870  Biso   1.000  H
  C91      1.0000 0.93270  0.75690  0.38700  Biso   1.000  C
  H59      1.0000 0.94530  0.76620  0.49600  Biso   1.000  H
  C92      1.0000 0.89720  0.72640  0.39600  Biso   1.000  C
  H60      1.0000 0.88400  0.71830  0.50540  Biso   1.000  H
  C93      1.0000 0.93270  0.89690  0.10230  Biso   1.000  C
  H61      1.0000 0.94290  0.88440  0.99420  Biso   1.000  H
  C94      1.0000 0.90180  0.93250  0.09740  Biso   1.000  C
  H62      1.0000 0.89240  0.94470  0.98770  Biso   1.000  H
  C95      1.0000 0.76950  0.06400  0.09100  Biso   1.000  C
  H63      1.0000 0.78140  0.05410  0.98180  Biso   1.000  H
  C96      1.0000 0.73460  0.09640  0.09800  Biso   1.000  C
  H64      1.0000 0.72280  0.10840  0.99130  Biso   1.000  H
  C97      1.0000 0.56730  0.25690  0.11300  Biso   1.000  C
  H65      1.0000 0.55470  0.26620  0.00400  Biso   1.000  H
  C98      1.0000 0.60280  0.22640  0.10400  Biso   1.000  C
  H66      1.0000 0.61600  0.21830  0.99460  Biso   1.000  H
  C99      1.0000 0.43270  0.39690  0.10230  Biso   1.000  C
  H67      1.0000 0.44290  0.38440  0.99420  Biso   1.000  H
  C100     1.0000 0.40180  0.43250  0.09740  Biso   1.000  C
  H68      1.0000 0.39240  0.44470  0.98770  Biso   1.000  H
  C101     1.0000 0.26950  0.56400  0.09100  Biso   1.000  C
  H69      1.0000 0.28140  0.55410  0.98180  Biso   1.000  H
  C102     1.0000 0.23460  0.59640  0.09800  Biso   1.000  C
  H70      1.0000 0.22280  0.60840  0.99130  Biso   1.000  H
  C103     1.0000 0.06730  0.75690  0.11300  Biso   1.000  C
  H71      1.0000 0.05470  0.76620  0.00400  Biso   1.000  H
  C104     1.0000 0.10280  0.72640  0.10400  Biso   1.000  C
  H72      1.0000 0.11600  0.71830  0.99460  Biso   1.000  H
  C105     1.0000 0.06730  0.89690  0.10230  Biso   1.000  C
  H73      1.0000 0.05710  0.88440  0.99420  Biso   1.000  H
  C106     1.0000 0.09820  0.93250  0.09740  Biso   1.000  C
  H74      1.0000 0.10760  0.94470  0.98770  Biso   1.000  H
  C107     1.0000 0.23050  0.06400  0.09100  Biso   1.000  C
  H75      1.0000 0.21860  0.05410  0.98180  Biso   1.000  H
  C108     1.0000 0.26540  0.09640  0.09800  Biso   1.000  C
  H76      1.0000 0.27720  0.10840  0.99130  Biso   1.000  H
  C109     1.0000 0.43270  0.25690  0.11300  Biso   1.000  C
  H77      1.0000 0.44530  0.26620  0.00400  Biso   1.000  H
  C110     1.0000 0.39720  0.22640  0.10400  Biso   1.000  C
  H78      1.0000 0.38400  0.21830  0.99460  Biso   1.000  H
  C111     1.0000 0.56730  0.39690  0.10230  Biso   1.000  C
  H79      1.0000 0.55710  0.38440  0.99420  Biso   1.000  H
  C112     1.0000 0.59820  0.43250  0.09740  Biso   1.000  C
  H80      1.0000 0.60760  0.44470  0.98770  Biso   1.000  H
  C113     1.0000 0.73050  0.56400  0.09100  Biso   1.000  C
  H81      1.0000 0.71860  0.55410  0.98180  Biso   1.000  H
  C114     1.0000 0.76540  0.59640  0.09800  Biso   1.000  C
  H82      1.0000 0.77720  0.60840  0.99130  Biso   1.000  H
  C115     1.0000 0.93270  0.75690  0.11300  Biso   1.000  C
  H83      1.0000 0.94530  0.76620  0.00400  Biso   1.000  H
  C116     1.0000 0.89720  0.72640  0.10400  Biso   1.000  C
  H84      1.0000 0.88400  0.71830  0.99460  Biso   1.000  H
  C117     1.0000 0.93270  0.89690  0.39770  Biso   1.000  C
  H85      1.0000 0.94290  0.88440  0.50580  Biso   1.000  H
  C118     1.0000 0.90180  0.93250  0.40260  Biso   1.000  C
  H86      1.0000 0.89240  0.94470  0.51230  Biso   1.000  H
  C119     1.0000 0.76950  0.06400  0.40900  Biso   1.000  C
  H87      1.0000 0.78140  0.05410  0.51820  Biso   1.000  H
  C120     1.0000 0.73460  0.09640  0.40200  Biso   1.000  C
  H88      1.0000 0.72280  0.10840  0.50870  Biso   1.000  H
  C121     1.0000 0.56730  0.25690  0.38700  Biso   1.000  C
  H89      1.0000 0.55470  0.26620  0.49600  Biso   1.000  H
  C122     1.0000 0.60280  0.22640  0.39600  Biso   1.000  C
  H90      1.0000 0.61600  0.21830  0.50540  Biso   1.000  H
  C123     1.0000 0.43270  0.39690  0.39770  Biso   1.000  C
  H91      1.0000 0.44290  0.38440  0.50580  Biso   1.000  H
  C124     1.0000 0.40180  0.43250  0.40260  Biso   1.000  C
  H92      1.0000 0.39240  0.44470  0.51230  Biso   1.000  H
  C125     1.0000 0.26950  0.56400  0.40900  Biso   1.000  C
  H93      1.0000 0.28140  0.55410  0.51820  Biso   1.000  H
  C126     1.0000 0.23460  0.59640  0.40200  Biso   1.000  C
  H94      1.0000 0.22280  0.60840  0.50870  Biso   1.000  H
  C127     1.0000 0.06730  0.75690  0.38700  Biso   1.000  C
  H95      1.0000 0.05470  0.76620  0.49600  Biso   1.000  H
  C128     1.0000 0.10280  0.72640  0.39600  Biso   1.000  C
  H96      1.0000 0.11600  0.71830  0.50540  Biso   1.000  H
  Zn3      1.0000 0.50000  0.32698  0.25000  Biso   1.000  Zn
  Zn4      1.0000 0.00000  0.82698  0.25000  Biso   1.000  Zn
  Si3      1.0000 0.50000  0.32530  0.75000  Biso   1.000  Si
  F13      1.0000 0.50000  0.26780  0.75000  Biso   1.000  F
  F14      1.0000 0.50000  0.38300  0.75000  Biso   1.000  F
  Si4      1.0000 0.00000  0.82530  0.75000  Biso   1.000  Si
  F15      1.0000 0.00000  0.76780  0.75000  Biso   1.000  F
  F16      1.0000 0.00000  0.88300  0.75000  Biso   1.000  F
  F17      1.0000 0.44400  0.32660  0.75000  Biso   1.000  F
  F18      1.0000 0.94400  0.82660  0.75000  Biso   1.000  F
  F19      1.0000 0.55600  0.32660  0.75000  Biso   1.000  F
  F20      1.0000 0.05600  0.82660  0.75000  Biso   1.000  F
  F21      1.0000 0.50000  0.32620  0.97250  Biso   1.000  F
  F22      1.0000 0.00000  0.82620  0.97250  Biso   1.000  F
  F23      1.0000 0.50000  0.32620  0.52750  Biso   1.000  F
  F24      1.0000 0.00000  0.82620  0.52750  Biso   1.000  F
  C129     1.0000 0.34800  0.17510  0.25000  Biso   1.000  C
  N9       1.0000 0.45030  0.27390  0.25000  Biso   1.000  N
  C130     1.0000 0.11530  0.95030  0.25000  Biso   1.000  C
  C131     1.0000 0.17910  0.01290  0.25000  Biso   1.000  C
  C132     1.0000 0.38220  0.20910  0.25000  Biso   1.000  C
  C133     1.0000 0.21320  0.04640  0.25000  Biso   1.000  C
  C134     1.0000 0.28230  0.11070  0.25000  Biso   1.000  C
  C135     1.0000 0.32000  0.14230  0.25000  Biso   1.000  C
  C136     1.0000 0.15010  0.98520  0.25000  Biso   1.000  C
  N10      1.0000 0.05100  0.87920  0.25000  Biso   1.000  N
  C137     1.0000 0.84800  0.67510  0.25000  Biso   1.000  C
  N11      1.0000 0.95030  0.77390  0.25000  Biso   1.000  N
  C138     1.0000 0.61530  0.45030  0.25000  Biso   1.000  C
  C139     1.0000 0.67910  0.51290  0.25000  Biso   1.000  C
  C140     1.0000 0.88220  0.70910  0.25000  Biso   1.000  C
  C141     1.0000 0.71320  0.54640  0.25000  Biso   1.000  C
  C142     1.0000 0.78230  0.61070  0.25000  Biso   1.000  C
  C143     1.0000 0.82000  0.64230  0.25000  Biso   1.000  C
  C144     1.0000 0.65010  0.48520  0.25000  Biso   1.000  C
  N12      1.0000 0.55100  0.37920  0.25000  Biso   1.000  N
  C145     1.0000 0.65200  0.17510  0.25000  Biso   1.000  C
  N13      1.0000 0.54970  0.27390  0.25000  Biso   1.000  N
  C146     1.0000 0.88470  0.95030  0.25000  Biso   1.000  C
  C147     1.0000 0.82090  0.01290  0.25000  Biso   1.000  C
  C148     1.0000 0.61780  0.20910  0.25000  Biso   1.000  C
  C149     1.0000 0.78680  0.04640  0.25000  Biso   1.000  C
  C150     1.0000 0.71770  0.11070  0.25000  Biso   1.000  C
  C151     1.0000 0.68000  0.14230  0.25000  Biso   1.000  C
  C152     1.0000 0.84990  0.98520  0.25000  Biso   1.000  C
  N14      1.0000 0.94900  0.87920  0.25000  Biso   1.000  N
  C153     1.0000 0.15200  0.67510  0.25000  Biso   1.000  C
  N15      1.0000 0.04970  0.77390  0.25000  Biso   1.000  N
  C154     1.0000 0.38470  0.45030  0.25000  Biso   1.000  C
  C155     1.0000 0.32090  0.51290  0.25000  Biso   1.000  C
  C156     1.0000 0.11780  0.70910  0.25000  Biso   1.000  C
  C157     1.0000 0.28680  0.54640  0.25000  Biso   1.000  C
  C158     1.0000 0.21770  0.61070  0.25000  Biso   1.000  C
  C159     1.0000 0.18000  0.64230  0.25000  Biso   1.000  C
  C160     1.0000 0.34990  0.48520  0.25000  Biso   1.000  C
  N16      1.0000 0.44900  0.37920  0.25000  Biso   1.000  N
