data_image0
_cell_length_a       9.7103
_cell_length_b       9.7103
_cell_length_c       6.8553
_cell_angle_alpha    90
_cell_angle_beta     90
_cell_angle_gamma    90

_symmetry_space_group_name_H-M    "P 1"
_symmetry_int_tables_number       1

loop_
  _symmetry_equiv_pos_as_xyz
  'x, y, z'

loop_
  _atom_site_label
  _atom_site_occupancy
  _atom_site_fract_x
  _atom_site_fract_y
  _atom_site_fract_z
  _atom_site_thermal_displace_type
  _atom_site_B_iso_or_equiv
  _atom_site_type_symbol
  C1       1.0000 0.53543  0.06574  0.16440  Biso   1.000  C
  H1       1.0000 0.55840  0.11060  0.28320  Biso   1.000  H
  C2       1.0000 0.96457  0.43426  0.16440  Biso   1.000  C
  H2       1.0000 0.94160  0.38940  0.28320  Biso   1.000  H
  C3       1.0000 0.43426  0.53543  0.16440  Biso   1.000  C
  H3       1.0000 0.38940  0.55840  0.28320  Biso   1.000  H
  C4       1.0000 0.06574  0.96457  0.16440  Biso   1.000  C
  H4       1.0000 0.11060  0.94160  0.28320  Biso   1.000  H
  C5       1.0000 0.46457  0.56574  0.83560  Biso   1.000  C
  H5       1.0000 0.44160  0.61060  0.71680  Biso   1.000  H
  C6       1.0000 0.03543  0.93426  0.83560  Biso   1.000  C
  H6       1.0000 0.05840  0.88940  0.71680  Biso   1.000  H
  C7       1.0000 0.56574  0.03543  0.83560  Biso   1.000  C
  H7       1.0000 0.61060  0.05840  0.71680  Biso   1.000  H
  C8       1.0000 0.93426  0.46457  0.83560  Biso   1.000  C
  H8       1.0000 0.88940  0.44160  0.71680  Biso   1.000  H
  C9       1.0000 0.46457  0.93426  0.83560  Biso   1.000  C
  H9       1.0000 0.44160  0.88940  0.71680  Biso   1.000  H
  C10      1.0000 0.03543  0.56574  0.83560  Biso   1.000  C
  H10      1.0000 0.05840  0.61060  0.71680  Biso   1.000  H
  C11      1.0000 0.56574  0.46457  0.83560  Biso   1.000  C
  H11      1.0000 0.61060  0.44160  0.71680  Biso   1.000  H
  C12      1.0000 0.93426  0.03543  0.83560  Biso   1.000  C
  H12      1.0000 0.88940  0.05840  0.71680  Biso   1.000  H
  C13      1.0000 0.53543  0.43426  0.16440  Biso   1.000  C
  H13      1.0000 0.55840  0.38940  0.28320  Biso   1.000  H
  C14      1.0000 0.96457  0.06574  0.16440  Biso   1.000  C
  H14      1.0000 0.94160  0.11060  0.28320  Biso   1.000  H
  C15      1.0000 0.43426  0.96457  0.16440  Biso   1.000  C
  H15      1.0000 0.38940  0.94160  0.28320  Biso   1.000  H
  C16      1.0000 0.06574  0.53543  0.16440  Biso   1.000  C
  H16      1.0000 0.11060  0.55840  0.28320  Biso   1.000  H
  Cu1      1.0000 0.75000  0.25000  0.00000  Biso   1.000  Cu
  Cu2      1.0000 0.25000  0.75000  0.00000  Biso   1.000  Cu
  F1       1.0000 0.75000  0.25000  0.66600  Biso   1.000  F
  F2       1.0000 0.25000  0.75000  0.66600  Biso   1.000  F
  F3       1.0000 0.25000  0.75000  0.33400  Biso   1.000  F
  F4       1.0000 0.75000  0.25000  0.33400  Biso   1.000  F
  H17      1.0000 0.75000  0.25000  0.50000  Biso   1.000  H
  H18      1.0000 0.25000  0.75000  0.50000  Biso   1.000  H
  N1       1.0000 0.60128  0.10128  0.00000  Biso   1.000  N
  N2       1.0000 0.89872  0.39872  0.00000  Biso   1.000  N
  N3       1.0000 0.39872  0.60128  0.00000  Biso   1.000  N
  N4       1.0000 0.10128  0.89872  0.00000  Biso   1.000  N
  N5       1.0000 0.39872  0.89872  0.00000  Biso   1.000  N
  N6       1.0000 0.10128  0.60128  0.00000  Biso   1.000  N
  N7       1.0000 0.60128  0.39872  0.00000  Biso   1.000  N
  N8       1.0000 0.89872  0.10128  0.00000  Biso   1.000  N
