data_image0
_cell_length_a       6.71824
_cell_length_b       15.2674
_cell_length_c       15.2674
_cell_angle_alpha    62.1131
_cell_angle_beta     81.5655
_cell_angle_gamma    98.4345

_symmetry_space_group_name_H-M    P 1
_symmetry_int_tables_number       1

loop_
  _symmetry_equiv_pos_as_xyz
  'x, y, z'

loop_
  _atom_site_label
  _atom_site_occupancy
  _atom_site_fract_x
  _atom_site_fract_y
  _atom_site_fract_z
  _atom_site_thermal_displace_type
  _atom_site_B_iso_or_equiv
  _atom_site_type_symbol
  Co1      1.0000 0.61971  0.31553  0.42005  Biso   1.000  Co
  Co2      1.0000 0.03976  0.42005  0.26442  Biso   1.000  Co
  Co3      1.0000 0.30418  0.26442  0.31553  Biso   1.000  Co
  Co4      1.0000 0.38029  0.68447  0.57995  Biso   1.000  Co
  Co5      1.0000 0.96024  0.57995  0.73558  Biso   1.000  Co
  Co6      1.0000 0.69582  0.73558  0.68447  Biso   1.000  Co
  H1       1.0000 0.28470  0.44879  0.57032  Biso   1.000  H
  H2       1.0000 0.85502  0.57032  0.98089  Biso   1.000  H
  H3       1.0000 0.83591  0.98089  0.44879  Biso   1.000  H
  H4       1.0000 0.71530  0.55121  0.42968  Biso   1.000  H
  H5       1.0000 0.14498  0.42968  0.01911  Biso   1.000  H
  H6       1.0000 0.16409  0.01911  0.55121  Biso   1.000  H
  C1       1.0000 0.23504  0.39456  0.43257  Biso   1.000  C
  C2       1.0000 0.12235  0.45233  0.46103  Biso   1.000  C
  C3       1.0000 0.93501  0.46870  0.43186  Biso   1.000  C
  C4       1.0000 0.16909  0.47034  0.54225  Biso   1.000  C
  C5       1.0000 0.66761  0.43257  0.17287  Biso   1.000  C
  C6       1.0000 0.58338  0.46103  0.08664  Biso   1.000  C
  C7       1.0000 0.36687  0.43186  0.09944  Biso   1.000  C
  C8       1.0000 0.71134  0.54225  0.98741  Biso   1.000  C
  C9       1.0000 0.84048  0.17287  0.39456  Biso   1.000  C
  C10      1.0000 0.67002  0.08664  0.45233  Biso   1.000  C
  C11      1.0000 0.46631  0.09944  0.46870  Biso   1.000  C
  C12      1.0000 0.69875  0.98741  0.47034  Biso   1.000  C
  C13      1.0000 0.76496  0.60544  0.56743  Biso   1.000  C
  C14      1.0000 0.87765  0.54767  0.53897  Biso   1.000  C
  C15      1.0000 0.06499  0.53130  0.56814  Biso   1.000  C
  C16      1.0000 0.83091  0.52966  0.45775  Biso   1.000  C
  C17      1.0000 0.33239  0.56743  0.82713  Biso   1.000  C
  C18      1.0000 0.41662  0.53897  0.91336  Biso   1.000  C
  C19      1.0000 0.63313  0.56814  0.90056  Biso   1.000  C
  C20      1.0000 0.28866  0.45775  0.01259  Biso   1.000  C
  C21      1.0000 0.15952  0.82713  0.60544  Biso   1.000  C
  C22      1.0000 0.32998  0.91336  0.54767  Biso   1.000  C
  C23      1.0000 0.53369  0.90056  0.53130  Biso   1.000  C
  C24      1.0000 0.30125  0.01259  0.52966  Biso   1.000  C
  O1       1.0000 0.37002  0.35931  0.47997  Biso   1.000  O
  O2       1.0000 0.16869  0.35948  0.37907  Biso   1.000  O
  O3       1.0000 0.87163  0.43833  0.36564  Biso   1.000  O
  O4       1.0000 0.84999  0.47997  0.16072  Biso   1.000  O
  O5       1.0000 0.54776  0.37907  0.26145  Biso   1.000  O
  O6       1.0000 0.23727  0.36564  0.19603  Biso   1.000  O
  O7       1.0000 0.01071  0.16072  0.35931  Biso   1.000  O
  O8       1.0000 0.80921  0.26145  0.35948  Biso   1.000  O
  O9       1.0000 0.43330  0.19603  0.43833  Biso   1.000  O
  O10      1.0000 0.62998  0.64069  0.52003  Biso   1.000  O
  O11      1.0000 0.83131  0.64052  0.62093  Biso   1.000  O
  O12      1.0000 0.12837  0.56167  0.63436  Biso   1.000  O
  O13      1.0000 0.15001  0.52003  0.83928  Biso   1.000  O
  O14      1.0000 0.45224  0.62093  0.73855  Biso   1.000  O
  O15      1.0000 0.76273  0.63436  0.80397  Biso   1.000  O
  O16      1.0000 0.98929  0.83928  0.64069  Biso   1.000  O
  O17      1.0000 0.19079  0.73855  0.64052  Biso   1.000  O
  O18      1.0000 0.56670  0.80397  0.56167  Biso   1.000  O
