data_image0
_cell_length_a       6.71924
_cell_length_b       15.2402
_cell_length_c       15.2402
_cell_angle_alpha    62.1212
_cell_angle_beta     81.549
_cell_angle_gamma    98.451

_symmetry_space_group_name_H-M    P 1
_symmetry_int_tables_number       1

loop_
  _symmetry_equiv_pos_as_xyz
  'x, y, z'

loop_
  _atom_site_label
  _atom_site_occupancy
  _atom_site_fract_x
  _atom_site_fract_y
  _atom_site_fract_z
  _atom_site_thermal_displace_type
  _atom_site_B_iso_or_equiv
  _atom_site_type_symbol
  Co1      1.0000 0.30199  0.26484  0.31420  Biso   1.000  Co
  Co2      1.0000 0.61619  0.31420  0.42096  Biso   1.000  Co
  Co3      1.0000 0.03715  0.42096  0.26484  Biso   1.000  Co
  Co4      1.0000 0.69801  0.73516  0.68580  Biso   1.000  Co
  Co5      1.0000 0.38381  0.68580  0.57904  Biso   1.000  Co
  Co6      1.0000 0.96285  0.57904  0.73516  Biso   1.000  Co
  H1       1.0000 0.57900  0.20700  0.21700  Biso   1.000  H
  H2       1.0000 0.33800  0.15900  0.24100  Biso   1.000  H
  H3       1.0000 0.30210  0.46880  0.54780  Biso   1.000  H
  H4       1.0000 0.79600  0.21700  0.57600  Biso   1.000  H
  H5       1.0000 0.57900  0.24100  0.60000  Biso   1.000  H
  H6       1.0000 0.84990  0.54780  0.98340  Biso   1.000  H
  H7       1.0000 0.37200  0.57600  0.20700  Biso   1.000  H
  H8       1.0000 0.17900  0.60000  0.15900  Biso   1.000  H
  H9       1.0000 0.83330  0.98340  0.46880  Biso   1.000  H
  H10      1.0000 0.42100  0.79300  0.78300  Biso   1.000  H
  H11      1.0000 0.66200  0.84100  0.75900  Biso   1.000  H
  H12      1.0000 0.69790  0.53120  0.45220  Biso   1.000  H
  H13      1.0000 0.20400  0.78300  0.42400  Biso   1.000  H
  H14      1.0000 0.42100  0.75900  0.40000  Biso   1.000  H
  H15      1.0000 0.15010  0.45220  0.01660  Biso   1.000  H
  H16      1.0000 0.62800  0.42400  0.79300  Biso   1.000  H
  H17      1.0000 0.82100  0.40000  0.84100  Biso   1.000  H
  H18      1.0000 0.16670  0.01660  0.53120  Biso   1.000  H
  C1       1.0000 0.23990  0.38720  0.43740  Biso   1.000  C
  C2       1.0000 0.11350  0.44700  0.46570  Biso   1.000  C
  C3       1.0000 0.92880  0.46700  0.43380  Biso   1.000  C
  C4       1.0000 0.17900  0.48130  0.52910  Biso   1.000  C
  C5       1.0000 0.67730  0.43740  0.17540  Biso   1.000  C
  C6       1.0000 0.57920  0.46570  0.08730  Biso   1.000  C
  C7       1.0000 0.36260  0.43380  0.09920  Biso   1.000  C
  C8       1.0000 0.70810  0.52910  0.98960  Biso   1.000  C
  C9       1.0000 0.85270  0.17540  0.38720  Biso   1.000  C
  C10      1.0000 0.66650  0.08730  0.44700  Biso   1.000  C
  C11      1.0000 0.46180  0.09920  0.46700  Biso   1.000  C
  C12      1.0000 0.69770  0.98960  0.48130  Biso   1.000  C
  C13      1.0000 0.76010  0.61280  0.56260  Biso   1.000  C
  C14      1.0000 0.88650  0.55300  0.53430  Biso   1.000  C
  C15      1.0000 0.07120  0.53300  0.56620  Biso   1.000  C
  C16      1.0000 0.82100  0.51870  0.47090  Biso   1.000  C
  C17      1.0000 0.32270  0.56260  0.82460  Biso   1.000  C
  C18      1.0000 0.42080  0.53430  0.91270  Biso   1.000  C
  C19      1.0000 0.63740  0.56620  0.90080  Biso   1.000  C
  C20      1.0000 0.29190  0.47090  0.01040  Biso   1.000  C
  C21      1.0000 0.14730  0.82460  0.61280  Biso   1.000  C
  C22      1.0000 0.33350  0.91270  0.55300  Biso   1.000  C
  C23      1.0000 0.53820  0.90080  0.53300  Biso   1.000  C
  C24      1.0000 0.30230  0.01040  0.51870  Biso   1.000  C
  O1       1.0000 0.18650  0.35420  0.37950  Biso   1.000  O
  O2       1.0000 0.39580  0.36770  0.47460  Biso   1.000  O
  O3       1.0000 0.85290  0.44090  0.36990  Biso   1.000  O
  O4       1.0000 0.44780  0.20020  0.23030  Biso   1.000  O
  O5       1.0000 0.56600  0.37950  0.26630  Biso   1.000  O
  O6       1.0000 0.87040  0.47460  0.15770  Biso   1.000  O
  O7       1.0000 0.22280  0.36990  0.18920  Biso   1.000  O
  O8       1.0000 0.67810  0.23030  0.56950  Biso   1.000  O
  O9       1.0000 0.83230  0.26630  0.35420  Biso   1.000  O
  O10      1.0000 0.02810  0.15770  0.36770  Biso   1.000  O
  O11      1.0000 0.41200  0.18920  0.44090  Biso   1.000  O
  O12      1.0000 0.24760  0.56950  0.20020  Biso   1.000  O
  O13      1.0000 0.81350  0.64580  0.62050  Biso   1.000  O
  O14      1.0000 0.60420  0.63230  0.52540  Biso   1.000  O
  O15      1.0000 0.14710  0.55910  0.63010  Biso   1.000  O
  O16      1.0000 0.55220  0.79980  0.76970  Biso   1.000  O
  O17      1.0000 0.43400  0.62050  0.73370  Biso   1.000  O
  O18      1.0000 0.12960  0.52540  0.84230  Biso   1.000  O
  O19      1.0000 0.77720  0.63010  0.81080  Biso   1.000  O
  O20      1.0000 0.32190  0.76970  0.43050  Biso   1.000  O
  O21      1.0000 0.16770  0.73370  0.64580  Biso   1.000  O
  O22      1.0000 0.97190  0.84230  0.63230  Biso   1.000  O
  O23      1.0000 0.58800  0.81080  0.55910  Biso   1.000  O
  O24      1.0000 0.75240  0.43050  0.79980  Biso   1.000  O
