data_image0
_cell_length_a       17.398
_cell_length_b       17.398
_cell_length_c       8.0808
_cell_angle_alpha    90
_cell_angle_beta     90
_cell_angle_gamma    90

_symmetry_space_group_name_H-M    "P 1"
_symmetry_int_tables_number       1

loop_
  _symmetry_equiv_pos_as_xyz
  'x, y, z'

loop_
  _atom_site_label
  _atom_site_occupancy
  _atom_site_fract_x
  _atom_site_fract_y
  _atom_site_fract_z
  _atom_site_thermal_displace_type
  _atom_site_B_iso_or_equiv
  _atom_site_type_symbol
  N1       1.0000 0.90690  0.99880  0.15620  Biso   1.000  N
  N2       1.0000 0.59170  0.00270  0.10130  Biso   1.000  N
  C1       1.0000 0.90580  0.94720  0.27530  Biso   1.000  C
  H1       1.0000 0.93820  0.90480  0.26730  Biso   1.000  H
  C2       1.0000 0.85890  0.95350  0.41030  Biso   1.000  C
  H2       1.0000 0.86530  0.92050  0.49970  Biso   1.000  H
  C3       1.0000 0.80010  0.01050  0.41460  Biso   1.000  C
  C4       1.0000 0.80480  0.06240  0.28510  Biso   1.000  C
  H3       1.0000 0.77110  0.10380  0.28210  Biso   1.000  H
  C5       1.0000 0.85820  0.05420  0.16070  Biso   1.000  C
  H4       1.0000 0.85900  0.09040  0.07610  Biso   1.000  H
  C6       1.0000 0.74610  0.02110  0.54970  Biso   1.000  C
  H5       1.0000 0.71190  0.06210  0.54200  Biso   1.000  H
  C7       1.0000 0.74180  0.97810  0.67970  Biso   1.000  C
  H6       1.0000 0.77180  0.93390  0.67680  Biso   1.000  H
  C8       1.0000 0.69640  0.98870  0.83140  Biso   1.000  C
  C9       1.0000 0.69610  0.93630  0.95710  Biso   1.000  C
  H7       1.0000 0.72920  0.89430  0.95520  Biso   1.000  H
  C10      1.0000 0.64620  0.94690  0.08570  Biso   1.000  C
  H8       1.0000 0.64990  0.91210  0.17260  Biso   1.000  H
  C11      1.0000 0.60130  0.05590  0.98500  Biso   1.000  C
  H9       1.0000 0.57080  0.09970  0.99110  Biso   1.000  H
  C12      1.0000 0.65300  0.05120  0.85470  Biso   1.000  C
  H10      1.0000 0.65750  0.09240  0.78200  Biso   1.000  H
  N3       1.0000 0.40690  0.49880  0.65620  Biso   1.000  N
  N4       1.0000 0.09170  0.50270  0.60130  Biso   1.000  N
  C13      1.0000 0.40580  0.44720  0.77530  Biso   1.000  C
  H11      1.0000 0.43820  0.40480  0.76730  Biso   1.000  H
  C14      1.0000 0.35890  0.45350  0.91030  Biso   1.000  C
  H12      1.0000 0.36530  0.42050  0.99970  Biso   1.000  H
  C15      1.0000 0.30010  0.51050  0.91460  Biso   1.000  C
  C16      1.0000 0.30480  0.56240  0.78510  Biso   1.000  C
  H13      1.0000 0.27110  0.60380  0.78210  Biso   1.000  H
  C17      1.0000 0.35820  0.55420  0.66070  Biso   1.000  C
  H14      1.0000 0.35900  0.59040  0.57610  Biso   1.000  H
  C18      1.0000 0.24610  0.52110  0.04970  Biso   1.000  C
  H15      1.0000 0.21190  0.56210  0.04200  Biso   1.000  H
  C19      1.0000 0.24180  0.47810  0.17970  Biso   1.000  C
  H16      1.0000 0.27180  0.43390  0.17680  Biso   1.000  H
  C20      1.0000 0.19640  0.48870  0.33140  Biso   1.000  C
  C21      1.0000 0.19610  0.43630  0.45710  Biso   1.000  C
  H17      1.0000 0.22920  0.39430  0.45520  Biso   1.000  H
  C22      1.0000 0.14620  0.44690  0.58570  Biso   1.000  C
  H18      1.0000 0.14990  0.41210  0.67260  Biso   1.000  H
  C23      1.0000 0.10130  0.55590  0.48500  Biso   1.000  C
  H19      1.0000 0.07080  0.59970  0.49110  Biso   1.000  H
  C24      1.0000 0.15300  0.55120  0.35470  Biso   1.000  C
  H20      1.0000 0.15750  0.59240  0.28200  Biso   1.000  H
  N5       1.0000 0.09310  0.00120  0.15620  Biso   1.000  N
  N6       1.0000 0.40830  0.99730  0.10130  Biso   1.000  N
  C25      1.0000 0.09420  0.05280  0.27530  Biso   1.000  C
  H21      1.0000 0.06180  0.09520  0.26730  Biso   1.000  H
  C26      1.0000 0.14110  0.04650  0.41030  Biso   1.000  C
  H22      1.0000 0.13470  0.07950  0.49970  Biso   1.000  H
  C27      1.0000 0.19990  0.98950  0.41460  Biso   1.000  C
  C28      1.0000 0.19520  0.93760  0.28510  Biso   1.000  C
  H23      1.0000 0.22890  0.89620  0.28210  Biso   1.000  H
  C29      1.0000 0.14180  0.94580  0.16070  Biso   1.000  C
  H24      1.0000 0.14100  0.90960  0.07610  Biso   1.000  H
  C30      1.0000 0.25390  0.97890  0.54970  Biso   1.000  C
  H25      1.0000 0.28810  0.93790  0.54200  Biso   1.000  H
  C31      1.0000 0.25820  0.02190  0.67970  Biso   1.000  C
  H26      1.0000 0.22820  0.06610  0.67680  Biso   1.000  H
  C32      1.0000 0.30360  0.01130  0.83140  Biso   1.000  C
  C33      1.0000 0.30390  0.06370  0.95710  Biso   1.000  C
  H27      1.0000 0.27080  0.10570  0.95520  Biso   1.000  H
  C34      1.0000 0.35380  0.05310  0.08570  Biso   1.000  C
  H28      1.0000 0.35010  0.08790  0.17260  Biso   1.000  H
  C35      1.0000 0.39870  0.94410  0.98500  Biso   1.000  C
  H29      1.0000 0.42920  0.90030  0.99110  Biso   1.000  H
  C36      1.0000 0.34700  0.94880  0.85470  Biso   1.000  C
  H30      1.0000 0.34250  0.90760  0.78200  Biso   1.000  H
  N7       1.0000 0.59310  0.50120  0.65620  Biso   1.000  N
  N8       1.0000 0.90830  0.49730  0.60130  Biso   1.000  N
  C37      1.0000 0.59420  0.55280  0.77530  Biso   1.000  C
  H31      1.0000 0.56180  0.59520  0.76730  Biso   1.000  H
  C38      1.0000 0.64110  0.54650  0.91030  Biso   1.000  C
  H32      1.0000 0.63470  0.57950  0.99970  Biso   1.000  H
  C39      1.0000 0.69990  0.48950  0.91460  Biso   1.000  C
  C40      1.0000 0.69520  0.43760  0.78510  Biso   1.000  C
  H33      1.0000 0.72890  0.39620  0.78210  Biso   1.000  H
  C41      1.0000 0.64180  0.44580  0.66070  Biso   1.000  C
  H34      1.0000 0.64100  0.40960  0.57610  Biso   1.000  H
  C42      1.0000 0.75390  0.47890  0.04970  Biso   1.000  C
  H35      1.0000 0.78810  0.43790  0.04200  Biso   1.000  H
  C43      1.0000 0.75820  0.52190  0.17970  Biso   1.000  C
  H36      1.0000 0.72820  0.56610  0.17680  Biso   1.000  H
  C44      1.0000 0.80360  0.51130  0.33140  Biso   1.000  C
  C45      1.0000 0.80390  0.56370  0.45710  Biso   1.000  C
  H37      1.0000 0.77080  0.60570  0.45520  Biso   1.000  H
  C46      1.0000 0.85380  0.55310  0.58570  Biso   1.000  C
  H38      1.0000 0.85010  0.58790  0.67260  Biso   1.000  H
  C47      1.0000 0.89870  0.44410  0.48500  Biso   1.000  C
  H39      1.0000 0.92920  0.40030  0.49110  Biso   1.000  H
  C48      1.0000 0.84700  0.44880  0.35470  Biso   1.000  C
  H40      1.0000 0.84250  0.40760  0.28200  Biso   1.000  H
  N9       1.0000 0.99880  0.09310  0.84380  Biso   1.000  N
  N10      1.0000 0.00270  0.40830  0.89870  Biso   1.000  N
  C49      1.0000 0.94720  0.09420  0.72470  Biso   1.000  C
  H41      1.0000 0.90480  0.06180  0.73270  Biso   1.000  H
  C50      1.0000 0.95350  0.14110  0.58970  Biso   1.000  C
  H42      1.0000 0.92050  0.13470  0.50030  Biso   1.000  H
  C51      1.0000 0.01050  0.19990  0.58540  Biso   1.000  C
  C52      1.0000 0.06240  0.19520  0.71490  Biso   1.000  C
  H43      1.0000 0.10380  0.22890  0.71790  Biso   1.000  H
  C53      1.0000 0.05420  0.14180  0.83930  Biso   1.000  C
  H44      1.0000 0.09040  0.14100  0.92390  Biso   1.000  H
  C54      1.0000 0.02110  0.25390  0.45030  Biso   1.000  C
  H45      1.0000 0.06210  0.28810  0.45800  Biso   1.000  H
  C55      1.0000 0.97810  0.25820  0.32030  Biso   1.000  C
  H46      1.0000 0.93390  0.22820  0.32320  Biso   1.000  H
  C56      1.0000 0.98870  0.30360  0.16860  Biso   1.000  C
  C57      1.0000 0.93630  0.30390  0.04290  Biso   1.000  C
  H47      1.0000 0.89430  0.27080  0.04480  Biso   1.000  H
  C58      1.0000 0.94690  0.35380  0.91430  Biso   1.000  C
  H48      1.0000 0.91210  0.35010  0.82740  Biso   1.000  H
  C59      1.0000 0.05590  0.39870  0.01500  Biso   1.000  C
  H49      1.0000 0.09970  0.42920  0.00890  Biso   1.000  H
  C60      1.0000 0.05120  0.34700  0.14530  Biso   1.000  C
  H50      1.0000 0.09240  0.34250  0.21800  Biso   1.000  H
  N11      1.0000 0.49880  0.59310  0.34380  Biso   1.000  N
  N12      1.0000 0.50270  0.90830  0.39870  Biso   1.000  N
  C61      1.0000 0.44720  0.59420  0.22470  Biso   1.000  C
  H51      1.0000 0.40480  0.56180  0.23270  Biso   1.000  H
  C62      1.0000 0.45350  0.64110  0.08970  Biso   1.000  C
  H52      1.0000 0.42050  0.63470  0.00030  Biso   1.000  H
  C63      1.0000 0.51050  0.69990  0.08540  Biso   1.000  C
  C64      1.0000 0.56240  0.69520  0.21490  Biso   1.000  C
  H53      1.0000 0.60380  0.72890  0.21790  Biso   1.000  H
  C65      1.0000 0.55420  0.64180  0.33930  Biso   1.000  C
  H54      1.0000 0.59040  0.64100  0.42390  Biso   1.000  H
  C66      1.0000 0.52110  0.75390  0.95030  Biso   1.000  C
  H55      1.0000 0.56210  0.78810  0.95800  Biso   1.000  H
  C67      1.0000 0.47810  0.75820  0.82030  Biso   1.000  C
  H56      1.0000 0.43390  0.72820  0.82320  Biso   1.000  H
  C68      1.0000 0.48870  0.80360  0.66860  Biso   1.000  C
  C69      1.0000 0.43630  0.80390  0.54290  Biso   1.000  C
  H57      1.0000 0.39430  0.77080  0.54480  Biso   1.000  H
  C70      1.0000 0.44690  0.85380  0.41430  Biso   1.000  C
  H58      1.0000 0.41210  0.85010  0.32740  Biso   1.000  H
  C71      1.0000 0.55590  0.89870  0.51500  Biso   1.000  C
  H59      1.0000 0.59970  0.92920  0.50890  Biso   1.000  H
  C72      1.0000 0.55120  0.84700  0.64530  Biso   1.000  C
  H60      1.0000 0.59240  0.84250  0.71800  Biso   1.000  H
  N13      1.0000 0.00120  0.90690  0.84380  Biso   1.000  N
  N14      1.0000 0.99730  0.59170  0.89870  Biso   1.000  N
  C73      1.0000 0.05280  0.90580  0.72470  Biso   1.000  C
  H61      1.0000 0.09520  0.93820  0.73270  Biso   1.000  H
  C74      1.0000 0.04650  0.85890  0.58970  Biso   1.000  C
  H62      1.0000 0.07950  0.86530  0.50030  Biso   1.000  H
  C75      1.0000 0.98950  0.80010  0.58540  Biso   1.000  C
  C76      1.0000 0.93760  0.80480  0.71490  Biso   1.000  C
  H63      1.0000 0.89620  0.77110  0.71790  Biso   1.000  H
  C77      1.0000 0.94580  0.85820  0.83930  Biso   1.000  C
  H64      1.0000 0.90960  0.85900  0.92390  Biso   1.000  H
  C78      1.0000 0.97890  0.74610  0.45030  Biso   1.000  C
  H65      1.0000 0.93790  0.71190  0.45800  Biso   1.000  H
  C79      1.0000 0.02190  0.74180  0.32030  Biso   1.000  C
  H66      1.0000 0.06610  0.77180  0.32320  Biso   1.000  H
  C80      1.0000 0.01130  0.69640  0.16860  Biso   1.000  C
  C81      1.0000 0.06370  0.69610  0.04290  Biso   1.000  C
  H67      1.0000 0.10570  0.72920  0.04480  Biso   1.000  H
  C82      1.0000 0.05310  0.64620  0.91430  Biso   1.000  C
  H68      1.0000 0.08790  0.64990  0.82740  Biso   1.000  H
  C83      1.0000 0.94410  0.60130  0.01500  Biso   1.000  C
  H69      1.0000 0.90030  0.57080  0.00890  Biso   1.000  H
  C84      1.0000 0.94880  0.65300  0.14530  Biso   1.000  C
  H70      1.0000 0.90760  0.65750  0.21800  Biso   1.000  H
  N15      1.0000 0.50120  0.40690  0.34380  Biso   1.000  N
  N16      1.0000 0.49730  0.09170  0.39870  Biso   1.000  N
  C85      1.0000 0.55280  0.40580  0.22470  Biso   1.000  C
  H71      1.0000 0.59520  0.43820  0.23270  Biso   1.000  H
  C86      1.0000 0.54650  0.35890  0.08970  Biso   1.000  C
  H72      1.0000 0.57950  0.36530  0.00030  Biso   1.000  H
  C87      1.0000 0.48950  0.30010  0.08540  Biso   1.000  C
  C88      1.0000 0.43760  0.30480  0.21490  Biso   1.000  C
  H73      1.0000 0.39620  0.27110  0.21790  Biso   1.000  H
  C89      1.0000 0.44580  0.35820  0.33930  Biso   1.000  C
  H74      1.0000 0.40960  0.35900  0.42390  Biso   1.000  H
  C90      1.0000 0.47890  0.24610  0.95030  Biso   1.000  C
  H75      1.0000 0.43790  0.21190  0.95800  Biso   1.000  H
  C91      1.0000 0.52190  0.24180  0.82030  Biso   1.000  C
  H76      1.0000 0.56610  0.27180  0.82320  Biso   1.000  H
  C92      1.0000 0.51130  0.19640  0.66860  Biso   1.000  C
  C93      1.0000 0.56370  0.19610  0.54290  Biso   1.000  C
  H77      1.0000 0.60570  0.22920  0.54480  Biso   1.000  H
  C94      1.0000 0.55310  0.14620  0.41430  Biso   1.000  C
  H78      1.0000 0.58790  0.14990  0.32740  Biso   1.000  H
  C95      1.0000 0.44410  0.10130  0.51500  Biso   1.000  C
  H79      1.0000 0.40030  0.07080  0.50890  Biso   1.000  H
  C96      1.0000 0.44880  0.15300  0.64530  Biso   1.000  C
  H80      1.0000 0.40760  0.15750  0.71800  Biso   1.000  H
  Cu1      1.0000 0.00000  0.00000  0.00000  Biso   1.000  Cu
  Cu2      1.0000 0.50000  0.50000  0.50000  Biso   1.000  Cu
  Cu3      1.0000 0.50000  0.00000  0.25000  Biso   1.000  Cu
  Cu4      1.0000 0.00000  0.50000  0.75000  Biso   1.000  Cu
