data_image0
_cell_length_a       6.6425
_cell_length_b       16.387
_cell_length_c       13.3679
_cell_angle_alpha    90
_cell_angle_beta     90
_cell_angle_gamma    90

_symmetry_space_group_name_H-M    "P 1"
_symmetry_int_tables_number       1

loop_
  _symmetry_equiv_pos_as_xyz
  'x, y, z'

loop_
  _atom_site_label
  _atom_site_occupancy
  _atom_site_fract_x
  _atom_site_fract_y
  _atom_site_fract_z
  _atom_site_thermal_displace_type
  _atom_site_B_iso_or_equiv
  _atom_site_type_symbol
  C1       1.0000 0.18443  0.53400  0.53270  Biso   1.000  C
  O1       1.0000 0.16190  0.66567  0.65930  Biso   1.000  O
  N1       1.0000 0.36900  0.43200  0.43500  Biso   1.000  N
  C2       1.0000 0.68443  0.03400  0.03270  Biso   1.000  C
  O2       1.0000 0.66190  0.16567  0.15930  Biso   1.000  O
  N2       1.0000 0.86900  0.93200  0.93500  Biso   1.000  N
  C3       1.0000 0.81557  0.96600  0.53270  Biso   1.000  C
  O3       1.0000 0.83810  0.83433  0.65930  Biso   1.000  O
  N3       1.0000 0.63100  0.06800  0.43500  Biso   1.000  N
  C4       1.0000 0.31557  0.46600  0.03270  Biso   1.000  C
  O4       1.0000 0.33810  0.33433  0.15930  Biso   1.000  O
  N4       1.0000 0.13100  0.56800  0.93500  Biso   1.000  N
  C5       1.0000 0.81557  0.03400  0.46730  Biso   1.000  C
  O5       1.0000 0.83810  0.16567  0.34070  Biso   1.000  O
  N5       1.0000 0.63100  0.93200  0.56500  Biso   1.000  N
  C6       1.0000 0.31557  0.53400  0.96730  Biso   1.000  C
  O6       1.0000 0.33810  0.66567  0.84070  Biso   1.000  O
  N6       1.0000 0.13100  0.43200  0.06500  Biso   1.000  N
  C7       1.0000 0.18443  0.46600  0.46730  Biso   1.000  C
  O7       1.0000 0.16190  0.33433  0.34070  Biso   1.000  O
  N7       1.0000 0.36900  0.56800  0.56500  Biso   1.000  N
  C8       1.0000 0.68443  0.96600  0.96730  Biso   1.000  C
  O8       1.0000 0.66190  0.83433  0.84070  Biso   1.000  O
  N8       1.0000 0.86900  0.06800  0.06500  Biso   1.000  N
  C9       1.0000 0.81557  0.46600  0.46730  Biso   1.000  C
  O9       1.0000 0.83810  0.33433  0.34070  Biso   1.000  O
  N9       1.0000 0.63100  0.56800  0.56500  Biso   1.000  N
  C10      1.0000 0.31557  0.96600  0.96730  Biso   1.000  C
  O10      1.0000 0.33810  0.83433  0.84070  Biso   1.000  O
  N10      1.0000 0.13100  0.06800  0.06500  Biso   1.000  N
  C11      1.0000 0.18443  0.03400  0.46730  Biso   1.000  C
  O11      1.0000 0.16190  0.16567  0.34070  Biso   1.000  O
  N11      1.0000 0.36900  0.93200  0.56500  Biso   1.000  N
  C12      1.0000 0.68443  0.53400  0.96730  Biso   1.000  C
  O12      1.0000 0.66190  0.66567  0.84070  Biso   1.000  O
  N12      1.0000 0.86900  0.43200  0.06500  Biso   1.000  N
  C13      1.0000 0.18443  0.96600  0.53270  Biso   1.000  C
  O13      1.0000 0.16190  0.83433  0.65930  Biso   1.000  O
  N13      1.0000 0.36900  0.06800  0.43500  Biso   1.000  N
  C14      1.0000 0.68443  0.46600  0.03270  Biso   1.000  C
  O14      1.0000 0.66190  0.33433  0.15930  Biso   1.000  O
  N14      1.0000 0.86900  0.56800  0.93500  Biso   1.000  N
  C15      1.0000 0.81557  0.53400  0.53270  Biso   1.000  C
  O15      1.0000 0.83810  0.66567  0.65930  Biso   1.000  O
  N15      1.0000 0.63100  0.43200  0.43500  Biso   1.000  N
  C16      1.0000 0.31557  0.03400  0.03270  Biso   1.000  C
  O16      1.0000 0.33810  0.16567  0.15930  Biso   1.000  O
  N16      1.0000 0.13100  0.93200  0.93500  Biso   1.000  N
  Al1      1.0000 0.25000  0.25000  0.25000  Biso   1.000  Al
  Al2      1.0000 0.75000  0.25000  0.25000  Biso   1.000  Al
  Al3      1.0000 0.75000  0.75000  0.75000  Biso   1.000  Al
  Al4      1.0000 0.25000  0.75000  0.75000  Biso   1.000  Al
  O17      1.0000 0.00000  0.25000  0.18840  Biso   1.000  O
  O18      1.0000 0.50000  0.75000  0.68840  Biso   1.000  O
  O19      1.0000 0.00000  0.75000  0.81160  Biso   1.000  O
  O20      1.0000 0.50000  0.25000  0.31160  Biso   1.000  O
  C17      1.0000 0.00000  0.56800  0.56530  Biso   1.000  C
  C18      1.0000 0.00000  0.63590  0.63060  Biso   1.000  C
  C19      1.0000 0.50000  0.06800  0.06530  Biso   1.000  C
  C20      1.0000 0.50000  0.13590  0.13060  Biso   1.000  C
  C21      1.0000 0.00000  0.93200  0.56530  Biso   1.000  C
  C22      1.0000 0.00000  0.86410  0.63060  Biso   1.000  C
  C23      1.0000 0.50000  0.43200  0.06530  Biso   1.000  C
  C24      1.0000 0.50000  0.36410  0.13060  Biso   1.000  C
  C25      1.0000 0.00000  0.06800  0.43470  Biso   1.000  C
  C26      1.0000 0.00000  0.13590  0.36940  Biso   1.000  C
  C27      1.0000 0.50000  0.56800  0.93470  Biso   1.000  C
  C28      1.0000 0.50000  0.63590  0.86940  Biso   1.000  C
  C29      1.0000 0.00000  0.43200  0.43470  Biso   1.000  C
  C30      1.0000 0.00000  0.36410  0.36940  Biso   1.000  C
  C31      1.0000 0.50000  0.93200  0.93470  Biso   1.000  C
  C32      1.0000 0.50000  0.86410  0.86940  Biso   1.000  C
