data_image0
_cell_length_a       8.903
_cell_length_b       12.3722
_cell_length_c       12.3722
_cell_angle_alpha    93.0949
_cell_angle_beta     110.844
_cell_angle_gamma    110.844

_symmetry_space_group_name_H-M    P 1
_symmetry_int_tables_number       1

loop_
  _symmetry_equiv_pos_as_xyz
  'x, y, z'

loop_
  _atom_site_label
  _atom_site_occupancy
  _atom_site_fract_x
  _atom_site_fract_y
  _atom_site_fract_z
  _atom_site_thermal_displace_type
  _atom_site_B_iso_or_equiv
  _atom_site_type_symbol
  Na1      1.0000 0.16750  0.30291  0.47895  Biso   1.000  Na
  Na2      1.0000 0.18300  0.57290  0.58922  Biso   1.000  Na
  Na3      1.0000 0.66750  0.47895  0.30291  Biso   1.000  Na
  Na4      1.0000 0.68300  0.58922  0.57290  Biso   1.000  Na
  H1       1.0000 0.02200  0.42400  0.36400  Biso   1.000  H
  H2       1.0000 0.15700  0.49200  0.35200  Biso   1.000  H
  H3       1.0000 0.09100  0.37500  0.68500  Biso   1.000  H
  H4       1.0000 0.93800  0.32400  0.59800  Biso   1.000  H
  H5       1.0000 0.15000  0.17800  0.65600  Biso   1.000  H
  H6       1.0000 0.30900  0.17900  0.63700  Biso   1.000  H
  H7       1.0000 0.45400  0.46700  0.68900  Biso   1.000  H
  H8       1.0000 0.51500  0.39000  0.63800  Biso   1.000  H
  H9       1.0000 0.52200  0.36400  0.42400  Biso   1.000  H
  H10      1.0000 0.65700  0.35200  0.49200  Biso   1.000  H
  H11      1.0000 0.59100  0.68500  0.37500  Biso   1.000  H
  H12      1.0000 0.43800  0.59800  0.32400  Biso   1.000  H
  H13      1.0000 0.65000  0.65600  0.17800  Biso   1.000  H
  H14      1.0000 0.80900  0.63700  0.17900  Biso   1.000  H
  H15      1.0000 0.95400  0.68900  0.46700  Biso   1.000  H
  H16      1.0000 0.01500  0.63800  0.39000  Biso   1.000  H
  C1       1.0000 0.49880  0.04370  0.60170  Biso   1.000  C
  C2       1.0000 0.59170  0.17510  0.60430  Biso   1.000  C
  C3       1.0000 0.38770  0.84340  0.49540  Biso   1.000  C
  C4       1.0000 0.53180  0.80700  0.56900  Biso   1.000  C
  C5       1.0000 0.32340  0.99720  0.38880  Biso   1.000  C
  C6       1.0000 0.13560  0.93800  0.38240  Biso   1.000  C
  C7       1.0000 0.00450  0.96610  0.28150  Biso   1.000  C
  C8       1.0000 0.00930  0.92650  0.16470  Biso   1.000  C
  C9       1.0000 0.19240  0.98830  0.16890  Biso   1.000  C
  C10      1.0000 0.33170  0.96530  0.27090  Biso   1.000  C
  C11      1.0000 0.53980  0.96130  0.18610  Biso   1.000  C
  C12      1.0000 0.55450  0.84690  0.21610  Biso   1.000  C
  C13      1.0000 0.55150  0.15230  0.25990  Biso   1.000  C
  C14      1.0000 0.74710  0.23200  0.30380  Biso   1.000  C
  C15      1.0000 0.99880  0.60170  0.04370  Biso   1.000  C
  C16      1.0000 0.09170  0.60430  0.17510  Biso   1.000  C
  C17      1.0000 0.88770  0.49540  0.84340  Biso   1.000  C
  C18      1.0000 0.03180  0.56900  0.80700  Biso   1.000  C
  C19      1.0000 0.82340  0.38880  0.99720  Biso   1.000  C
  C20      1.0000 0.63560  0.38240  0.93800  Biso   1.000  C
  C21      1.0000 0.50450  0.28150  0.96610  Biso   1.000  C
  C22      1.0000 0.50930  0.16470  0.92650  Biso   1.000  C
  C23      1.0000 0.69240  0.16890  0.98830  Biso   1.000  C
  C24      1.0000 0.83170  0.27090  0.96530  Biso   1.000  C
  C25      1.0000 0.03980  0.18610  0.96130  Biso   1.000  C
  C26      1.0000 0.05450  0.21610  0.84690  Biso   1.000  C
  C27      1.0000 0.05150  0.25990  0.15230  Biso   1.000  C
  C28      1.0000 0.24710  0.30380  0.23200  Biso   1.000  C
  N1       1.0000 0.45490  0.97040  0.48760  Biso   1.000  N
  N2       1.0000 0.51430  0.02830  0.27590  Biso   1.000  N
  N3       1.0000 0.95490  0.48760  0.97040  Biso   1.000  N
  N4       1.0000 0.01430  0.27590  0.02830  Biso   1.000  N
  O1       1.0000 0.69300  0.20250  0.55090  Biso   1.000  O
  O2       1.0000 0.56070  0.24620  0.65980  Biso   1.000  O
  O3       1.0000 0.68740  0.87270  0.59490  Biso   1.000  O
  O4       1.0000 0.48110  0.70880  0.59920  Biso   1.000  O
  O5       1.0000 0.60110  0.83990  0.32490  Biso   1.000  O
  O6       1.0000 0.53160  0.77100  0.13480  Biso   1.000  O
  O7       1.0000 0.85880  0.19400  0.35880  Biso   1.000  O
  O8       1.0000 0.78090  0.33380  0.28020  Biso   1.000  O
  O9       1.0000 0.13160  0.46690  0.40530  Biso   1.000  O
  O10      1.0000 0.05510  0.37400  0.61440  Biso   1.000  O
  O11      1.0000 0.19310  0.16640  0.60620  Biso   1.000  O
  O12      1.0000 0.46550  0.44250  0.62490  Biso   1.000  O
  O13      1.0000 0.19300  0.55090  0.20250  Biso   1.000  O
  O14      1.0000 0.06070  0.65980  0.24620  Biso   1.000  O
  O15      1.0000 0.18740  0.59490  0.87270  Biso   1.000  O
  O16      1.0000 0.98110  0.59920  0.70880  Biso   1.000  O
  O17      1.0000 0.10110  0.32490  0.83990  Biso   1.000  O
  O18      1.0000 0.03160  0.13480  0.77100  Biso   1.000  O
  O19      1.0000 0.35880  0.35880  0.19400  Biso   1.000  O
  O20      1.0000 0.28090  0.28020  0.33380  Biso   1.000  O
  O21      1.0000 0.63160  0.40530  0.46690  Biso   1.000  O
  O22      1.0000 0.55510  0.61440  0.37400  Biso   1.000  O
  O23      1.0000 0.69310  0.60620  0.16640  Biso   1.000  O
  O24      1.0000 0.96550  0.62490  0.44250  Biso   1.000  O
