data_image0
_cell_length_a       12.1
_cell_length_b       27.185
_cell_length_c       20.605
_cell_angle_alpha    90
_cell_angle_beta     90
_cell_angle_gamma    90

_symmetry_space_group_name_H-M    P 1
_symmetry_int_tables_number       1

loop_
  _symmetry_equiv_pos_as_xyz
  'x, y, z'

loop_
  _atom_site_label
  _atom_site_occupancy
  _atom_site_fract_x
  _atom_site_fract_y
  _atom_site_fract_z
  _atom_site_thermal_displace_type
  _atom_site_B_iso_or_equiv
  _atom_site_type_symbol
  Tb1      1.0000 0.88911  0.42857  0.97775  Biso   1.000  Tb
  Tb2      1.0000 0.61089  0.07143  0.97775  Biso   1.000  Tb
  Tb3      1.0000 0.38911  0.57143  0.52225  Biso   1.000  Tb
  Tb4      1.0000 0.11089  0.92857  0.52225  Biso   1.000  Tb
  Tb5      1.0000 0.11089  0.57143  0.02225  Biso   1.000  Tb
  Tb6      1.0000 0.38911  0.92857  0.02225  Biso   1.000  Tb
  Tb7      1.0000 0.61089  0.42857  0.47775  Biso   1.000  Tb
  Tb8      1.0000 0.88911  0.07143  0.47775  Biso   1.000  Tb
  P1       1.0000 0.87820  0.10794  0.90405  Biso   1.000  P
  P2       1.0000 0.62180  0.39206  0.90405  Biso   1.000  P
  P3       1.0000 0.37820  0.89206  0.59595  Biso   1.000  P
  P4       1.0000 0.12180  0.60794  0.59595  Biso   1.000  P
  P5       1.0000 0.12180  0.89206  0.09595  Biso   1.000  P
  P6       1.0000 0.37820  0.60794  0.09595  Biso   1.000  P
  P7       1.0000 0.62180  0.10794  0.40405  Biso   1.000  P
  P8       1.0000 0.87820  0.39206  0.40405  Biso   1.000  P
  H1       1.0000 0.07950  0.16040  0.92860  Biso   1.000  H
  H2       1.0000 0.26300  0.13620  0.94950  Biso   1.000  H
  H3       1.0000 0.16510  0.99560  0.96290  Biso   1.000  H
  H4       1.0000 0.98590  0.01930  0.94140  Biso   1.000  H
  H5       1.0000 0.04230  0.08970  0.80700  Biso   1.000  H
  H6       1.0000 0.03860  0.07900  0.69430  Biso   1.000  H
  H7       1.0000 0.70460  0.08320  0.69770  Biso   1.000  H
  H8       1.0000 0.71170  0.09160  0.81140  Biso   1.000  H
  H9       1.0000 0.88290  0.19520  0.81920  Biso   1.000  H
  H10      1.0000 0.89270  0.27950  0.83820  Biso   1.000  H
  H11      1.0000 0.88750  0.25300  0.03190  Biso   1.000  H
  H12      1.0000 0.86710  0.16850  0.01200  Biso   1.000  H
  H13      1.0000 0.42050  0.33960  0.92860  Biso   1.000  H
  H14      1.0000 0.23700  0.36380  0.94950  Biso   1.000  H
  H15      1.0000 0.33490  0.50440  0.96290  Biso   1.000  H
  H16      1.0000 0.51410  0.48070  0.94140  Biso   1.000  H
  H17      1.0000 0.45770  0.41030  0.80700  Biso   1.000  H
  H18      1.0000 0.46140  0.42100  0.69430  Biso   1.000  H
  H19      1.0000 0.79540  0.41680  0.69770  Biso   1.000  H
  H20      1.0000 0.78830  0.40840  0.81140  Biso   1.000  H
  H21      1.0000 0.61710  0.30480  0.81920  Biso   1.000  H
  H22      1.0000 0.60730  0.22050  0.83820  Biso   1.000  H
  H23      1.0000 0.61250  0.24700  0.03190  Biso   1.000  H
  H24      1.0000 0.63290  0.33150  0.01200  Biso   1.000  H
  H25      1.0000 0.57950  0.83960  0.57140  Biso   1.000  H
  H26      1.0000 0.76300  0.86380  0.55050  Biso   1.000  H
  H27      1.0000 0.66510  0.00440  0.53710  Biso   1.000  H
  H28      1.0000 0.48590  0.98070  0.55860  Biso   1.000  H
  H29      1.0000 0.54230  0.91030  0.69300  Biso   1.000  H
  H30      1.0000 0.53860  0.92100  0.80570  Biso   1.000  H
  H31      1.0000 0.20460  0.91680  0.80230  Biso   1.000  H
  H32      1.0000 0.21170  0.90840  0.68860  Biso   1.000  H
  H33      1.0000 0.38290  0.80480  0.68080  Biso   1.000  H
  H34      1.0000 0.39270  0.72050  0.66180  Biso   1.000  H
  H35      1.0000 0.38750  0.74700  0.46810  Biso   1.000  H
  H36      1.0000 0.36710  0.83150  0.48800  Biso   1.000  H
  H37      1.0000 0.92050  0.66040  0.57140  Biso   1.000  H
  H38      1.0000 0.73700  0.63620  0.55050  Biso   1.000  H
  H39      1.0000 0.83490  0.49560  0.53710  Biso   1.000  H
  H40      1.0000 0.01410  0.51930  0.55860  Biso   1.000  H
  H41      1.0000 0.95770  0.58970  0.69300  Biso   1.000  H
  H42      1.0000 0.96140  0.57900  0.80570  Biso   1.000  H
  H43      1.0000 0.29540  0.58320  0.80230  Biso   1.000  H
  H44      1.0000 0.28830  0.59160  0.68860  Biso   1.000  H
  H45      1.0000 0.11710  0.69520  0.68080  Biso   1.000  H
  H46      1.0000 0.10730  0.77950  0.66180  Biso   1.000  H
  H47      1.0000 0.11250  0.75300  0.46810  Biso   1.000  H
  H48      1.0000 0.13290  0.66850  0.48800  Biso   1.000  H
  H49      1.0000 0.92050  0.83960  0.07140  Biso   1.000  H
  H50      1.0000 0.73700  0.86380  0.05050  Biso   1.000  H
  H51      1.0000 0.83490  0.00440  0.03710  Biso   1.000  H
  H52      1.0000 0.01410  0.98070  0.05860  Biso   1.000  H
  H53      1.0000 0.95770  0.91030  0.19300  Biso   1.000  H
  H54      1.0000 0.96140  0.92100  0.30570  Biso   1.000  H
  H55      1.0000 0.29540  0.91680  0.30230  Biso   1.000  H
  H56      1.0000 0.28830  0.90840  0.18860  Biso   1.000  H
  H57      1.0000 0.11710  0.80480  0.18080  Biso   1.000  H
  H58      1.0000 0.10730  0.72050  0.16180  Biso   1.000  H
  H59      1.0000 0.11250  0.74700  0.96810  Biso   1.000  H
  H60      1.0000 0.13290  0.83150  0.98800  Biso   1.000  H
  H61      1.0000 0.57950  0.66040  0.07140  Biso   1.000  H
  H62      1.0000 0.76300  0.63620  0.05050  Biso   1.000  H
  H63      1.0000 0.66510  0.49560  0.03710  Biso   1.000  H
  H64      1.0000 0.48590  0.51930  0.05860  Biso   1.000  H
  H65      1.0000 0.54230  0.58970  0.19300  Biso   1.000  H
  H66      1.0000 0.53860  0.57900  0.30570  Biso   1.000  H
  H67      1.0000 0.20460  0.58320  0.30230  Biso   1.000  H
  H68      1.0000 0.21170  0.59160  0.18860  Biso   1.000  H
  H69      1.0000 0.38290  0.69520  0.18080  Biso   1.000  H
  H70      1.0000 0.39270  0.77950  0.16180  Biso   1.000  H
  H71      1.0000 0.38750  0.75300  0.96810  Biso   1.000  H
  H72      1.0000 0.36710  0.66850  0.98800  Biso   1.000  H
  H73      1.0000 0.42050  0.16040  0.42860  Biso   1.000  H
  H74      1.0000 0.23700  0.13620  0.44950  Biso   1.000  H
  H75      1.0000 0.33490  0.99560  0.46290  Biso   1.000  H
  H76      1.0000 0.51410  0.01930  0.44140  Biso   1.000  H
  H77      1.0000 0.45770  0.08970  0.30700  Biso   1.000  H
  H78      1.0000 0.46140  0.07900  0.19430  Biso   1.000  H
  H79      1.0000 0.79540  0.08320  0.19770  Biso   1.000  H
  H80      1.0000 0.78830  0.09160  0.31140  Biso   1.000  H
  H81      1.0000 0.61710  0.19520  0.31920  Biso   1.000  H
  H82      1.0000 0.60730  0.27950  0.33820  Biso   1.000  H
  H83      1.0000 0.61250  0.25300  0.53190  Biso   1.000  H
  H84      1.0000 0.63290  0.16850  0.51200  Biso   1.000  H
  H85      1.0000 0.07950  0.33960  0.42860  Biso   1.000  H
  H86      1.0000 0.26300  0.36380  0.44950  Biso   1.000  H
  H87      1.0000 0.16510  0.50440  0.46290  Biso   1.000  H
  H88      1.0000 0.98590  0.48070  0.44140  Biso   1.000  H
  H89      1.0000 0.04230  0.41030  0.30700  Biso   1.000  H
  H90      1.0000 0.03860  0.42100  0.19430  Biso   1.000  H
  H91      1.0000 0.70460  0.41680  0.19770  Biso   1.000  H
  H92      1.0000 0.71170  0.40840  0.31140  Biso   1.000  H
  H93      1.0000 0.88290  0.30480  0.31920  Biso   1.000  H
  H94      1.0000 0.89270  0.22050  0.33820  Biso   1.000  H
  H95      1.0000 0.88750  0.24700  0.53190  Biso   1.000  H
  H96      1.0000 0.86710  0.33150  0.51200  Biso   1.000  H
  C1       1.0000 0.01560  0.09150  0.92910  Biso   1.000  C
  C2       1.0000 0.09690  0.12660  0.93430  Biso   1.000  C
  C3       1.0000 0.20590  0.11230  0.94810  Biso   1.000  C
  C4       1.0000 0.22980  0.06500  0.95920  Biso   1.000  C
  C5       1.0000 0.14800  0.02920  0.95580  Biso   1.000  C
  C6       1.0000 0.04260  0.04350  0.94200  Biso   1.000  C
  C7       1.0000 0.34710  0.05080  0.97460  Biso   1.000  C
  C8       1.0000 0.87480  0.09610  0.81800  Biso   1.000  C
  C9       1.0000 0.97380  0.08950  0.78440  Biso   1.000  C
  C10      1.0000 0.97130  0.08270  0.71760  Biso   1.000  C
  C11      1.0000 0.87070  0.08110  0.68450  Biso   1.000  C
  C12      1.0000 0.77390  0.08480  0.71930  Biso   1.000  C
  C13      1.0000 0.77840  0.09100  0.78710  Biso   1.000  C
  C14      1.0000 0.86910  0.07430  0.61310  Biso   1.000  C
  C15      1.0000 0.87350  0.17250  0.91440  Biso   1.000  C
  C16      1.0000 0.88210  0.20700  0.86260  Biso   1.000  C
  C17      1.0000 0.88940  0.25700  0.87350  Biso   1.000  C
  C18      1.0000 0.89180  0.27360  0.93700  Biso   1.000  C
  C19      1.0000 0.88490  0.24110  0.98860  Biso   1.000  C
  C20      1.0000 0.87410  0.19060  0.97650  Biso   1.000  C
  C21      1.0000 0.89870  0.32810  0.94920  Biso   1.000  C
  C22      1.0000 0.48440  0.40850  0.92910  Biso   1.000  C
  C23      1.0000 0.40310  0.37340  0.93430  Biso   1.000  C
  C24      1.0000 0.29410  0.38770  0.94810  Biso   1.000  C
  C25      1.0000 0.27020  0.43500  0.95920  Biso   1.000  C
  C26      1.0000 0.35200  0.47080  0.95580  Biso   1.000  C
  C27      1.0000 0.45740  0.45650  0.94200  Biso   1.000  C
  C28      1.0000 0.15290  0.44920  0.97460  Biso   1.000  C
  C29      1.0000 0.62520  0.40390  0.81800  Biso   1.000  C
  C30      1.0000 0.52620  0.41050  0.78440  Biso   1.000  C
  C31      1.0000 0.52870  0.41730  0.71760  Biso   1.000  C
  C32      1.0000 0.62930  0.41890  0.68450  Biso   1.000  C
  C33      1.0000 0.72610  0.41520  0.71930  Biso   1.000  C
  C34      1.0000 0.72160  0.40900  0.78710  Biso   1.000  C
  C35      1.0000 0.63090  0.42570  0.61310  Biso   1.000  C
  C36      1.0000 0.62650  0.32750  0.91440  Biso   1.000  C
  C37      1.0000 0.61790  0.29300  0.86260  Biso   1.000  C
  C38      1.0000 0.61060  0.24300  0.87350  Biso   1.000  C
  C39      1.0000 0.60820  0.22640  0.93700  Biso   1.000  C
  C40      1.0000 0.61510  0.25890  0.98860  Biso   1.000  C
  C41      1.0000 0.62590  0.30940  0.97650  Biso   1.000  C
  C42      1.0000 0.60130  0.17190  0.94920  Biso   1.000  C
  C43      1.0000 0.51560  0.90850  0.57090  Biso   1.000  C
  C44      1.0000 0.59690  0.87340  0.56570  Biso   1.000  C
  C45      1.0000 0.70590  0.88770  0.55190  Biso   1.000  C
  C46      1.0000 0.72980  0.93500  0.54080  Biso   1.000  C
  C47      1.0000 0.64800  0.97080  0.54420  Biso   1.000  C
  C48      1.0000 0.54260  0.95650  0.55800  Biso   1.000  C
  C49      1.0000 0.84710  0.94920  0.52540  Biso   1.000  C
  C50      1.0000 0.37480  0.90390  0.68200  Biso   1.000  C
  C51      1.0000 0.47380  0.91050  0.71560  Biso   1.000  C
  C52      1.0000 0.47130  0.91730  0.78240  Biso   1.000  C
  C53      1.0000 0.37070  0.91890  0.81550  Biso   1.000  C
  C54      1.0000 0.27390  0.91520  0.78070  Biso   1.000  C
  C55      1.0000 0.27840  0.90900  0.71290  Biso   1.000  C
  C56      1.0000 0.36910  0.92570  0.88690  Biso   1.000  C
  C57      1.0000 0.37350  0.82750  0.58560  Biso   1.000  C
  C58      1.0000 0.38210  0.79300  0.63740  Biso   1.000  C
  C59      1.0000 0.38940  0.74300  0.62650  Biso   1.000  C
  C60      1.0000 0.39180  0.72640  0.56300  Biso   1.000  C
  C61      1.0000 0.38490  0.75890  0.51140  Biso   1.000  C
  C62      1.0000 0.37410  0.80940  0.52350  Biso   1.000  C
  C63      1.0000 0.39870  0.67190  0.55080  Biso   1.000  C
  C64      1.0000 0.98440  0.59150  0.57090  Biso   1.000  C
  C65      1.0000 0.90310  0.62660  0.56570  Biso   1.000  C
  C66      1.0000 0.79410  0.61230  0.55190  Biso   1.000  C
  C67      1.0000 0.77020  0.56500  0.54080  Biso   1.000  C
  C68      1.0000 0.85200  0.52920  0.54420  Biso   1.000  C
  C69      1.0000 0.95740  0.54350  0.55800  Biso   1.000  C
  C70      1.0000 0.65290  0.55080  0.52540  Biso   1.000  C
  C71      1.0000 0.12520  0.59610  0.68200  Biso   1.000  C
  C72      1.0000 0.02620  0.58950  0.71560  Biso   1.000  C
  C73      1.0000 0.02870  0.58270  0.78240  Biso   1.000  C
  C74      1.0000 0.12930  0.58110  0.81550  Biso   1.000  C
  C75      1.0000 0.22610  0.58480  0.78070  Biso   1.000  C
  C76      1.0000 0.22160  0.59100  0.71290  Biso   1.000  C
  C77      1.0000 0.13090  0.57430  0.88690  Biso   1.000  C
  C78      1.0000 0.12650  0.67250  0.58560  Biso   1.000  C
  C79      1.0000 0.11790  0.70700  0.63740  Biso   1.000  C
  C80      1.0000 0.11060  0.75700  0.62650  Biso   1.000  C
  C81      1.0000 0.10820  0.77360  0.56300  Biso   1.000  C
  C82      1.0000 0.11510  0.74110  0.51140  Biso   1.000  C
  C83      1.0000 0.12590  0.69060  0.52350  Biso   1.000  C
  C84      1.0000 0.10130  0.82810  0.55080  Biso   1.000  C
  C85      1.0000 0.98440  0.90850  0.07090  Biso   1.000  C
  C86      1.0000 0.90310  0.87340  0.06570  Biso   1.000  C
  C87      1.0000 0.79410  0.88770  0.05190  Biso   1.000  C
  C88      1.0000 0.77020  0.93500  0.04080  Biso   1.000  C
  C89      1.0000 0.85200  0.97080  0.04420  Biso   1.000  C
  C90      1.0000 0.95740  0.95650  0.05800  Biso   1.000  C
  C91      1.0000 0.65290  0.94920  0.02540  Biso   1.000  C
  C92      1.0000 0.12520  0.90390  0.18200  Biso   1.000  C
  C93      1.0000 0.02620  0.91050  0.21560  Biso   1.000  C
  C94      1.0000 0.02870  0.91730  0.28240  Biso   1.000  C
  C95      1.0000 0.12930  0.91890  0.31550  Biso   1.000  C
  C96      1.0000 0.22610  0.91520  0.28070  Biso   1.000  C
  C97      1.0000 0.22160  0.90900  0.21290  Biso   1.000  C
  C98      1.0000 0.13090  0.92570  0.38690  Biso   1.000  C
  C99      1.0000 0.12650  0.82750  0.08560  Biso   1.000  C
  C100     1.0000 0.11790  0.79300  0.13740  Biso   1.000  C
  C101     1.0000 0.11060  0.74300  0.12650  Biso   1.000  C
  C102     1.0000 0.10820  0.72640  0.06300  Biso   1.000  C
  C103     1.0000 0.11510  0.75890  0.01140  Biso   1.000  C
  C104     1.0000 0.12590  0.80940  0.02350  Biso   1.000  C
  C105     1.0000 0.10130  0.67190  0.05080  Biso   1.000  C
  C106     1.0000 0.51560  0.59150  0.07090  Biso   1.000  C
  C107     1.0000 0.59690  0.62660  0.06570  Biso   1.000  C
  C108     1.0000 0.70590  0.61230  0.05190  Biso   1.000  C
  C109     1.0000 0.72980  0.56500  0.04080  Biso   1.000  C
  C110     1.0000 0.64800  0.52920  0.04420  Biso   1.000  C
  C111     1.0000 0.54260  0.54350  0.05800  Biso   1.000  C
  C112     1.0000 0.84710  0.55080  0.02540  Biso   1.000  C
  C113     1.0000 0.37480  0.59610  0.18200  Biso   1.000  C
  C114     1.0000 0.47380  0.58950  0.21560  Biso   1.000  C
  C115     1.0000 0.47130  0.58270  0.28240  Biso   1.000  C
  C116     1.0000 0.37070  0.58110  0.31550  Biso   1.000  C
  C117     1.0000 0.27390  0.58480  0.28070  Biso   1.000  C
  C118     1.0000 0.27840  0.59100  0.21290  Biso   1.000  C
  C119     1.0000 0.36910  0.57430  0.38690  Biso   1.000  C
  C120     1.0000 0.37350  0.67250  0.08560  Biso   1.000  C
  C121     1.0000 0.38210  0.70700  0.13740  Biso   1.000  C
  C122     1.0000 0.38940  0.75700  0.12650  Biso   1.000  C
  C123     1.0000 0.39180  0.77360  0.06300  Biso   1.000  C
  C124     1.0000 0.38490  0.74110  0.01140  Biso   1.000  C
  C125     1.0000 0.37410  0.69060  0.02350  Biso   1.000  C
  C126     1.0000 0.39870  0.82810  0.05080  Biso   1.000  C
  C127     1.0000 0.48440  0.09150  0.42910  Biso   1.000  C
  C128     1.0000 0.40310  0.12660  0.43430  Biso   1.000  C
  C129     1.0000 0.29410  0.11230  0.44810  Biso   1.000  C
  C130     1.0000 0.27020  0.06500  0.45920  Biso   1.000  C
  C131     1.0000 0.35200  0.02920  0.45580  Biso   1.000  C
  C132     1.0000 0.45740  0.04350  0.44200  Biso   1.000  C
  C133     1.0000 0.15290  0.05080  0.47460  Biso   1.000  C
  C134     1.0000 0.62520  0.09610  0.31800  Biso   1.000  C
  C135     1.0000 0.52620  0.08950  0.28440  Biso   1.000  C
  C136     1.0000 0.52870  0.08270  0.21760  Biso   1.000  C
  C137     1.0000 0.62930  0.08110  0.18450  Biso   1.000  C
  C138     1.0000 0.72610  0.08480  0.21930  Biso   1.000  C
  C139     1.0000 0.72160  0.09100  0.28710  Biso   1.000  C
  C140     1.0000 0.63090  0.07430  0.11310  Biso   1.000  C
  C141     1.0000 0.62650  0.17250  0.41440  Biso   1.000  C
  C142     1.0000 0.61790  0.20700  0.36260  Biso   1.000  C
  C143     1.0000 0.61060  0.25700  0.37350  Biso   1.000  C
  C144     1.0000 0.60820  0.27360  0.43700  Biso   1.000  C
  C145     1.0000 0.61510  0.24110  0.48860  Biso   1.000  C
  C146     1.0000 0.62590  0.19060  0.47650  Biso   1.000  C
  C147     1.0000 0.60130  0.32810  0.44920  Biso   1.000  C
  C148     1.0000 0.01560  0.40850  0.42910  Biso   1.000  C
  C149     1.0000 0.09690  0.37340  0.43430  Biso   1.000  C
  C150     1.0000 0.20590  0.38770  0.44810  Biso   1.000  C
  C151     1.0000 0.22980  0.43500  0.45920  Biso   1.000  C
  C152     1.0000 0.14800  0.47080  0.45580  Biso   1.000  C
  C153     1.0000 0.04260  0.45650  0.44200  Biso   1.000  C
  C154     1.0000 0.34710  0.44920  0.47460  Biso   1.000  C
  C155     1.0000 0.87480  0.40390  0.31800  Biso   1.000  C
  C156     1.0000 0.97380  0.41050  0.28440  Biso   1.000  C
  C157     1.0000 0.97130  0.41730  0.21760  Biso   1.000  C
  C158     1.0000 0.87070  0.41890  0.18450  Biso   1.000  C
  C159     1.0000 0.77390  0.41520  0.21930  Biso   1.000  C
  C160     1.0000 0.77840  0.40900  0.28710  Biso   1.000  C
  C161     1.0000 0.86910  0.42570  0.11310  Biso   1.000  C
  C162     1.0000 0.87350  0.32750  0.41440  Biso   1.000  C
  C163     1.0000 0.88210  0.29300  0.36260  Biso   1.000  C
  C164     1.0000 0.88940  0.24300  0.37350  Biso   1.000  C
  C165     1.0000 0.89180  0.22640  0.43700  Biso   1.000  C
  C166     1.0000 0.88490  0.25890  0.48860  Biso   1.000  C
  C167     1.0000 0.87410  0.30940  0.47650  Biso   1.000  C
  C168     1.0000 0.89870  0.17190  0.44920  Biso   1.000  C
  O1       1.0000 0.79210  0.07980  0.94080  Biso   1.000  O
  O2       1.0000 0.42050  0.08240  0.96400  Biso   1.000  O
  O3       1.0000 0.36550  0.00960  0.99760  Biso   1.000  O
  O4       1.0000 0.96320  0.06520  0.58650  Biso   1.000  O
  O5       1.0000 0.78270  0.07900  0.58050  Biso   1.000  O
  O6       1.0000 0.90180  0.35900  0.90200  Biso   1.000  O
  O7       1.0000 0.89800  0.34340  0.00780  Biso   1.000  O
  O8       1.0000 0.92460  0.47490  0.88090  Biso   1.000  O
  O9       1.0000 0.70790  0.42020  0.94080  Biso   1.000  O
  O10      1.0000 0.07950  0.41760  0.96400  Biso   1.000  O
  O11      1.0000 0.13450  0.49040  0.99760  Biso   1.000  O
  O12      1.0000 0.53680  0.43480  0.58650  Biso   1.000  O
  O13      1.0000 0.71730  0.42100  0.58050  Biso   1.000  O
  O14      1.0000 0.59820  0.14100  0.90200  Biso   1.000  O
  O15      1.0000 0.60200  0.15660  0.00780  Biso   1.000  O
  O16      1.0000 0.57540  0.02510  0.88090  Biso   1.000  O
  O17      1.0000 0.29210  0.92020  0.55920  Biso   1.000  O
  O18      1.0000 0.92050  0.91760  0.53600  Biso   1.000  O
  O19      1.0000 0.86550  0.99040  0.50240  Biso   1.000  O
  O20      1.0000 0.46320  0.93480  0.91350  Biso   1.000  O
  O21      1.0000 0.28270  0.92100  0.91950  Biso   1.000  O
  O22      1.0000 0.40180  0.64100  0.59800  Biso   1.000  O
  O23      1.0000 0.39800  0.65660  0.49220  Biso   1.000  O
  O24      1.0000 0.42460  0.52510  0.61910  Biso   1.000  O
  O25      1.0000 0.20790  0.57980  0.55920  Biso   1.000  O
  O26      1.0000 0.57950  0.58240  0.53600  Biso   1.000  O
  O27      1.0000 0.63450  0.50960  0.50240  Biso   1.000  O
  O28      1.0000 0.03680  0.56520  0.91350  Biso   1.000  O
  O29      1.0000 0.21730  0.57900  0.91950  Biso   1.000  O
  O30      1.0000 0.09820  0.85900  0.59800  Biso   1.000  O
  O31      1.0000 0.10200  0.84340  0.49220  Biso   1.000  O
  O32      1.0000 0.07540  0.97490  0.61910  Biso   1.000  O
  O33      1.0000 0.20790  0.92020  0.05920  Biso   1.000  O
  O34      1.0000 0.57950  0.91760  0.03600  Biso   1.000  O
  O35      1.0000 0.63450  0.99040  0.00240  Biso   1.000  O
  O36      1.0000 0.03680  0.93480  0.41350  Biso   1.000  O
  O37      1.0000 0.21730  0.92100  0.41950  Biso   1.000  O
  O38      1.0000 0.09820  0.64100  0.09800  Biso   1.000  O
  O39      1.0000 0.10200  0.65660  0.99220  Biso   1.000  O
  O40      1.0000 0.07540  0.52510  0.11910  Biso   1.000  O
  O41      1.0000 0.29210  0.57980  0.05920  Biso   1.000  O
  O42      1.0000 0.92050  0.58240  0.03600  Biso   1.000  O
  O43      1.0000 0.86550  0.50960  0.00240  Biso   1.000  O
  O44      1.0000 0.46320  0.56520  0.41350  Biso   1.000  O
  O45      1.0000 0.28270  0.57900  0.41950  Biso   1.000  O
  O46      1.0000 0.40180  0.85900  0.09800  Biso   1.000  O
  O47      1.0000 0.39800  0.84340  0.99220  Biso   1.000  O
  O48      1.0000 0.42460  0.97490  0.11910  Biso   1.000  O
  O49      1.0000 0.70790  0.07980  0.44080  Biso   1.000  O
  O50      1.0000 0.07950  0.08240  0.46400  Biso   1.000  O
  O51      1.0000 0.13450  0.00960  0.49760  Biso   1.000  O
  O52      1.0000 0.53680  0.06520  0.08650  Biso   1.000  O
  O53      1.0000 0.71730  0.07900  0.08050  Biso   1.000  O
  O54      1.0000 0.59820  0.35900  0.40200  Biso   1.000  O
  O55      1.0000 0.60200  0.34340  0.50780  Biso   1.000  O
  O56      1.0000 0.57540  0.47490  0.38090  Biso   1.000  O
  O57      1.0000 0.79210  0.42020  0.44080  Biso   1.000  O
  O58      1.0000 0.42050  0.41760  0.46400  Biso   1.000  O
  O59      1.0000 0.36550  0.49040  0.49760  Biso   1.000  O
  O60      1.0000 0.96320  0.43480  0.08650  Biso   1.000  O
  O61      1.0000 0.78270  0.42100  0.08050  Biso   1.000  O
  O62      1.0000 0.90180  0.14100  0.40200  Biso   1.000  O
  O63      1.0000 0.89800  0.15660  0.50780  Biso   1.000  O
  O64      1.0000 0.92460  0.02510  0.38090  Biso   1.000  O
