data_image0
_cell_length_a       23.211
_cell_length_b       23.211
_cell_length_c       23.211
_cell_angle_alpha    90
_cell_angle_beta     90
_cell_angle_gamma    90

_symmetry_space_group_name_H-M    P 1
_symmetry_int_tables_number       1

loop_
  _symmetry_equiv_pos_as_xyz
  'x, y, z'

loop_
  _atom_site_label
  _atom_site_occupancy
  _atom_site_fract_x
  _atom_site_fract_y
  _atom_site_fract_z
  _atom_site_thermal_displace_type
  _atom_site_B_iso_or_equiv
  _atom_site_type_symbol
  Cu1      1.0000 0.69352  0.50000  0.00000  Biso   1.000  Cu
  Cu2      1.0000 0.30648  0.50000  0.00000  Biso   1.000  Cu
  Cu3      1.0000 0.00000  0.69352  0.50000  Biso   1.000  Cu
  Cu4      1.0000 0.00000  0.30648  0.50000  Biso   1.000  Cu
  Cu5      1.0000 0.50000  0.00000  0.69352  Biso   1.000  Cu
  Cu6      1.0000 0.50000  0.00000  0.30648  Biso   1.000  Cu
  Cu7      1.0000 0.00000  0.19352  0.50000  Biso   1.000  Cu
  Cu8      1.0000 0.00000  0.80648  0.50000  Biso   1.000  Cu
  Cu9      1.0000 0.19352  0.50000  0.00000  Biso   1.000  Cu
  Cu10     1.0000 0.80648  0.50000  0.00000  Biso   1.000  Cu
  Cu11     1.0000 0.50000  0.00000  0.80648  Biso   1.000  Cu
  Cu12     1.0000 0.50000  0.00000  0.19352  Biso   1.000  Cu
  H1       1.0000 0.66550  0.62980  0.87110  Biso   1.000  H
  H2       1.0000 0.66480  0.69570  0.79670  Biso   1.000  H
  H3       1.0000 0.33450  0.37020  0.87110  Biso   1.000  H
  H4       1.0000 0.33520  0.30430  0.79670  Biso   1.000  H
  H5       1.0000 0.33450  0.62980  0.12890  Biso   1.000  H
  H6       1.0000 0.33520  0.69570  0.20330  Biso   1.000  H
  H7       1.0000 0.66550  0.37020  0.12890  Biso   1.000  H
  H8       1.0000 0.66480  0.30430  0.20330  Biso   1.000  H
  H9       1.0000 0.87110  0.66550  0.62980  Biso   1.000  H
  H10      1.0000 0.79670  0.66480  0.69570  Biso   1.000  H
  H11      1.0000 0.87110  0.33450  0.37020  Biso   1.000  H
  H12      1.0000 0.79670  0.33520  0.30430  Biso   1.000  H
  H13      1.0000 0.12890  0.33450  0.62980  Biso   1.000  H
  H14      1.0000 0.20330  0.33520  0.69570  Biso   1.000  H
  H15      1.0000 0.12890  0.66550  0.37020  Biso   1.000  H
  H16      1.0000 0.20330  0.66480  0.30430  Biso   1.000  H
  H17      1.0000 0.62980  0.87110  0.66550  Biso   1.000  H
  H18      1.0000 0.69570  0.79670  0.66480  Biso   1.000  H
  H19      1.0000 0.37020  0.87110  0.33450  Biso   1.000  H
  H20      1.0000 0.30430  0.79670  0.33520  Biso   1.000  H
  H21      1.0000 0.62980  0.12890  0.33450  Biso   1.000  H
  H22      1.0000 0.69570  0.20330  0.33520  Biso   1.000  H
  H23      1.0000 0.37020  0.12890  0.66550  Biso   1.000  H
  H24      1.0000 0.30430  0.20330  0.66480  Biso   1.000  H
  H25      1.0000 0.12980  0.16550  0.62890  Biso   1.000  H
  H26      1.0000 0.19570  0.16480  0.70330  Biso   1.000  H
  H27      1.0000 0.87020  0.83450  0.62890  Biso   1.000  H
  H28      1.0000 0.80430  0.83520  0.70330  Biso   1.000  H
  H29      1.0000 0.12980  0.83450  0.37110  Biso   1.000  H
  H30      1.0000 0.19570  0.83520  0.29670  Biso   1.000  H
  H31      1.0000 0.87020  0.16550  0.37110  Biso   1.000  H
  H32      1.0000 0.80430  0.16480  0.29670  Biso   1.000  H
  H33      1.0000 0.16550  0.37110  0.87020  Biso   1.000  H
  H34      1.0000 0.16480  0.29670  0.80430  Biso   1.000  H
  H35      1.0000 0.83450  0.37110  0.12980  Biso   1.000  H
  H36      1.0000 0.83520  0.29670  0.19570  Biso   1.000  H
  H37      1.0000 0.83450  0.62890  0.87020  Biso   1.000  H
  H38      1.0000 0.83520  0.70330  0.80430  Biso   1.000  H
  H39      1.0000 0.16550  0.62890  0.12980  Biso   1.000  H
  H40      1.0000 0.16480  0.70330  0.19570  Biso   1.000  H
  H41      1.0000 0.37110  0.12980  0.83450  Biso   1.000  H
  H42      1.0000 0.29670  0.19570  0.83520  Biso   1.000  H
  H43      1.0000 0.37110  0.87020  0.16550  Biso   1.000  H
  H44      1.0000 0.29670  0.80430  0.16480  Biso   1.000  H
  H45      1.0000 0.62890  0.12980  0.16550  Biso   1.000  H
  H46      1.0000 0.70330  0.19570  0.16480  Biso   1.000  H
  H47      1.0000 0.62890  0.87020  0.83450  Biso   1.000  H
  H48      1.0000 0.70330  0.80430  0.83520  Biso   1.000  H
  H49      1.0000 0.33450  0.37020  0.12890  Biso   1.000  H
  H50      1.0000 0.33520  0.30430  0.20330  Biso   1.000  H
  H51      1.0000 0.66550  0.62980  0.12890  Biso   1.000  H
  H52      1.0000 0.66480  0.69570  0.20330  Biso   1.000  H
  H53      1.0000 0.66550  0.37020  0.87110  Biso   1.000  H
  H54      1.0000 0.66480  0.30430  0.79670  Biso   1.000  H
  H55      1.0000 0.33450  0.62980  0.87110  Biso   1.000  H
  H56      1.0000 0.33520  0.69570  0.79670  Biso   1.000  H
  H57      1.0000 0.12890  0.33450  0.37020  Biso   1.000  H
  H58      1.0000 0.20330  0.33520  0.30430  Biso   1.000  H
  H59      1.0000 0.12890  0.66550  0.62980  Biso   1.000  H
  H60      1.0000 0.20330  0.66480  0.69570  Biso   1.000  H
  H61      1.0000 0.87110  0.66550  0.37020  Biso   1.000  H
  H62      1.0000 0.79670  0.66480  0.30430  Biso   1.000  H
  H63      1.0000 0.87110  0.33450  0.62980  Biso   1.000  H
  H64      1.0000 0.79670  0.33520  0.69570  Biso   1.000  H
  H65      1.0000 0.37020  0.12890  0.33450  Biso   1.000  H
  H66      1.0000 0.30430  0.20330  0.33520  Biso   1.000  H
  H67      1.0000 0.62980  0.12890  0.66550  Biso   1.000  H
  H68      1.0000 0.69570  0.20330  0.66480  Biso   1.000  H
  H69      1.0000 0.37020  0.87110  0.66550  Biso   1.000  H
  H70      1.0000 0.30430  0.79670  0.66480  Biso   1.000  H
  H71      1.0000 0.62980  0.87110  0.33450  Biso   1.000  H
  H72      1.0000 0.69570  0.79670  0.33520  Biso   1.000  H
  H73      1.0000 0.87020  0.83450  0.37110  Biso   1.000  H
  H74      1.0000 0.80430  0.83520  0.29670  Biso   1.000  H
  H75      1.0000 0.12980  0.16550  0.37110  Biso   1.000  H
  H76      1.0000 0.19570  0.16480  0.29670  Biso   1.000  H
  H77      1.0000 0.87020  0.16550  0.62890  Biso   1.000  H
  H78      1.0000 0.80430  0.16480  0.70330  Biso   1.000  H
  H79      1.0000 0.12980  0.83450  0.62890  Biso   1.000  H
  H80      1.0000 0.19570  0.83520  0.70330  Biso   1.000  H
  H81      1.0000 0.83450  0.62890  0.12980  Biso   1.000  H
  H82      1.0000 0.83520  0.70330  0.19570  Biso   1.000  H
  H83      1.0000 0.16550  0.62890  0.87020  Biso   1.000  H
  H84      1.0000 0.16480  0.70330  0.80430  Biso   1.000  H
  H85      1.0000 0.16550  0.37110  0.12980  Biso   1.000  H
  H86      1.0000 0.16480  0.29670  0.19570  Biso   1.000  H
  H87      1.0000 0.83450  0.37110  0.87020  Biso   1.000  H
  H88      1.0000 0.83520  0.29670  0.80430  Biso   1.000  H
  H89      1.0000 0.62890  0.87020  0.16550  Biso   1.000  H
  H90      1.0000 0.70330  0.80430  0.16480  Biso   1.000  H
  H91      1.0000 0.62890  0.12980  0.83450  Biso   1.000  H
  H92      1.0000 0.70330  0.19570  0.83520  Biso   1.000  H
  H93      1.0000 0.37110  0.87020  0.83450  Biso   1.000  H
  H94      1.0000 0.29670  0.80430  0.83520  Biso   1.000  H
  H95      1.0000 0.37110  0.12980  0.16550  Biso   1.000  H
  H96      1.0000 0.29670  0.19570  0.16480  Biso   1.000  H
  C1       1.0000 0.70040  0.64280  0.85650  Biso   1.000  C
  C2       1.0000 0.69970  0.68400  0.81260  Biso   1.000  C
  C3       1.0000 0.29960  0.35720  0.85650  Biso   1.000  C
  C4       1.0000 0.30030  0.31600  0.81260  Biso   1.000  C
  C5       1.0000 0.29960  0.64280  0.14350  Biso   1.000  C
  C6       1.0000 0.30030  0.68400  0.18740  Biso   1.000  C
  C7       1.0000 0.70040  0.35720  0.14350  Biso   1.000  C
  C8       1.0000 0.69970  0.31600  0.18740  Biso   1.000  C
  C9       1.0000 0.85650  0.70040  0.64280  Biso   1.000  C
  C10      1.0000 0.81260  0.69970  0.68400  Biso   1.000  C
  C11      1.0000 0.85650  0.29960  0.35720  Biso   1.000  C
  C12      1.0000 0.81260  0.30030  0.31600  Biso   1.000  C
  C13      1.0000 0.14350  0.29960  0.64280  Biso   1.000  C
  C14      1.0000 0.18740  0.30030  0.68400  Biso   1.000  C
  C15      1.0000 0.14350  0.70040  0.35720  Biso   1.000  C
  C16      1.0000 0.18740  0.69970  0.31600  Biso   1.000  C
  C17      1.0000 0.64280  0.85650  0.70040  Biso   1.000  C
  C18      1.0000 0.68400  0.81260  0.69970  Biso   1.000  C
  C19      1.0000 0.35720  0.85650  0.29960  Biso   1.000  C
  C20      1.0000 0.31600  0.81260  0.30030  Biso   1.000  C
  C21      1.0000 0.64280  0.14350  0.29960  Biso   1.000  C
  C22      1.0000 0.68400  0.18740  0.30030  Biso   1.000  C
  C23      1.0000 0.35720  0.14350  0.70040  Biso   1.000  C
  C24      1.0000 0.31600  0.18740  0.69970  Biso   1.000  C
  C25      1.0000 0.14280  0.20040  0.64350  Biso   1.000  C
  C26      1.0000 0.18400  0.19970  0.68740  Biso   1.000  C
  C27      1.0000 0.85720  0.79960  0.64350  Biso   1.000  C
  C28      1.0000 0.81600  0.80030  0.68740  Biso   1.000  C
  C29      1.0000 0.14280  0.79960  0.35650  Biso   1.000  C
  C30      1.0000 0.18400  0.80030  0.31260  Biso   1.000  C
  C31      1.0000 0.85720  0.20040  0.35650  Biso   1.000  C
  C32      1.0000 0.81600  0.19970  0.31260  Biso   1.000  C
  C33      1.0000 0.20040  0.35650  0.85720  Biso   1.000  C
  C34      1.0000 0.19970  0.31260  0.81600  Biso   1.000  C
  C35      1.0000 0.79960  0.35650  0.14280  Biso   1.000  C
  C36      1.0000 0.80030  0.31260  0.18400  Biso   1.000  C
  C37      1.0000 0.79960  0.64350  0.85720  Biso   1.000  C
  C38      1.0000 0.80030  0.68740  0.81600  Biso   1.000  C
  C39      1.0000 0.20040  0.64350  0.14280  Biso   1.000  C
  C40      1.0000 0.19970  0.68740  0.18400  Biso   1.000  C
  C41      1.0000 0.35650  0.14280  0.79960  Biso   1.000  C
  C42      1.0000 0.31260  0.18400  0.80030  Biso   1.000  C
  C43      1.0000 0.35650  0.85720  0.20040  Biso   1.000  C
  C44      1.0000 0.31260  0.81600  0.19970  Biso   1.000  C
  C45      1.0000 0.64350  0.14280  0.20040  Biso   1.000  C
  C46      1.0000 0.68740  0.18400  0.19970  Biso   1.000  C
  C47      1.0000 0.64350  0.85720  0.79960  Biso   1.000  C
  C48      1.0000 0.68740  0.81600  0.80030  Biso   1.000  C
  C49      1.0000 0.29960  0.35720  0.14350  Biso   1.000  C
  C50      1.0000 0.30030  0.31600  0.18740  Biso   1.000  C
  C51      1.0000 0.70040  0.64280  0.14350  Biso   1.000  C
  C52      1.0000 0.69970  0.68400  0.18740  Biso   1.000  C
  C53      1.0000 0.70040  0.35720  0.85650  Biso   1.000  C
  C54      1.0000 0.69970  0.31600  0.81260  Biso   1.000  C
  C55      1.0000 0.29960  0.64280  0.85650  Biso   1.000  C
  C56      1.0000 0.30030  0.68400  0.81260  Biso   1.000  C
  C57      1.0000 0.14350  0.29960  0.35720  Biso   1.000  C
  C58      1.0000 0.18740  0.30030  0.31600  Biso   1.000  C
  C59      1.0000 0.14350  0.70040  0.64280  Biso   1.000  C
  C60      1.0000 0.18740  0.69970  0.68400  Biso   1.000  C
  C61      1.0000 0.85650  0.70040  0.35720  Biso   1.000  C
  C62      1.0000 0.81260  0.69970  0.31600  Biso   1.000  C
  C63      1.0000 0.85650  0.29960  0.64280  Biso   1.000  C
  C64      1.0000 0.81260  0.30030  0.68400  Biso   1.000  C
  C65      1.0000 0.35720  0.14350  0.29960  Biso   1.000  C
  C66      1.0000 0.31600  0.18740  0.30030  Biso   1.000  C
  C67      1.0000 0.64280  0.14350  0.70040  Biso   1.000  C
  C68      1.0000 0.68400  0.18740  0.69970  Biso   1.000  C
  C69      1.0000 0.35720  0.85650  0.70040  Biso   1.000  C
  C70      1.0000 0.31600  0.81260  0.69970  Biso   1.000  C
  C71      1.0000 0.64280  0.85650  0.29960  Biso   1.000  C
  C72      1.0000 0.68400  0.81260  0.30030  Biso   1.000  C
  C73      1.0000 0.85720  0.79960  0.35650  Biso   1.000  C
  C74      1.0000 0.81600  0.80030  0.31260  Biso   1.000  C
  C75      1.0000 0.14280  0.20040  0.35650  Biso   1.000  C
  C76      1.0000 0.18400  0.19970  0.31260  Biso   1.000  C
  C77      1.0000 0.85720  0.20040  0.64350  Biso   1.000  C
  C78      1.0000 0.81600  0.19970  0.68740  Biso   1.000  C
  C79      1.0000 0.14280  0.79960  0.64350  Biso   1.000  C
  C80      1.0000 0.18400  0.80030  0.68740  Biso   1.000  C
  C81      1.0000 0.79960  0.64350  0.14280  Biso   1.000  C
  C82      1.0000 0.80030  0.68740  0.18400  Biso   1.000  C
  C83      1.0000 0.20040  0.64350  0.85720  Biso   1.000  C
  C84      1.0000 0.19970  0.68740  0.81600  Biso   1.000  C
  C85      1.0000 0.20040  0.35650  0.14280  Biso   1.000  C
  C86      1.0000 0.19970  0.31260  0.18400  Biso   1.000  C
  C87      1.0000 0.79960  0.35650  0.85720  Biso   1.000  C
  C88      1.0000 0.80030  0.31260  0.81600  Biso   1.000  C
  C89      1.0000 0.64350  0.85720  0.20040  Biso   1.000  C
  C90      1.0000 0.68740  0.81600  0.19970  Biso   1.000  C
  C91      1.0000 0.64350  0.14280  0.79960  Biso   1.000  C
  C92      1.0000 0.68740  0.18400  0.80030  Biso   1.000  C
  C93      1.0000 0.35650  0.85720  0.79960  Biso   1.000  C
  C94      1.0000 0.31260  0.81600  0.80030  Biso   1.000  C
  C95      1.0000 0.35650  0.14280  0.20040  Biso   1.000  C
  C96      1.0000 0.31260  0.18400  0.19970  Biso   1.000  C
  C97      1.0000 0.75000  0.57760  0.92240  Biso   1.000  C
  C98      1.0000 0.75000  0.62100  0.87900  Biso   1.000  C
  C99      1.0000 0.75000  0.70690  0.79310  Biso   1.000  C
  C100     1.0000 0.25000  0.42240  0.92240  Biso   1.000  C
  C101     1.0000 0.25000  0.37900  0.87900  Biso   1.000  C
  C102     1.0000 0.25000  0.29310  0.79310  Biso   1.000  C
  C103     1.0000 0.25000  0.57760  0.07760  Biso   1.000  C
  C104     1.0000 0.25000  0.62100  0.12100  Biso   1.000  C
  C105     1.0000 0.25000  0.70690  0.20690  Biso   1.000  C
  C106     1.0000 0.75000  0.42240  0.07760  Biso   1.000  C
  C107     1.0000 0.75000  0.37900  0.12100  Biso   1.000  C
  C108     1.0000 0.75000  0.29310  0.20690  Biso   1.000  C
  C109     1.0000 0.92240  0.75000  0.57760  Biso   1.000  C
  C110     1.0000 0.87900  0.75000  0.62100  Biso   1.000  C
  C111     1.0000 0.79310  0.75000  0.70690  Biso   1.000  C
  C112     1.0000 0.92240  0.25000  0.42240  Biso   1.000  C
  C113     1.0000 0.87900  0.25000  0.37900  Biso   1.000  C
  C114     1.0000 0.79310  0.25000  0.29310  Biso   1.000  C
  C115     1.0000 0.07760  0.25000  0.57760  Biso   1.000  C
  C116     1.0000 0.12100  0.25000  0.62100  Biso   1.000  C
  C117     1.0000 0.20690  0.25000  0.70690  Biso   1.000  C
  C118     1.0000 0.07760  0.75000  0.42240  Biso   1.000  C
  C119     1.0000 0.12100  0.75000  0.37900  Biso   1.000  C
  C120     1.0000 0.20690  0.75000  0.29310  Biso   1.000  C
  C121     1.0000 0.57760  0.92240  0.75000  Biso   1.000  C
  C122     1.0000 0.62100  0.87900  0.75000  Biso   1.000  C
  C123     1.0000 0.70690  0.79310  0.75000  Biso   1.000  C
  C124     1.0000 0.42240  0.92240  0.25000  Biso   1.000  C
  C125     1.0000 0.37900  0.87900  0.25000  Biso   1.000  C
  C126     1.0000 0.29310  0.79310  0.25000  Biso   1.000  C
  C127     1.0000 0.57760  0.07760  0.25000  Biso   1.000  C
  C128     1.0000 0.62100  0.12100  0.25000  Biso   1.000  C
  C129     1.0000 0.70690  0.20690  0.25000  Biso   1.000  C
  C130     1.0000 0.42240  0.07760  0.75000  Biso   1.000  C
  C131     1.0000 0.37900  0.12100  0.75000  Biso   1.000  C
  C132     1.0000 0.29310  0.20690  0.75000  Biso   1.000  C
  C133     1.0000 0.25000  0.42240  0.07760  Biso   1.000  C
  C134     1.0000 0.25000  0.37900  0.12100  Biso   1.000  C
  C135     1.0000 0.25000  0.29310  0.20690  Biso   1.000  C
  C136     1.0000 0.75000  0.57760  0.07760  Biso   1.000  C
  C137     1.0000 0.75000  0.62100  0.12100  Biso   1.000  C
  C138     1.0000 0.75000  0.70690  0.20690  Biso   1.000  C
  C139     1.0000 0.75000  0.42240  0.92240  Biso   1.000  C
  C140     1.0000 0.75000  0.37900  0.87900  Biso   1.000  C
  C141     1.0000 0.75000  0.29310  0.79310  Biso   1.000  C
  C142     1.0000 0.25000  0.57760  0.92240  Biso   1.000  C
  C143     1.0000 0.25000  0.62100  0.87900  Biso   1.000  C
  C144     1.0000 0.25000  0.70690  0.79310  Biso   1.000  C
  C145     1.0000 0.07760  0.25000  0.42240  Biso   1.000  C
  C146     1.0000 0.12100  0.25000  0.37900  Biso   1.000  C
  C147     1.0000 0.20690  0.25000  0.29310  Biso   1.000  C
  C148     1.0000 0.07760  0.75000  0.57760  Biso   1.000  C
  C149     1.0000 0.12100  0.75000  0.62100  Biso   1.000  C
  C150     1.0000 0.20690  0.75000  0.70690  Biso   1.000  C
  C151     1.0000 0.92240  0.75000  0.42240  Biso   1.000  C
  C152     1.0000 0.87900  0.75000  0.37900  Biso   1.000  C
  C153     1.0000 0.79310  0.75000  0.29310  Biso   1.000  C
  C154     1.0000 0.92240  0.25000  0.57760  Biso   1.000  C
  C155     1.0000 0.87900  0.25000  0.62100  Biso   1.000  C
  C156     1.0000 0.79310  0.25000  0.70690  Biso   1.000  C
  C157     1.0000 0.42240  0.07760  0.25000  Biso   1.000  C
  C158     1.0000 0.37900  0.12100  0.25000  Biso   1.000  C
  C159     1.0000 0.29310  0.20690  0.25000  Biso   1.000  C
  C160     1.0000 0.57760  0.07760  0.75000  Biso   1.000  C
  C161     1.0000 0.62100  0.12100  0.75000  Biso   1.000  C
  C162     1.0000 0.70690  0.20690  0.75000  Biso   1.000  C
  C163     1.0000 0.42240  0.92240  0.75000  Biso   1.000  C
  C164     1.0000 0.37900  0.87900  0.75000  Biso   1.000  C
  C165     1.0000 0.29310  0.79310  0.75000  Biso   1.000  C
  C166     1.0000 0.57760  0.92240  0.25000  Biso   1.000  C
  C167     1.0000 0.62100  0.87900  0.25000  Biso   1.000  C
  C168     1.0000 0.70690  0.79310  0.25000  Biso   1.000  C
  N1       1.0000 0.75000  0.75000  0.75000  Biso   1.000  N
  N2       1.0000 0.25000  0.25000  0.75000  Biso   1.000  N
  N3       1.0000 0.25000  0.75000  0.25000  Biso   1.000  N
  N4       1.0000 0.75000  0.25000  0.25000  Biso   1.000  N
  N5       1.0000 0.25000  0.25000  0.25000  Biso   1.000  N
  N6       1.0000 0.75000  0.75000  0.25000  Biso   1.000  N
  N7       1.0000 0.75000  0.25000  0.75000  Biso   1.000  N
  N8       1.0000 0.25000  0.75000  0.75000  Biso   1.000  N
  O1       1.0000 0.70272  0.55900  0.94103  Biso   1.000  O
  O2       1.0000 0.29728  0.44100  0.94103  Biso   1.000  O
  O3       1.0000 0.29728  0.55900  0.05897  Biso   1.000  O
  O4       1.0000 0.70272  0.44100  0.05897  Biso   1.000  O
  O5       1.0000 0.94103  0.70272  0.55900  Biso   1.000  O
  O6       1.0000 0.94103  0.29728  0.44100  Biso   1.000  O
  O7       1.0000 0.05897  0.29728  0.55900  Biso   1.000  O
  O8       1.0000 0.05897  0.70272  0.44100  Biso   1.000  O
  O9       1.0000 0.55900  0.94103  0.70272  Biso   1.000  O
  O10      1.0000 0.44100  0.94103  0.29728  Biso   1.000  O
  O11      1.0000 0.55900  0.05897  0.29728  Biso   1.000  O
  O12      1.0000 0.44100  0.05897  0.70272  Biso   1.000  O
  O13      1.0000 0.05900  0.20272  0.55897  Biso   1.000  O
  O14      1.0000 0.94100  0.79728  0.55897  Biso   1.000  O
  O15      1.0000 0.05900  0.79728  0.44103  Biso   1.000  O
  O16      1.0000 0.94100  0.20272  0.44103  Biso   1.000  O
  O17      1.0000 0.20272  0.44103  0.94100  Biso   1.000  O
  O18      1.0000 0.79728  0.44103  0.05900  Biso   1.000  O
  O19      1.0000 0.79728  0.55897  0.94100  Biso   1.000  O
  O20      1.0000 0.20272  0.55897  0.05900  Biso   1.000  O
  O21      1.0000 0.44103  0.05900  0.79728  Biso   1.000  O
  O22      1.0000 0.44103  0.94100  0.20272  Biso   1.000  O
  O23      1.0000 0.55897  0.05900  0.20272  Biso   1.000  O
  O24      1.0000 0.55897  0.94100  0.79728  Biso   1.000  O
  O25      1.0000 0.29728  0.44100  0.05897  Biso   1.000  O
  O26      1.0000 0.70272  0.55900  0.05897  Biso   1.000  O
  O27      1.0000 0.70272  0.44100  0.94103  Biso   1.000  O
  O28      1.0000 0.29728  0.55900  0.94103  Biso   1.000  O
  O29      1.0000 0.05897  0.29728  0.44100  Biso   1.000  O
  O30      1.0000 0.05897  0.70272  0.55900  Biso   1.000  O
  O31      1.0000 0.94103  0.70272  0.44100  Biso   1.000  O
  O32      1.0000 0.94103  0.29728  0.55900  Biso   1.000  O
  O33      1.0000 0.44100  0.05897  0.29728  Biso   1.000  O
  O34      1.0000 0.55900  0.05897  0.70272  Biso   1.000  O
  O35      1.0000 0.44100  0.94103  0.70272  Biso   1.000  O
  O36      1.0000 0.55900  0.94103  0.29728  Biso   1.000  O
  O37      1.0000 0.94100  0.79728  0.44103  Biso   1.000  O
  O38      1.0000 0.05900  0.20272  0.44103  Biso   1.000  O
  O39      1.0000 0.94100  0.20272  0.55897  Biso   1.000  O
  O40      1.0000 0.05900  0.79728  0.55897  Biso   1.000  O
  O41      1.0000 0.79728  0.55897  0.05900  Biso   1.000  O
  O42      1.0000 0.20272  0.55897  0.94100  Biso   1.000  O
  O43      1.0000 0.20272  0.44103  0.05900  Biso   1.000  O
  O44      1.0000 0.79728  0.44103  0.94100  Biso   1.000  O
  O45      1.0000 0.55897  0.94100  0.20272  Biso   1.000  O
  O46      1.0000 0.55897  0.05900  0.79728  Biso   1.000  O
  O47      1.0000 0.44103  0.94100  0.79728  Biso   1.000  O
  O48      1.0000 0.44103  0.05900  0.20272  Biso   1.000  O
  O49      1.0000 0.60020  0.50000  0.00000  Biso   1.000  O
  O50      1.0000 0.39980  0.50000  0.00000  Biso   1.000  O
  O51      1.0000 0.00000  0.60020  0.50000  Biso   1.000  O
  O52      1.0000 0.00000  0.39980  0.50000  Biso   1.000  O
  O53      1.0000 0.50000  0.00000  0.60020  Biso   1.000  O
  O54      1.0000 0.50000  0.00000  0.39980  Biso   1.000  O
  O55      1.0000 0.00000  0.10020  0.50000  Biso   1.000  O
  O56      1.0000 0.00000  0.89980  0.50000  Biso   1.000  O
  O57      1.0000 0.10020  0.50000  0.00000  Biso   1.000  O
  O58      1.0000 0.89980  0.50000  0.00000  Biso   1.000  O
  O59      1.0000 0.50000  0.00000  0.89980  Biso   1.000  O
  O60      1.0000 0.50000  0.00000  0.10020  Biso   1.000  O
