data_image0
_cell_length_a       15.5864
_cell_length_b       25.475
_cell_length_c       17.0301
_cell_angle_alpha    98.428
_cell_angle_beta     90
_cell_angle_gamma    90

_symmetry_space_group_name_H-M    P 1
_symmetry_int_tables_number       1

loop_
  _symmetry_equiv_pos_as_xyz
  'x, y, z'

loop_
  _atom_site_label
  _atom_site_occupancy
  _atom_site_fract_x
  _atom_site_fract_y
  _atom_site_fract_z
  _atom_site_thermal_displace_type
  _atom_site_B_iso_or_equiv
  _atom_site_type_symbol
  Sm1      1.0000 0.29514  0.25036  0.96244  Biso   1.000  Sm
  Sm2      1.0000 0.17593  0.24829  0.18493  Biso   1.000  Sm
  Sm3      1.0000 0.79514  0.74964  0.53756  Biso   1.000  Sm
  Sm4      1.0000 0.67593  0.75171  0.31507  Biso   1.000  Sm
  Sm5      1.0000 0.70486  0.74964  0.03756  Biso   1.000  Sm
  Sm6      1.0000 0.82407  0.75171  0.81507  Biso   1.000  Sm
  Sm7      1.0000 0.20486  0.25036  0.46244  Biso   1.000  Sm
  Sm8      1.0000 0.32407  0.24829  0.68493  Biso   1.000  Sm
  H1       1.0000 0.99570  0.38490  0.11330  Biso   1.000  H
  H2       1.0000 0.93980  0.46340  0.09330  Biso   1.000  H
  H3       1.0000 0.16280  0.38760  0.93330  Biso   1.000  H
  H4       1.0000 0.34850  0.12630  0.23750  Biso   1.000  H
  H5       1.0000 0.42390  0.05080  0.26120  Biso   1.000  H
  H6       1.0000 0.47940  0.12620  0.03180  Biso   1.000  H
  H7       1.0000 0.50150  0.99760  0.28050  Biso   1.000  H
  H8       1.0000 0.55730  0.91450  0.29620  Biso   1.000  H
  H9       1.0000 0.64230  0.89480  0.06890  Biso   1.000  H
  H10      1.0000 0.13250  0.08600  0.87680  Biso   1.000  H
  H11      1.0000 0.05400  0.00890  0.88300  Biso   1.000  H
  H12      1.0000 0.07500  0.12970  0.10480  Biso   1.000  H
  H13      1.0000 0.35200  0.40410  0.27830  Biso   1.000  H
  H14      1.0000 0.44100  0.47820  0.28050  Biso   1.000  H
  H15      1.0000 0.40760  0.36290  0.04550  Biso   1.000  H
  H16      1.0000 0.48870  0.54680  0.27330  Biso   1.000  H
  H17      1.0000 0.55330  0.62580  0.26640  Biso   1.000  H
  H18      1.0000 0.63680  0.57420  0.04880  Biso   1.000  H
  H19      1.0000 0.49570  0.61510  0.38670  Biso   1.000  H
  H20      1.0000 0.43980  0.53660  0.40670  Biso   1.000  H
  H21      1.0000 0.66280  0.61240  0.56670  Biso   1.000  H
  H22      1.0000 0.84850  0.87370  0.26250  Biso   1.000  H
  H23      1.0000 0.92390  0.94920  0.23880  Biso   1.000  H
  H24      1.0000 0.97940  0.87380  0.46820  Biso   1.000  H
  H25      1.0000 0.00150  0.00240  0.21950  Biso   1.000  H
  H26      1.0000 0.05730  0.08550  0.20380  Biso   1.000  H
  H27      1.0000 0.14230  0.10520  0.43110  Biso   1.000  H
  H28      1.0000 0.63250  0.91400  0.62320  Biso   1.000  H
  H29      1.0000 0.55400  0.99110  0.61700  Biso   1.000  H
  H30      1.0000 0.57500  0.87030  0.39520  Biso   1.000  H
  H31      1.0000 0.85200  0.59590  0.22170  Biso   1.000  H
  H32      1.0000 0.94100  0.52180  0.21950  Biso   1.000  H
  H33      1.0000 0.90760  0.63710  0.45450  Biso   1.000  H
  H34      1.0000 0.98870  0.45320  0.22670  Biso   1.000  H
  H35      1.0000 0.05330  0.37420  0.23360  Biso   1.000  H
  H36      1.0000 0.13680  0.42580  0.45120  Biso   1.000  H
  H37      1.0000 0.00430  0.61510  0.88670  Biso   1.000  H
  H38      1.0000 0.06020  0.53660  0.90670  Biso   1.000  H
  H39      1.0000 0.83720  0.61240  0.06670  Biso   1.000  H
  H40      1.0000 0.65150  0.87370  0.76250  Biso   1.000  H
  H41      1.0000 0.57610  0.94920  0.73880  Biso   1.000  H
  H42      1.0000 0.52060  0.87380  0.96820  Biso   1.000  H
  H43      1.0000 0.49850  0.00240  0.71950  Biso   1.000  H
  H44      1.0000 0.44270  0.08550  0.70380  Biso   1.000  H
  H45      1.0000 0.35770  0.10520  0.93110  Biso   1.000  H
  H46      1.0000 0.86750  0.91400  0.12320  Biso   1.000  H
  H47      1.0000 0.94600  0.99110  0.11700  Biso   1.000  H
  H48      1.0000 0.92500  0.87030  0.89520  Biso   1.000  H
  H49      1.0000 0.64800  0.59590  0.72170  Biso   1.000  H
  H50      1.0000 0.55900  0.52180  0.71950  Biso   1.000  H
  H51      1.0000 0.59240  0.63710  0.95450  Biso   1.000  H
  H52      1.0000 0.51130  0.45320  0.72670  Biso   1.000  H
  H53      1.0000 0.44670  0.37420  0.73360  Biso   1.000  H
  H54      1.0000 0.36320  0.42580  0.95120  Biso   1.000  H
  H55      1.0000 0.50430  0.38490  0.61330  Biso   1.000  H
  H56      1.0000 0.56020  0.46340  0.59330  Biso   1.000  H
  H57      1.0000 0.33720  0.38760  0.43330  Biso   1.000  H
  H58      1.0000 0.15150  0.12630  0.73750  Biso   1.000  H
  H59      1.0000 0.07610  0.05080  0.76120  Biso   1.000  H
  H60      1.0000 0.02060  0.12620  0.53180  Biso   1.000  H
  H61      1.0000 0.99850  0.99760  0.78050  Biso   1.000  H
  H62      1.0000 0.94270  0.91450  0.79620  Biso   1.000  H
  H63      1.0000 0.85770  0.89480  0.56890  Biso   1.000  H
  H64      1.0000 0.36750  0.08600  0.37680  Biso   1.000  H
  H65      1.0000 0.44600  0.00890  0.38300  Biso   1.000  H
  H66      1.0000 0.42500  0.12970  0.60480  Biso   1.000  H
  H67      1.0000 0.14800  0.40410  0.77830  Biso   1.000  H
  H68      1.0000 0.05900  0.47820  0.78050  Biso   1.000  H
  H69      1.0000 0.09240  0.36290  0.54550  Biso   1.000  H
  H70      1.0000 0.01130  0.54680  0.77330  Biso   1.000  H
  H71      1.0000 0.94670  0.62580  0.76640  Biso   1.000  H
  H72      1.0000 0.86320  0.57420  0.54880  Biso   1.000  H
  C1       1.0000 0.12470  0.32540  0.04270  Biso   1.000  C
  C2       1.0000 0.08640  0.37780  0.02790  Biso   1.000  C
  C3       1.0000 0.01930  0.40220  0.07250  Biso   1.000  C
  C4       1.0000 0.98620  0.44860  0.06120  Biso   1.000  C
  C5       1.0000 0.01780  0.47440  0.00490  Biso   1.000  C
  C6       1.0000 0.11800  0.40340  0.96630  Biso   1.000  C
  C7       1.0000 0.35290  0.17910  0.11530  Biso   1.000  C
  C8       1.0000 0.40680  0.13340  0.13240  Biso   1.000  C
  C9       1.0000 0.39040  0.11100  0.20060  Biso   1.000  C
  C10      1.0000 0.43520  0.06610  0.21470  Biso   1.000  C
  C11      1.0000 0.49640  0.04360  0.16060  Biso   1.000  C
  C12      1.0000 0.46810  0.11090  0.07840  Biso   1.000  C
  C13      1.0000 0.63280  0.84220  0.19420  Biso   1.000  C
  C14      1.0000 0.53880  0.99550  0.16540  Biso   1.000  C
  C15      1.0000 0.53010  0.97670  0.23750  Biso   1.000  C
  C16      1.0000 0.56320  0.92740  0.24690  Biso   1.000  C
  C17      1.0000 0.60510  0.89680  0.18400  Biso   1.000  C
  C18      1.0000 0.61370  0.91560  0.11180  Biso   1.000  C
  C19      1.0000 0.16670  0.16530  0.99450  Biso   1.000  C
  C20      1.0000 0.11520  0.11540  0.99270  Biso   1.000  C
  C21      1.0000 0.10700  0.07970  0.92530  Biso   1.000  C
  C22      1.0000 0.06000  0.03410  0.92950  Biso   1.000  C
  C23      1.0000 0.02500  0.02450  0.99540  Biso   1.000  C
  C24      1.0000 0.07300  0.10410  0.05820  Biso   1.000  C
  C25      1.0000 0.31250  0.32930  0.15790  Biso   1.000  C
  C26      1.0000 0.37050  0.37570  0.16150  Biso   1.000  C
  C27      1.0000 0.38100  0.41060  0.23130  Biso   1.000  C
  C28      1.0000 0.43220  0.45470  0.23250  Biso   1.000  C
  C29      1.0000 0.47020  0.46410  0.16420  Biso   1.000  C
  C30      1.0000 0.41400  0.38640  0.09400  Biso   1.000  C
  C31      1.0000 0.52080  0.51340  0.16340  Biso   1.000  C
  C32      1.0000 0.51790  0.55230  0.22620  Biso   1.000  C
  C33      1.0000 0.55600  0.59860  0.22180  Biso   1.000  C
  C34      1.0000 0.59890  0.60840  0.15600  Biso   1.000  C
  C35      1.0000 0.60500  0.56840  0.09430  Biso   1.000  C
  C36      1.0000 0.63530  0.66200  0.15030  Biso   1.000  C
  C37      1.0000 0.50800  0.24120  0.96300  Biso   1.000  C
  C38      1.0000 0.60500  0.30800  0.05900  Biso   1.000  C
  C39      1.0000 0.61600  0.34400  0.99500  Biso   1.000  C
  C40      1.0000 0.66900  0.22200  0.97800  Biso   1.000  C
  C41      1.0000 0.66800  0.19200  0.05000  Biso   1.000  C
  C42      1.0000 0.96800  0.26090  0.18200  Biso   1.000  C
  C43      1.0000 0.82600  0.28500  0.17700  Biso   1.000  C
  C44      1.0000 0.79900  0.29800  0.26500  Biso   1.000  C
  C45      1.0000 0.90500  0.19500  0.24200  Biso   1.000  C
  C46      1.0000 0.86600  0.15600  0.17400  Biso   1.000  C
  C47      1.0000 0.62470  0.67460  0.45730  Biso   1.000  C
  C48      1.0000 0.58640  0.62220  0.47210  Biso   1.000  C
  C49      1.0000 0.51930  0.59780  0.42750  Biso   1.000  C
  C50      1.0000 0.48620  0.55140  0.43880  Biso   1.000  C
  C51      1.0000 0.51780  0.52560  0.49510  Biso   1.000  C
  C52      1.0000 0.61800  0.59660  0.53370  Biso   1.000  C
  C53      1.0000 0.85290  0.82090  0.38470  Biso   1.000  C
  C54      1.0000 0.90680  0.86660  0.36760  Biso   1.000  C
  C55      1.0000 0.89040  0.88900  0.29940  Biso   1.000  C
  C56      1.0000 0.93520  0.93390  0.28530  Biso   1.000  C
  C57      1.0000 0.99640  0.95640  0.33940  Biso   1.000  C
  C58      1.0000 0.96810  0.88910  0.42160  Biso   1.000  C
  C59      1.0000 0.13280  0.15780  0.30580  Biso   1.000  C
  C60      1.0000 0.03880  0.00450  0.33460  Biso   1.000  C
  C61      1.0000 0.03010  0.02330  0.26250  Biso   1.000  C
  C62      1.0000 0.06320  0.07260  0.25310  Biso   1.000  C
  C63      1.0000 0.10510  0.10320  0.31600  Biso   1.000  C
  C64      1.0000 0.11370  0.08440  0.38820  Biso   1.000  C
  C65      1.0000 0.66670  0.83470  0.50550  Biso   1.000  C
  C66      1.0000 0.61520  0.88460  0.50730  Biso   1.000  C
  C67      1.0000 0.60700  0.92030  0.57470  Biso   1.000  C
  C68      1.0000 0.56000  0.96590  0.57050  Biso   1.000  C
  C69      1.0000 0.52500  0.97550  0.50460  Biso   1.000  C
  C70      1.0000 0.57300  0.89590  0.44180  Biso   1.000  C
  C71      1.0000 0.81250  0.67070  0.34210  Biso   1.000  C
  C72      1.0000 0.87050  0.62430  0.33850  Biso   1.000  C
  C73      1.0000 0.88100  0.58940  0.26870  Biso   1.000  C
  C74      1.0000 0.93220  0.54530  0.26750  Biso   1.000  C
  C75      1.0000 0.97020  0.53590  0.33580  Biso   1.000  C
  C76      1.0000 0.91400  0.61360  0.40600  Biso   1.000  C
  C77      1.0000 0.02080  0.48660  0.33660  Biso   1.000  C
  C78      1.0000 0.01790  0.44770  0.27380  Biso   1.000  C
  C79      1.0000 0.05600  0.40140  0.27820  Biso   1.000  C
  C80      1.0000 0.09890  0.39160  0.34400  Biso   1.000  C
  C81      1.0000 0.10500  0.43160  0.40570  Biso   1.000  C
  C82      1.0000 0.13530  0.33800  0.34970  Biso   1.000  C
  C83      1.0000 0.00800  0.75880  0.53700  Biso   1.000  C
  C84      1.0000 0.10500  0.69200  0.44100  Biso   1.000  C
  C85      1.0000 0.11600  0.65600  0.50500  Biso   1.000  C
  C86      1.0000 0.16900  0.77800  0.52200  Biso   1.000  C
  C87      1.0000 0.16800  0.80800  0.45000  Biso   1.000  C
  C88      1.0000 0.46800  0.73910  0.31800  Biso   1.000  C
  C89      1.0000 0.32600  0.71500  0.32300  Biso   1.000  C
  C90      1.0000 0.29900  0.70200  0.23500  Biso   1.000  C
  C91      1.0000 0.40500  0.80500  0.25800  Biso   1.000  C
  C92      1.0000 0.36600  0.84400  0.32600  Biso   1.000  C
  C93      1.0000 0.87530  0.67460  0.95730  Biso   1.000  C
  C94      1.0000 0.91360  0.62220  0.97210  Biso   1.000  C
  C95      1.0000 0.98070  0.59780  0.92750  Biso   1.000  C
  C96      1.0000 0.01380  0.55140  0.93880  Biso   1.000  C
  C97      1.0000 0.98220  0.52560  0.99510  Biso   1.000  C
  C98      1.0000 0.88200  0.59660  0.03370  Biso   1.000  C
  C99      1.0000 0.64710  0.82090  0.88470  Biso   1.000  C
  C100     1.0000 0.59320  0.86660  0.86760  Biso   1.000  C
  C101     1.0000 0.60960  0.88900  0.79940  Biso   1.000  C
  C102     1.0000 0.56480  0.93390  0.78530  Biso   1.000  C
  C103     1.0000 0.50360  0.95640  0.83940  Biso   1.000  C
  C104     1.0000 0.53190  0.88910  0.92160  Biso   1.000  C
  C105     1.0000 0.36720  0.15780  0.80580  Biso   1.000  C
  C106     1.0000 0.46120  0.00450  0.83460  Biso   1.000  C
  C107     1.0000 0.46990  0.02330  0.76250  Biso   1.000  C
  C108     1.0000 0.43680  0.07260  0.75310  Biso   1.000  C
  C109     1.0000 0.39490  0.10320  0.81600  Biso   1.000  C
  C110     1.0000 0.38630  0.08440  0.88820  Biso   1.000  C
  C111     1.0000 0.83330  0.83470  0.00550  Biso   1.000  C
  C112     1.0000 0.88480  0.88460  0.00730  Biso   1.000  C
  C113     1.0000 0.89300  0.92030  0.07470  Biso   1.000  C
  C114     1.0000 0.94000  0.96590  0.07050  Biso   1.000  C
  C115     1.0000 0.97500  0.97550  0.00460  Biso   1.000  C
  C116     1.0000 0.92700  0.89590  0.94180  Biso   1.000  C
  C117     1.0000 0.68750  0.67070  0.84210  Biso   1.000  C
  C118     1.0000 0.62950  0.62430  0.83850  Biso   1.000  C
  C119     1.0000 0.61900  0.58940  0.76870  Biso   1.000  C
  C120     1.0000 0.56780  0.54530  0.76750  Biso   1.000  C
  C121     1.0000 0.52980  0.53590  0.83580  Biso   1.000  C
  C122     1.0000 0.58600  0.61360  0.90600  Biso   1.000  C
  C123     1.0000 0.47920  0.48660  0.83660  Biso   1.000  C
  C124     1.0000 0.48210  0.44770  0.77380  Biso   1.000  C
  C125     1.0000 0.44400  0.40140  0.77820  Biso   1.000  C
  C126     1.0000 0.40110  0.39160  0.84400  Biso   1.000  C
  C127     1.0000 0.39500  0.43160  0.90570  Biso   1.000  C
  C128     1.0000 0.36470  0.33800  0.84970  Biso   1.000  C
  C129     1.0000 0.49200  0.75880  0.03700  Biso   1.000  C
  C130     1.0000 0.39500  0.69200  0.94100  Biso   1.000  C
  C131     1.0000 0.38400  0.65600  0.00500  Biso   1.000  C
  C132     1.0000 0.33100  0.77800  0.02200  Biso   1.000  C
  C133     1.0000 0.33200  0.80800  0.95000  Biso   1.000  C
  C134     1.0000 0.03200  0.73910  0.81800  Biso   1.000  C
  C135     1.0000 0.17400  0.71500  0.82300  Biso   1.000  C
  C136     1.0000 0.20100  0.70200  0.73500  Biso   1.000  C
  C137     1.0000 0.09500  0.80500  0.75800  Biso   1.000  C
  C138     1.0000 0.13400  0.84400  0.82600  Biso   1.000  C
  C139     1.0000 0.37530  0.32540  0.54270  Biso   1.000  C
  C140     1.0000 0.41360  0.37780  0.52790  Biso   1.000  C
  C141     1.0000 0.48070  0.40220  0.57250  Biso   1.000  C
  C142     1.0000 0.51380  0.44860  0.56120  Biso   1.000  C
  C143     1.0000 0.48220  0.47440  0.50490  Biso   1.000  C
  C144     1.0000 0.38200  0.40340  0.46630  Biso   1.000  C
  C145     1.0000 0.14710  0.17910  0.61530  Biso   1.000  C
  C146     1.0000 0.09320  0.13340  0.63240  Biso   1.000  C
  C147     1.0000 0.10960  0.11100  0.70060  Biso   1.000  C
  C148     1.0000 0.06480  0.06610  0.71470  Biso   1.000  C
  C149     1.0000 0.00360  0.04360  0.66060  Biso   1.000  C
  C150     1.0000 0.03190  0.11090  0.57840  Biso   1.000  C
  C151     1.0000 0.86720  0.84220  0.69420  Biso   1.000  C
  C152     1.0000 0.96120  0.99550  0.66540  Biso   1.000  C
  C153     1.0000 0.96990  0.97670  0.73750  Biso   1.000  C
  C154     1.0000 0.93680  0.92740  0.74690  Biso   1.000  C
  C155     1.0000 0.89490  0.89680  0.68400  Biso   1.000  C
  C156     1.0000 0.88630  0.91560  0.61180  Biso   1.000  C
  C157     1.0000 0.33330  0.16530  0.49450  Biso   1.000  C
  C158     1.0000 0.38480  0.11540  0.49270  Biso   1.000  C
  C159     1.0000 0.39300  0.07970  0.42530  Biso   1.000  C
  C160     1.0000 0.44000  0.03410  0.42950  Biso   1.000  C
  C161     1.0000 0.47500  0.02450  0.49540  Biso   1.000  C
  C162     1.0000 0.42700  0.10410  0.55820  Biso   1.000  C
  C163     1.0000 0.18750  0.32930  0.65790  Biso   1.000  C
  C164     1.0000 0.12950  0.37570  0.66150  Biso   1.000  C
  C165     1.0000 0.11900  0.41060  0.73130  Biso   1.000  C
  C166     1.0000 0.06780  0.45470  0.73250  Biso   1.000  C
  C167     1.0000 0.02980  0.46410  0.66420  Biso   1.000  C
  C168     1.0000 0.08600  0.38640  0.59400  Biso   1.000  C
  C169     1.0000 0.97920  0.51340  0.66340  Biso   1.000  C
  C170     1.0000 0.98210  0.55230  0.72620  Biso   1.000  C
  C171     1.0000 0.94400  0.59860  0.72180  Biso   1.000  C
  C172     1.0000 0.90110  0.60840  0.65600  Biso   1.000  C
  C173     1.0000 0.89500  0.56840  0.59430  Biso   1.000  C
  C174     1.0000 0.86470  0.66200  0.65030  Biso   1.000  C
  C175     1.0000 0.99200  0.24120  0.46300  Biso   1.000  C
  C176     1.0000 0.89500  0.30800  0.55900  Biso   1.000  C
  C177     1.0000 0.88400  0.34400  0.49500  Biso   1.000  C
  C178     1.0000 0.83100  0.22200  0.47800  Biso   1.000  C
  C179     1.0000 0.83200  0.19200  0.55000  Biso   1.000  C
  C180     1.0000 0.53200  0.26090  0.68200  Biso   1.000  C
  C181     1.0000 0.67400  0.28500  0.67700  Biso   1.000  C
  C182     1.0000 0.70100  0.29800  0.76500  Biso   1.000  C
  C183     1.0000 0.59500  0.19500  0.74200  Biso   1.000  C
  C184     1.0000 0.63400  0.15600  0.67400  Biso   1.000  C
  N1       1.0000 0.08400  0.45210  0.95320  Biso   1.000  N
  N2       1.0000 0.51290  0.06610  0.09250  Biso   1.000  N
  N3       1.0000 0.58060  0.96500  0.10250  Biso   1.000  N
  N4       1.0000 0.03000  0.05980  0.06100  Biso   1.000  N
  N5       1.0000 0.46450  0.42990  0.09640  Biso   1.000  N
  N6       1.0000 0.56600  0.51880  0.09500  Biso   1.000  N
  N7       1.0000 0.59300  0.26000  0.99400  Biso   1.000  N
  N8       1.0000 0.88200  0.23700  0.18800  Biso   1.000  N
  N9       1.0000 0.58400  0.54790  0.54680  Biso   1.000  N
  N10      1.0000 0.01290  0.93390  0.40750  Biso   1.000  N
  N11      1.0000 0.08060  0.03500  0.39750  Biso   1.000  N
  N12      1.0000 0.53000  0.94020  0.43900  Biso   1.000  N
  N13      1.0000 0.96450  0.57010  0.40360  Biso   1.000  N
  N14      1.0000 0.06600  0.48120  0.40500  Biso   1.000  N
  N15      1.0000 0.09300  0.74000  0.50600  Biso   1.000  N
  N16      1.0000 0.38200  0.76300  0.31200  Biso   1.000  N
  N17      1.0000 0.91600  0.54790  0.04680  Biso   1.000  N
  N18      1.0000 0.48710  0.93390  0.90750  Biso   1.000  N
  N19      1.0000 0.41940  0.03500  0.89750  Biso   1.000  N
  N20      1.0000 0.97000  0.94020  0.93900  Biso   1.000  N
  N21      1.0000 0.53550  0.57010  0.90360  Biso   1.000  N
  N22      1.0000 0.43400  0.48120  0.90500  Biso   1.000  N
  N23      1.0000 0.40700  0.74000  0.00600  Biso   1.000  N
  N24      1.0000 0.11800  0.76300  0.81200  Biso   1.000  N
  N25      1.0000 0.41600  0.45210  0.45320  Biso   1.000  N
  N26      1.0000 0.98710  0.06610  0.59250  Biso   1.000  N
  N27      1.0000 0.91940  0.96500  0.60250  Biso   1.000  N
  N28      1.0000 0.47000  0.05980  0.56100  Biso   1.000  N
  N29      1.0000 0.03550  0.42990  0.59640  Biso   1.000  N
  N30      1.0000 0.93400  0.51880  0.59500  Biso   1.000  N
  N31      1.0000 0.90700  0.26000  0.49400  Biso   1.000  N
  N32      1.0000 0.61800  0.23700  0.68800  Biso   1.000  N
  O1       1.0000 0.21780  0.24970  0.83040  Biso   1.000  O
  O2       1.0000 0.16560  0.30030  0.98580  Biso   1.000  O
  O3       1.0000 0.11370  0.31330  0.11000  Biso   1.000  O
  O4       1.0000 0.35650  0.18890  0.04520  Biso   1.000  O
  O5       1.0000 0.30900  0.20310  0.17110  Biso   1.000  O
  O6       1.0000 0.63260  0.80910  0.13360  Biso   1.000  O
  O7       1.0000 0.65110  0.83320  0.26150  Biso   1.000  O
  O8       1.0000 0.20240  0.17360  0.93190  Biso   1.000  O
  O9       1.0000 0.17190  0.19730  0.05800  Biso   1.000  O
  O10      1.0000 0.30010  0.30040  0.09310  Biso   1.000  O
  O11      1.0000 0.27460  0.32210  0.22080  Biso   1.000  O
  O12      1.0000 0.67720  0.66770  0.08930  Biso   1.000  O
  O13      1.0000 0.61590  0.69860  0.20570  Biso   1.000  O
  O14      1.0000 0.44710  0.27290  0.97830  Biso   1.000  O
  O15      1.0000 0.02610  0.22710  0.17470  Biso   1.000  O
  O16      1.0000 0.71780  0.75030  0.66960  Biso   1.000  O
  O17      1.0000 0.66560  0.69970  0.51420  Biso   1.000  O
  O18      1.0000 0.61370  0.68670  0.39000  Biso   1.000  O
  O19      1.0000 0.85650  0.81110  0.45480  Biso   1.000  O
  O20      1.0000 0.80900  0.79690  0.32890  Biso   1.000  O
  O21      1.0000 0.13260  0.19090  0.36640  Biso   1.000  O
  O22      1.0000 0.15110  0.16680  0.23850  Biso   1.000  O
  O23      1.0000 0.70240  0.82640  0.56810  Biso   1.000  O
  O24      1.0000 0.67190  0.80270  0.44200  Biso   1.000  O
  O25      1.0000 0.80010  0.69960  0.40690  Biso   1.000  O
  O26      1.0000 0.77460  0.67790  0.27920  Biso   1.000  O
  O27      1.0000 0.17720  0.33230  0.41070  Biso   1.000  O
  O28      1.0000 0.11590  0.30140  0.29430  Biso   1.000  O
  O29      1.0000 0.94710  0.72710  0.52170  Biso   1.000  O
  O30      1.0000 0.52610  0.77290  0.32530  Biso   1.000  O
  O31      1.0000 0.78220  0.75030  0.16960  Biso   1.000  O
  O32      1.0000 0.83440  0.69970  0.01420  Biso   1.000  O
  O33      1.0000 0.88630  0.68670  0.89000  Biso   1.000  O
  O34      1.0000 0.64350  0.81110  0.95480  Biso   1.000  O
  O35      1.0000 0.69100  0.79690  0.82890  Biso   1.000  O
  O36      1.0000 0.36740  0.19090  0.86640  Biso   1.000  O
  O37      1.0000 0.34890  0.16680  0.73850  Biso   1.000  O
  O38      1.0000 0.79760  0.82640  0.06810  Biso   1.000  O
  O39      1.0000 0.82810  0.80270  0.94200  Biso   1.000  O
  O40      1.0000 0.69990  0.69960  0.90690  Biso   1.000  O
  O41      1.0000 0.72540  0.67790  0.77920  Biso   1.000  O
  O42      1.0000 0.32280  0.33230  0.91070  Biso   1.000  O
  O43      1.0000 0.38410  0.30140  0.79430  Biso   1.000  O
  O44      1.0000 0.55290  0.72710  0.02170  Biso   1.000  O
  O45      1.0000 0.97390  0.77290  0.82530  Biso   1.000  O
  O46      1.0000 0.28220  0.24970  0.33040  Biso   1.000  O
  O47      1.0000 0.33440  0.30030  0.48580  Biso   1.000  O
  O48      1.0000 0.38630  0.31330  0.61000  Biso   1.000  O
  O49      1.0000 0.14350  0.18890  0.54520  Biso   1.000  O
  O50      1.0000 0.19100  0.20310  0.67110  Biso   1.000  O
  O51      1.0000 0.86740  0.80910  0.63360  Biso   1.000  O
  O52      1.0000 0.84890  0.83320  0.76150  Biso   1.000  O
  O53      1.0000 0.29760  0.17360  0.43190  Biso   1.000  O
  O54      1.0000 0.32810  0.19730  0.55800  Biso   1.000  O
  O55      1.0000 0.19990  0.30040  0.59310  Biso   1.000  O
  O56      1.0000 0.22540  0.32210  0.72080  Biso   1.000  O
  O57      1.0000 0.82280  0.66770  0.58930  Biso   1.000  O
  O58      1.0000 0.88410  0.69860  0.70570  Biso   1.000  O
  O59      1.0000 0.05290  0.27290  0.47830  Biso   1.000  O
  O60      1.0000 0.47390  0.22710  0.67470  Biso   1.000  O
