data_image0
_cell_length_a       15.1029
_cell_length_b       13.2535
_cell_length_c       18.033
_cell_angle_alpha    90
_cell_angle_beta     94.44
_cell_angle_gamma    90

_symmetry_space_group_name_H-M    "P 1"
_symmetry_int_tables_number       1

loop_
  _symmetry_equiv_pos_as_xyz
  'x, y, z'

loop_
  _atom_site_label
  _atom_site_occupancy
  _atom_site_fract_x
  _atom_site_fract_y
  _atom_site_fract_z
  _atom_site_thermal_displace_type
  _atom_site_B_iso_or_equiv
  _atom_site_type_symbol
  W1       1.0000 0.20361  0.05886  0.91272  Biso   1.000  W
  W2       1.0000 0.37881  0.98070  0.83359  Biso   1.000  W
  W3       1.0000 0.17776  0.91786  0.76298  Biso   1.000  W
  W4       1.0000 0.43292  0.09135  0.65478  Biso   1.000  W
  W5       1.0000 0.23616  0.02426  0.58246  Biso   1.000  W
  W6       1.0000 0.30227  0.25858  0.57150  Biso   1.000  W
  W7       1.0000 0.03571  0.11293  0.66729  Biso   1.000  W
  W8       1.0000 0.10465  0.35039  0.66204  Biso   1.000  W
  W9       1.0000 0.05421  0.25005  0.81842  Biso   1.000  W
  W10      1.0000 0.27710  0.32508  0.90181  Biso   1.000  W
  W11      1.0000 0.33034  0.41715  0.74157  Biso   1.000  W
  W12      1.0000 0.45694  0.24560  0.82704  Biso   1.000  W
  Zn1      1.0000 0.24891  0.17048  0.74514  Biso   1.000  Zn
  Zn2      1.0000 0.59965  0.94393  0.56020  Biso   1.000  Zn
  Zn3      1.0000 0.09687  0.89858  0.05808  Biso   1.000  Zn
  O1       1.0000 0.16370  0.02440  0.99750  Biso   1.000  O
  O2       1.0000 0.31580  0.98710  0.92390  Biso   1.000  O
  O3       1.0000 0.14900  0.93590  0.86350  Biso   1.000  O
  O4       1.0000 0.10300  0.13550  0.86980  Biso   1.000  O
  O5       1.0000 0.25990  0.18360  0.92990  Biso   1.000  O
  O6       1.0000 0.25130  0.05240  0.80490  Biso   1.000  O
  O7       1.0000 0.46220  0.89900  0.86930  Biso   1.000  O
  O8       1.0000 0.29830  0.87440  0.79820  Biso   1.000  O
  O9       1.0000 0.40950  0.99710  0.73260  Biso   1.000  O
  O10      1.0000 0.42680  0.10990  0.85650  Biso   1.000  O
  O11      1.0000 0.13580  0.80760  0.74790  Biso   1.000  O
  O12      1.0000 0.22580  0.93930  0.66770  Biso   1.000  O
  O13      1.0000 0.08060  0.00580  0.72810  Biso   1.000  O
  O14      1.0000 0.53160  0.04460  0.62840  Biso   1.000  O
  O15      1.0000 0.36430  0.99880  0.59000  Biso   1.000  O
  O16      1.0000 0.42160  0.19590  0.57980  Biso   1.000  O
  O17      1.0000 0.46730  0.19160  0.72730  Biso   1.000  O
  O18      1.0000 0.29840  0.13810  0.65390  Biso   1.000  O
  O19      1.0000 0.20840  0.93790  0.51290  Biso   1.000  O
  O20      1.0000 0.25600  0.14420  0.51760  Biso   1.000  O
  O21      1.0000 0.12280  0.08280  0.60010  Biso   1.000  O
  O22      1.0000 0.32460  0.33650  0.49720  Biso   1.000  O
  O23      1.0000 0.18730  0.29930  0.59390  Biso   1.000  O
  O24      1.0000 0.34700  0.34740  0.65270  Biso   1.000  O
  O25      1.0000 0.94410  0.06120  0.62030  Biso   1.000  O
  O26      1.0000 0.02360  0.24620  0.62040  Biso   1.000  O
  O27      1.0000 0.97820  0.16150  0.75370  Biso   1.000  O
  O28      1.0000 0.13040  0.21360  0.72730  Biso   1.000  O
  O29      1.0000 0.15750  0.32410  0.85940  Biso   1.000  O
  O30      1.0000 0.03770  0.36150  0.74770  Biso   1.000  O
  O31      1.0000 0.20280  0.41250  0.71290  Biso   1.000  O
  O32      1.0000 0.97360  0.28900  0.87620  Biso   1.000  O
  O33      1.0000 0.27280  0.37970  0.98840  Biso   1.000  O
  O34      1.0000 0.40160  0.29640  0.91520  Biso   1.000  O
  O35      1.0000 0.31710  0.26970  0.79470  Biso   1.000  O
  O36      1.0000 0.35600  0.54230  0.72200  Biso   1.000  O
  O37      1.0000 0.44820  0.38180  0.77880  Biso   1.000  O
  O38      1.0000 0.29830  0.44050  0.84530  Biso   1.000  O
  O39      1.0000 0.05670  0.44940  0.61240  Biso   1.000  O
  O40      1.0000 0.56460  0.25400  0.86320  Biso   1.000  O
  C1       1.0000 0.65290  0.89930  0.72490  Biso   1.000  C
  H1       1.0000 0.59160  0.89960  0.72690  Biso   1.000  H
  C2       1.0000 0.70610  0.88290  0.79260  Biso   1.000  C
  C3       1.0000 0.79510  0.89130  0.78660  Biso   1.000  C
  C4       1.0000 0.83150  0.91190  0.71620  Biso   1.000  C
  H2       1.0000 0.89230  0.91680  0.71210  Biso   1.000  H
  C5       1.0000 0.77100  0.92390  0.65540  Biso   1.000  C
  H3       1.0000 0.79240  0.93950  0.60980  Biso   1.000  H
  C6       1.0000 0.86230  0.88450  0.85140  Biso   1.000  C
  C7       1.0000 0.88290  0.79690  0.89650  Biso   1.000  C
  H4       1.0000 0.85310  0.73650  0.88610  Biso   1.000  H
  C8       1.0000 0.94700  0.80260  0.95560  Biso   1.000  C
  H5       1.0000 0.95830  0.74530  0.98450  Biso   1.000  H
  C9       1.0000 0.97320  0.97020  0.93040  Biso   1.000  C
  H6       1.0000 0.00350  0.02980  0.94270  Biso   1.000  H
  C10      1.0000 0.91070  0.96870  0.87110  Biso   1.000  C
  H7       1.0000 0.90080  0.02720  0.84330  Biso   1.000  H
  C11      1.0000 0.15620  0.95430  0.21670  Biso   1.000  C
  H8       1.0000 0.09540  0.96420  0.21790  Biso   1.000  H
  C12      1.0000 0.20840  0.96620  0.28340  Biso   1.000  C
  C13      1.0000 0.30210  0.96210  0.27830  Biso   1.000  C
  C14      1.0000 0.33330  0.94130  0.20660  Biso   1.000  C
  H9       1.0000 0.39370  0.93350  0.20160  Biso   1.000  H
  C15      1.0000 0.27450  0.93320  0.14640  Biso   1.000  C
  H10      1.0000 0.29550  0.92950  0.09930  Biso   1.000  H
  C16      1.0000 0.36350  0.96630  0.34400  Biso   1.000  C
  C17      1.0000 0.41100  0.88510  0.36890  Biso   1.000  C
  H11      1.0000 0.40340  0.82500  0.34250  Biso   1.000  H
  C18      1.0000 0.47450  0.88630  0.43570  Biso   1.000  C
  H12      1.0000 0.49760  0.82500  0.45320  Biso   1.000  H
  C19      1.0000 0.44890  0.05490  0.44980  Biso   1.000  C
  H13      1.0000 0.46030  0.11360  0.47720  Biso   1.000  H
  C20      1.0000 0.38040  0.05270  0.38530  Biso   1.000  C
  H14      1.0000 0.34850  0.11100  0.37270  Biso   1.000  H
  C21      1.0000 0.73800  0.05550  0.47420  Biso   1.000  C
  H15      1.0000 0.76890  0.99670  0.46480  Biso   1.000  H
  C22      1.0000 0.69530  0.20630  0.46860  Biso   1.000  C
  H16      1.0000 0.68920  0.27450  0.45700  Biso   1.000  H
  C23      1.0000 0.64380  0.15380  0.51060  Biso   1.000  C
  H17      1.0000 0.59530  0.17960  0.53320  Biso   1.000  H
  C24      1.0000 0.83140  0.15980  0.40220  Biso   1.000  C
  H18      1.0000 0.81930  0.21710  0.36960  Biso   1.000  H
  H19      1.0000 0.83880  0.10090  0.37140  Biso   1.000  H
  C25      1.0000 0.91930  0.17910  0.45170  Biso   1.000  C
  H20      1.0000 0.92840  0.12640  0.48960  Biso   1.000  H
  C26      1.0000 0.05120  0.27110  0.42400  Biso   1.000  C
  H21      1.0000 0.08100  0.29880  0.38280  Biso   1.000  H
  H22      1.0000 0.09500  0.25570  0.46460  Biso   1.000  H
  C27      1.0000 0.97780  0.34620  0.44970  Biso   1.000  C
  H23      1.0000 0.00400  0.39750  0.48280  Biso   1.000  H
  H24      1.0000 0.94640  0.37880  0.40720  Biso   1.000  H
  N1       1.0000 0.91910  0.28200  0.48770  Biso   1.000  N
  H25      1.0000 0.86380  0.30770  0.48420  Biso   1.000  H
  H26      1.0000 0.93790  0.27720  0.53620  Biso   1.000  H
  C28      1.0000 0.23680  0.78280  0.97610  Biso   1.000  C
  H27      1.0000 0.25890  0.84150  0.95620  Biso   1.000  H
  C29      1.0000 0.22390  0.63010  0.00410  Biso   1.000  C
  H28      1.0000 0.23280  0.56090  0.00920  Biso   1.000  H
  C30      1.0000 0.16770  0.68430  0.03620  Biso   1.000  C
  H29      1.0000 0.12710  0.65820  0.06730  Biso   1.000  H
  C31      1.0000 0.34050  0.67330  0.91800  Biso   1.000  C
  H30      1.0000 0.34650  0.72710  0.88230  Biso   1.000  H
  H31      1.0000 0.33050  0.61060  0.89100  Biso   1.000  H
  C32      1.0000 0.42480  0.66570  0.97030  Biso   1.000  C
  H32      1.0000 0.41040  0.69590  0.01750  Biso   1.000  H
  C33      1.0000 0.56650  0.63230  0.91510  Biso   1.000  C
  H33      1.0000 0.57270  0.64210  0.86250  Biso   1.000  H
  H34      1.0000 0.62500  0.63040  0.94150  Biso   1.000  H
  C34      1.0000 0.51450  0.53750  0.92900  Biso   1.000  C
  H35      1.0000 0.55550  0.48380  0.94430  Biso   1.000  H
  H36      1.0000 0.48200  0.51690  0.88290  Biso   1.000  H
  C35      1.0000 0.44970  0.55220  0.98810  Biso   1.000  C
  H37      1.0000 0.47780  0.54380  0.03790  Biso   1.000  H
  H38      1.0000 0.39880  0.50770  0.98100  Biso   1.000  H
  C36      1.0000 0.95650  0.04980  0.13220  Biso   1.000  C
  N2       1.0000 0.68530  0.91440  0.65860  Biso   1.000  N
  N3       1.0000 0.99210  0.88340  0.97250  Biso   1.000  N
  N4       1.0000 0.66660  0.87530  0.85740  Biso   1.000  N
  H39      1.0000 0.69840  0.87570  0.89910  Biso   1.000  H
  H40      1.0000 0.60980  0.87020  0.85690  Biso   1.000  H
  N5       1.0000 0.18520  0.93040  0.15290  Biso   1.000  N
  N6       1.0000 0.49780  0.96120  0.46850  Biso   1.000  N
  N7       1.0000 0.17320  0.99030  0.34670  Biso   1.000  N
  H41      1.0000 0.11680  0.99890  0.34710  Biso   1.000  H
  H42      1.0000 0.20690  0.99720  0.38700  Biso   1.000  H
  N8       1.0000 0.67210  0.05730  0.51580  Biso   1.000  N
  N9       1.0000 0.75770  0.14420  0.44590  Biso   1.000  N
  C37      1.0000 0.99900  0.18140  0.40110  Biso   1.000  C
  H43      1.0000 0.03470  0.12080  0.40820  Biso   1.000  H
  H44      1.0000 0.97760  0.18600  0.34910  Biso   1.000  H
  N10      1.0000 0.17390  0.78320  0.01980  Biso   1.000  N
  N11      1.0000 0.26740  0.69380  0.96170  Biso   1.000  N
  N12      1.0000 0.50510  0.71960  0.94800  Biso   1.000  N
  H45      1.0000 0.53390  0.75010  0.98750  Biso   1.000  H
  H46      1.0000 0.49030  0.76640  0.91310  Biso   1.000  H
  N13      1.0000 0.01100  0.02320  0.09830  Biso   1.000  N
  O41      1.0000 0.50930  0.82220  0.59520  Biso   1.000  O
  H47      1.0000 0.48990  0.83640  0.63700  Biso   1.000  H
  H48      1.0000 0.53980  0.76820  0.59910  Biso   1.000  H
  C38      1.0000 0.89810  0.09370  0.18380  Biso   1.000  C
  H49      1.0000 0.84590  0.11980  0.15670  Biso   1.000  H
  H50      1.0000 0.92850  0.14750  0.21090  Biso   1.000  H
  H51      1.0000 0.88140  0.04290  0.21800  Biso   1.000  H
  W13      1.0000 0.79639  0.55886  0.08728  Biso   1.000  W
  W14      1.0000 0.62119  0.48070  0.16641  Biso   1.000  W
  W15      1.0000 0.82224  0.41786  0.23702  Biso   1.000  W
  W16      1.0000 0.56708  0.59135  0.34522  Biso   1.000  W
  W17      1.0000 0.76384  0.52426  0.41754  Biso   1.000  W
  W18      1.0000 0.69773  0.75858  0.42850  Biso   1.000  W
  W19      1.0000 0.96429  0.61293  0.33271  Biso   1.000  W
  W20      1.0000 0.89535  0.85039  0.33796  Biso   1.000  W
  W21      1.0000 0.94579  0.75005  0.18158  Biso   1.000  W
  W22      1.0000 0.72290  0.82508  0.09819  Biso   1.000  W
  W23      1.0000 0.66966  0.91715  0.25843  Biso   1.000  W
  W24      1.0000 0.54306  0.74560  0.17296  Biso   1.000  W
  Zn4      1.0000 0.75109  0.67048  0.25486  Biso   1.000  Zn
  Zn5      1.0000 0.40035  0.44393  0.43980  Biso   1.000  Zn
  Zn6      1.0000 0.90313  0.39858  0.94192  Biso   1.000  Zn
  O42      1.0000 0.83630  0.52440  0.00250  Biso   1.000  O
  O43      1.0000 0.68420  0.48710  0.07610  Biso   1.000  O
  O44      1.0000 0.85100  0.43590  0.13650  Biso   1.000  O
  O45      1.0000 0.89700  0.63550  0.13020  Biso   1.000  O
  O46      1.0000 0.74010  0.68360  0.07010  Biso   1.000  O
  O47      1.0000 0.74870  0.55240  0.19510  Biso   1.000  O
  O48      1.0000 0.53780  0.39900  0.13070  Biso   1.000  O
  O49      1.0000 0.70170  0.37440  0.20180  Biso   1.000  O
  O50      1.0000 0.59050  0.49710  0.26740  Biso   1.000  O
  O51      1.0000 0.57320  0.60990  0.14350  Biso   1.000  O
  O52      1.0000 0.86420  0.30760  0.25210  Biso   1.000  O
  O53      1.0000 0.77420  0.43930  0.33230  Biso   1.000  O
  O54      1.0000 0.91940  0.50580  0.27190  Biso   1.000  O
  O55      1.0000 0.46840  0.54460  0.37160  Biso   1.000  O
  O56      1.0000 0.63570  0.49880  0.41000  Biso   1.000  O
  O57      1.0000 0.57840  0.69590  0.42020  Biso   1.000  O
  O58      1.0000 0.53270  0.69160  0.27270  Biso   1.000  O
  O59      1.0000 0.70160  0.63810  0.34610  Biso   1.000  O
  O60      1.0000 0.79160  0.43790  0.48710  Biso   1.000  O
  O61      1.0000 0.74400  0.64420  0.48240  Biso   1.000  O
  O62      1.0000 0.87720  0.58280  0.39990  Biso   1.000  O
  O63      1.0000 0.67540  0.83650  0.50280  Biso   1.000  O
  O64      1.0000 0.81270  0.79930  0.40610  Biso   1.000  O
  O65      1.0000 0.65300  0.84740  0.34730  Biso   1.000  O
  O66      1.0000 0.05590  0.56120  0.37970  Biso   1.000  O
  O67      1.0000 0.97640  0.74620  0.37960  Biso   1.000  O
  O68      1.0000 0.02180  0.66150  0.24630  Biso   1.000  O
  O69      1.0000 0.86960  0.71360  0.27270  Biso   1.000  O
  O70      1.0000 0.84250  0.82410  0.14060  Biso   1.000  O
  O71      1.0000 0.96230  0.86150  0.25230  Biso   1.000  O
  O72      1.0000 0.79720  0.91250  0.28710  Biso   1.000  O
  O73      1.0000 0.02640  0.78900  0.12380  Biso   1.000  O
  O74      1.0000 0.72720  0.87970  0.01160  Biso   1.000  O
  O75      1.0000 0.59840  0.79640  0.08480  Biso   1.000  O
  O76      1.0000 0.68290  0.76970  0.20530  Biso   1.000  O
  O77      1.0000 0.64400  0.04230  0.27800  Biso   1.000  O
  O78      1.0000 0.55180  0.88180  0.22120  Biso   1.000  O
  O79      1.0000 0.70170  0.94050  0.15470  Biso   1.000  O
  O80      1.0000 0.94330  0.94940  0.38760  Biso   1.000  O
  O81      1.0000 0.43540  0.75400  0.13680  Biso   1.000  O
  C39      1.0000 0.34710  0.39930  0.27510  Biso   1.000  C
  H52      1.0000 0.40840  0.39960  0.27310  Biso   1.000  H
  C40      1.0000 0.29390  0.38290  0.20740  Biso   1.000  C
  C41      1.0000 0.20490  0.39130  0.21340  Biso   1.000  C
  C42      1.0000 0.16850  0.41190  0.28380  Biso   1.000  C
  H53      1.0000 0.10770  0.41680  0.28790  Biso   1.000  H
  C43      1.0000 0.22900  0.42390  0.34460  Biso   1.000  C
  H54      1.0000 0.20760  0.43950  0.39020  Biso   1.000  H
  C44      1.0000 0.13770  0.38450  0.14860  Biso   1.000  C
  C45      1.0000 0.11710  0.29690  0.10350  Biso   1.000  C
  H55      1.0000 0.14690  0.23650  0.11390  Biso   1.000  H
  C46      1.0000 0.05300  0.30260  0.04440  Biso   1.000  C
  H56      1.0000 0.04170  0.24530  0.01550  Biso   1.000  H
  C47      1.0000 0.02680  0.47020  0.06960  Biso   1.000  C
  H57      1.0000 0.99650  0.52980  0.05730  Biso   1.000  H
  C48      1.0000 0.08930  0.46870  0.12890  Biso   1.000  C
  H58      1.0000 0.09920  0.52720  0.15670  Biso   1.000  H
  C49      1.0000 0.84380  0.45430  0.78330  Biso   1.000  C
  H59      1.0000 0.90460  0.46420  0.78210  Biso   1.000  H
  C50      1.0000 0.79160  0.46620  0.71660  Biso   1.000  C
  C51      1.0000 0.69790  0.46210  0.72170  Biso   1.000  C
  C52      1.0000 0.66670  0.44130  0.79340  Biso   1.000  C
  H60      1.0000 0.60630  0.43350  0.79840  Biso   1.000  H
  C53      1.0000 0.72550  0.43320  0.85360  Biso   1.000  C
  H61      1.0000 0.70450  0.42950  0.90070  Biso   1.000  H
  C54      1.0000 0.63650  0.46630  0.65600  Biso   1.000  C
  C55      1.0000 0.58900  0.38510  0.63110  Biso   1.000  C
  H62      1.0000 0.59660  0.32500  0.65750  Biso   1.000  H
  C56      1.0000 0.52550  0.38630  0.56430  Biso   1.000  C
  H63      1.0000 0.50240  0.32500  0.54680  Biso   1.000  H
  C57      1.0000 0.55110  0.55490  0.55020  Biso   1.000  C
  H64      1.0000 0.53970  0.61360  0.52280  Biso   1.000  H
  C58      1.0000 0.61960  0.55270  0.61470  Biso   1.000  C
  H65      1.0000 0.65150  0.61100  0.62730  Biso   1.000  H
  C59      1.0000 0.26200  0.55550  0.52580  Biso   1.000  C
  H66      1.0000 0.23110  0.49670  0.53520  Biso   1.000  H
  C60      1.0000 0.30470  0.70630  0.53140  Biso   1.000  C
  H67      1.0000 0.31080  0.77450  0.54300  Biso   1.000  H
  C61      1.0000 0.35620  0.65380  0.48940  Biso   1.000  C
  H68      1.0000 0.40470  0.67960  0.46680  Biso   1.000  H
  C62      1.0000 0.16860  0.65980  0.59780  Biso   1.000  C
  H69      1.0000 0.18070  0.71710  0.63040  Biso   1.000  H
  H70      1.0000 0.16120  0.60090  0.62860  Biso   1.000  H
  C63      1.0000 0.08070  0.67910  0.54830  Biso   1.000  C
  H71      1.0000 0.07160  0.62640  0.51040  Biso   1.000  H
  C64      1.0000 0.94880  0.77110  0.57600  Biso   1.000  C
  H72      1.0000 0.91900  0.79880  0.61720  Biso   1.000  H
  H73      1.0000 0.90500  0.75570  0.53540  Biso   1.000  H
  C65      1.0000 0.02220  0.84620  0.55030  Biso   1.000  C
  H74      1.0000 0.99600  0.89750  0.51720  Biso   1.000  H
  H75      1.0000 0.05360  0.87880  0.59280  Biso   1.000  H
  N14      1.0000 0.08090  0.78200  0.51230  Biso   1.000  N
  H76      1.0000 0.13620  0.80770  0.51580  Biso   1.000  H
  H77      1.0000 0.06210  0.77720  0.46380  Biso   1.000  H
  C66      1.0000 0.76320  0.28280  0.02390  Biso   1.000  C
  H78      1.0000 0.74110  0.34150  0.04380  Biso   1.000  H
  C67      1.0000 0.77610  0.13010  0.99590  Biso   1.000  C
  H79      1.0000 0.76720  0.06090  0.99080  Biso   1.000  H
  C68      1.0000 0.83230  0.18430  0.96380  Biso   1.000  C
  H80      1.0000 0.87290  0.15820  0.93270  Biso   1.000  H
  C69      1.0000 0.65950  0.17330  0.08200  Biso   1.000  C
  H81      1.0000 0.65350  0.22710  0.11770  Biso   1.000  H
  H82      1.0000 0.66950  0.11060  0.10900  Biso   1.000  H
  C70      1.0000 0.57520  0.16570  0.02970  Biso   1.000  C
  H83      1.0000 0.58960  0.19590  0.98250  Biso   1.000  H
  C71      1.0000 0.43350  0.13230  0.08490  Biso   1.000  C
  H84      1.0000 0.42730  0.14210  0.13750  Biso   1.000  H
  H85      1.0000 0.37500  0.13040  0.05850  Biso   1.000  H
  C72      1.0000 0.48550  0.03750  0.07100  Biso   1.000  C
  H86      1.0000 0.44450  0.98380  0.05570  Biso   1.000  H
  H87      1.0000 0.51800  0.01690  0.11710  Biso   1.000  H
  C73      1.0000 0.55030  0.05220  0.01190  Biso   1.000  C
  H88      1.0000 0.52220  0.04380  0.96210  Biso   1.000  H
  H89      1.0000 0.60120  0.00770  0.01900  Biso   1.000  H
  C74      1.0000 0.04350  0.54980  0.86780  Biso   1.000  C
  N15      1.0000 0.31470  0.41440  0.34140  Biso   1.000  N
  N16      1.0000 0.00790  0.38340  0.02750  Biso   1.000  N
  N17      1.0000 0.33340  0.37530  0.14260  Biso   1.000  N
  H90      1.0000 0.30160  0.37570  0.10090  Biso   1.000  H
  H91      1.0000 0.39020  0.37020  0.14310  Biso   1.000  H
  N18      1.0000 0.81480  0.43040  0.84710  Biso   1.000  N
  N19      1.0000 0.50220  0.46120  0.53150  Biso   1.000  N
  N20      1.0000 0.82680  0.49030  0.65330  Biso   1.000  N
  H92      1.0000 0.88320  0.49890  0.65290  Biso   1.000  H
  H93      1.0000 0.79310  0.49720  0.61300  Biso   1.000  H
  N21      1.0000 0.32790  0.55730  0.48420  Biso   1.000  N
  N22      1.0000 0.24230  0.64420  0.55410  Biso   1.000  N
  C75      1.0000 0.00100  0.68140  0.59890  Biso   1.000  C
  H94      1.0000 0.96530  0.62080  0.59180  Biso   1.000  H
  H95      1.0000 0.02240  0.68600  0.65090  Biso   1.000  H
  N23      1.0000 0.82610  0.28320  0.98020  Biso   1.000  N
  N24      1.0000 0.73260  0.19380  0.03830  Biso   1.000  N
  N25      1.0000 0.49490  0.21960  0.05200  Biso   1.000  N
  H96      1.0000 0.46610  0.25010  0.01250  Biso   1.000  H
  H97      1.0000 0.50970  0.26640  0.08690  Biso   1.000  H
  N26      1.0000 0.98900  0.52320  0.90170  Biso   1.000  N
  O82      1.0000 0.49070  0.32220  0.40480  Biso   1.000  O
  H98      1.0000 0.51010  0.33640  0.36300  Biso   1.000  H
  H99      1.0000 0.46020  0.26820  0.40090  Biso   1.000  H
  C76      1.0000 0.10190  0.59370  0.81620  Biso   1.000  C
  H100     1.0000 0.15410  0.61980  0.84330  Biso   1.000  H
  H101     1.0000 0.07150  0.64750  0.78910  Biso   1.000  H
  H102     1.0000 0.11860  0.54290  0.78200  Biso   1.000  H
