data_image0
_cell_length_a       11.6193
_cell_length_b       5.5667
_cell_length_c       22.9312
_cell_angle_alpha    90
_cell_angle_beta     100.897
_cell_angle_gamma    90

_symmetry_space_group_name_H-M    "P 1"
_symmetry_int_tables_number       1

loop_
  _symmetry_equiv_pos_as_xyz
  'x, y, z'

loop_
  _atom_site_label
  _atom_site_occupancy
  _atom_site_fract_x
  _atom_site_fract_y
  _atom_site_fract_z
  _atom_site_thermal_displace_type
  _atom_site_B_iso_or_equiv
  _atom_site_type_symbol
  C1       1.0000 0.49320  0.25860  0.26200  Biso   1.000  C
  C2       1.0000 0.39980  0.21110  0.29910  Biso   1.000  C
  C3       1.0000 0.31210  0.37890  0.30010  Biso   1.000  C
  H1       1.0000 0.31420  0.52870  0.28040  Biso   1.000  H
  C4       1.0000 0.22080  0.32820  0.32990  Biso   1.000  C
  H2       1.0000 0.15970  0.44130  0.33040  Biso   1.000  H
  C5       1.0000 0.22090  0.10960  0.35890  Biso   1.000  C
  C6       1.0000 0.31090  0.94130  0.36030  Biso   1.000  C
  H3       1.0000 0.31100  0.79580  0.38200  Biso   1.000  H
  C7       1.0000 0.40020  0.99120  0.32930  Biso   1.000  C
  H4       1.0000 0.46090  0.87770  0.32860  Biso   1.000  H
  C8       1.0000 0.14900  0.11190  0.47020  Biso   1.000  C
  C9       1.0000 0.11940  0.33400  0.49010  Biso   1.000  C
  H5       1.0000 0.08030  0.45020  0.46300  Biso   1.000  H
  C10      1.0000 0.14820  0.38370  0.55080  Biso   1.000  C
  H6       1.0000 0.12980  0.53610  0.56520  Biso   1.000  H
  C11      1.0000 0.20360  0.21140  0.59000  Biso   1.000  C
  C12      1.0000 0.23670  0.99050  0.56930  Biso   1.000  C
  H7       1.0000 0.27750  0.87590  0.59620  Biso   1.000  H
  C13      1.0000 0.20950  0.93980  0.50880  Biso   1.000  C
  H8       1.0000 0.23170  0.79100  0.49390  Biso   1.000  H
  C14      1.0000 0.22750  0.26240  0.65570  Biso   1.000  C
  O1       1.0000 0.51240  0.47550  0.25221  Biso   1.000  O
  O2       1.0000 0.54090  0.08080  0.24372  Biso   1.000  O
  O3       1.0000 0.00540  0.19580  0.37124  Biso   1.000  O
  O4       1.0000 0.08660  0.77960  0.39054  Biso   1.000  O
  O5       1.0000 0.23710  0.47680  0.67265  Biso   1.000  O
  O6       1.0000 0.24060  0.08500  0.69066  Biso   1.000  O
  S1       1.0000 0.10323  0.03640  0.39414  Biso   1.000  S
  Ca1      1.0000 0.63720  0.74331  0.22117  Biso   1.000  Ca
  C15      1.0000 0.00680  0.75860  0.23800  Biso   1.000  C
  C16      1.0000 0.10020  0.71110  0.20090  Biso   1.000  C
  C17      1.0000 0.18790  0.87890  0.19990  Biso   1.000  C
  H9       1.0000 0.18580  0.02870  0.21960  Biso   1.000  H
  C18      1.0000 0.27920  0.82820  0.17010  Biso   1.000  C
  H10      1.0000 0.34030  0.94130  0.16960  Biso   1.000  H
  C19      1.0000 0.27910  0.60960  0.14110  Biso   1.000  C
  C20      1.0000 0.18910  0.44130  0.13970  Biso   1.000  C
  H11      1.0000 0.18900  0.29580  0.11800  Biso   1.000  H
  C21      1.0000 0.09980  0.49120  0.17070  Biso   1.000  C
  H12      1.0000 0.03910  0.37770  0.17140  Biso   1.000  H
  C22      1.0000 0.35100  0.61190  0.02980  Biso   1.000  C
  C23      1.0000 0.38060  0.83400  0.00990  Biso   1.000  C
  H13      1.0000 0.41970  0.95020  0.03700  Biso   1.000  H
  C24      1.0000 0.35180  0.88370  0.94920  Biso   1.000  C
  H14      1.0000 0.37020  0.03610  0.93480  Biso   1.000  H
  C25      1.0000 0.29640  0.71140  0.91000  Biso   1.000  C
  C26      1.0000 0.26330  0.49050  0.93070  Biso   1.000  C
  H15      1.0000 0.22250  0.37590  0.90380  Biso   1.000  H
  C27      1.0000 0.29050  0.43980  0.99120  Biso   1.000  C
  H16      1.0000 0.26830  0.29100  0.00610  Biso   1.000  H
  C28      1.0000 0.27250  0.76240  0.84430  Biso   1.000  C
  O7       1.0000 0.98760  0.97550  0.24779  Biso   1.000  O
  O8       1.0000 0.95910  0.58080  0.25628  Biso   1.000  O
  O9       1.0000 0.49460  0.69580  0.12876  Biso   1.000  O
  O10      1.0000 0.41340  0.27960  0.10946  Biso   1.000  O
  O11      1.0000 0.26290  0.97680  0.82735  Biso   1.000  O
  O12      1.0000 0.25940  0.58500  0.80934  Biso   1.000  O
  S2       1.0000 0.39677  0.53640  0.10586  Biso   1.000  S
  Ca2      1.0000 0.86280  0.24331  0.27883  Biso   1.000  Ca
  C29      1.0000 0.50680  0.74140  0.73800  Biso   1.000  C
  C30      1.0000 0.60020  0.78890  0.70090  Biso   1.000  C
  C31      1.0000 0.68790  0.62110  0.69990  Biso   1.000  C
  H17      1.0000 0.68580  0.47130  0.71960  Biso   1.000  H
  C32      1.0000 0.77920  0.67180  0.67010  Biso   1.000  C
  H18      1.0000 0.84030  0.55870  0.66960  Biso   1.000  H
  C33      1.0000 0.77910  0.89040  0.64110  Biso   1.000  C
  C34      1.0000 0.68910  0.05870  0.63970  Biso   1.000  C
  H19      1.0000 0.68900  0.20420  0.61800  Biso   1.000  H
  C35      1.0000 0.59980  0.00880  0.67070  Biso   1.000  C
  H20      1.0000 0.53910  0.12230  0.67140  Biso   1.000  H
  C36      1.0000 0.85100  0.88810  0.52980  Biso   1.000  C
  C37      1.0000 0.88060  0.66600  0.50990  Biso   1.000  C
  H21      1.0000 0.91970  0.54980  0.53700  Biso   1.000  H
  C38      1.0000 0.85180  0.61630  0.44920  Biso   1.000  C
  H22      1.0000 0.87020  0.46390  0.43480  Biso   1.000  H
  C39      1.0000 0.79640  0.78860  0.41000  Biso   1.000  C
  C40      1.0000 0.76330  0.00950  0.43070  Biso   1.000  C
  H23      1.0000 0.72250  0.12410  0.40380  Biso   1.000  H
  C41      1.0000 0.79050  0.06020  0.49120  Biso   1.000  C
  H24      1.0000 0.76830  0.20900  0.50610  Biso   1.000  H
  C42      1.0000 0.77250  0.73760  0.34430  Biso   1.000  C
  O13      1.0000 0.48760  0.52450  0.74779  Biso   1.000  O
  O14      1.0000 0.45910  0.91920  0.75628  Biso   1.000  O
  O15      1.0000 0.99460  0.80420  0.62876  Biso   1.000  O
  O16      1.0000 0.91340  0.22040  0.60946  Biso   1.000  O
  O17      1.0000 0.76290  0.52320  0.32735  Biso   1.000  O
  O18      1.0000 0.75940  0.91500  0.30934  Biso   1.000  O
  S3       1.0000 0.89677  0.96360  0.60586  Biso   1.000  S
  Ca3      1.0000 0.36280  0.25669  0.77883  Biso   1.000  Ca
  C43      1.0000 0.99320  0.24140  0.76200  Biso   1.000  C
  C44      1.0000 0.89980  0.28890  0.79910  Biso   1.000  C
  C45      1.0000 0.81210  0.12110  0.80010  Biso   1.000  C
  H25      1.0000 0.81420  0.97130  0.78040  Biso   1.000  H
  C46      1.0000 0.72080  0.17180  0.82990  Biso   1.000  C
  H26      1.0000 0.65970  0.05870  0.83040  Biso   1.000  H
  C47      1.0000 0.72090  0.39040  0.85890  Biso   1.000  C
  C48      1.0000 0.81090  0.55870  0.86030  Biso   1.000  C
  H27      1.0000 0.81100  0.70420  0.88200  Biso   1.000  H
  C49      1.0000 0.90020  0.50880  0.82930  Biso   1.000  C
  H28      1.0000 0.96090  0.62230  0.82860  Biso   1.000  H
  C50      1.0000 0.64900  0.38810  0.97020  Biso   1.000  C
  C51      1.0000 0.61940  0.16600  0.99010  Biso   1.000  C
  H29      1.0000 0.58030  0.04980  0.96300  Biso   1.000  H
  C52      1.0000 0.64820  0.11630  0.05080  Biso   1.000  C
  H30      1.0000 0.62980  0.96390  0.06520  Biso   1.000  H
  C53      1.0000 0.70360  0.28860  0.09000  Biso   1.000  C
  C54      1.0000 0.73670  0.50950  0.06930  Biso   1.000  C
  H31      1.0000 0.77750  0.62410  0.09620  Biso   1.000  H
  C55      1.0000 0.70950  0.56020  0.00880  Biso   1.000  C
  H32      1.0000 0.73170  0.70900  0.99390  Biso   1.000  H
  C56      1.0000 0.72750  0.23760  0.15570  Biso   1.000  C
  O19      1.0000 0.01240  0.02450  0.75221  Biso   1.000  O
  O20      1.0000 0.04090  0.41920  0.74372  Biso   1.000  O
  O21      1.0000 0.50540  0.30420  0.87124  Biso   1.000  O
  O22      1.0000 0.58660  0.72040  0.89054  Biso   1.000  O
  O23      1.0000 0.73710  0.02320  0.17265  Biso   1.000  O
  O24      1.0000 0.74060  0.41500  0.19066  Biso   1.000  O
  S4       1.0000 0.60323  0.46360  0.89414  Biso   1.000  S
  Ca4      1.0000 0.13720  0.75669  0.72117  Biso   1.000  Ca
