data_ncomms7350-s2_freeONLY
_audit_creation_date              2015-08-19
_audit_creation_method            'Materials Studio'
_symmetry_space_group_name_H-M    'P1'
_symmetry_Int_Tables_number       1
_symmetry_cell_setting            triclinic
loop_
_symmetry_equiv_pos_as_xyz
  x,y,z
_cell_length_a                    14.4034
_cell_length_b                    14.4034
_cell_length_c                    15.8790
_cell_angle_alpha                 65.4720
_cell_angle_beta                  65.4720
_cell_angle_gamma                 67.9351
loop_
_atom_site_label
_atom_site_type_symbol
_atom_site_fract_x
_atom_site_fract_y
_atom_site_fract_z
_atom_site_U_iso_or_equiv
_atom_site_adp_type
_atom_site_occupancy
Cu1    Cu    0.91566   0.44804   0.32481   0.01267  Uiso   1.00
Cu2    Cu    0.44804   0.91566   0.82481   0.01267  Uiso   1.00
Cu3    Cu    0.38510   0.09002   0.05236   0.01267  Uiso   1.00
Cu4    Cu    0.08434   0.55196   0.67519   0.01267  Uiso   1.00
Cu5    Cu    0.73070   0.26930   0.75000   0.01267  Uiso   1.00
Cu6    Cu    0.55196   0.08434   0.17519   0.01267  Uiso   1.00
Cu7    Cu    0.93908   0.06092   0.25000   0.01267  Uiso   1.00
Cu8    Cu    0.06092   0.93908   0.75000   0.01267  Uiso   1.00
Cu9    Cu    0.02285   0.83339   0.01037   0.01267  Uiso   1.00
Cu10   Cu    0.26930   0.73070   0.25000   0.01267  Uiso   1.00
Cu11   Cu    0.16661   0.97715   0.48963   0.01267  Uiso   1.00
Cu12   Cu    0.83339   0.02285   0.51037   0.01267  Uiso   1.00
Cu13   Cu    0.97715   0.16661   0.98963   0.01267  Uiso   1.00
Cu14   Cu    0.90998   0.61490   0.44764   0.01267  Uiso   1.00
Cu15   Cu    0.09002   0.38510   0.55236   0.01267  Uiso   1.00
Cu16   Cu    0.61490   0.90998   0.94764   0.01267  Uiso   1.00
H1     H     0.96060   0.40320   0.96630   0.01267  Uiso   1.00
H2     H     0.20600   0.27380   0.37830   0.01267  Uiso   1.00
H3     H     0.48750   0.27510   0.78050   0.01267  Uiso   1.00
H4     H     0.19680   0.92760   0.27370   0.01267  Uiso   1.00
H5     H     0.88110   0.96890   0.69960   0.01267  Uiso   1.00
H6     H     0.03110   0.11890   0.80040   0.01267  Uiso   1.00
H7     H     0.08740   0.30740   0.37670   0.01267  Uiso   1.00
H8     H     0.27510   0.48750   0.28050   0.01267  Uiso   1.00
H9     H     0.16220   0.19600   0.36440   0.01267  Uiso   1.00
H10    H     0.66740   0.96520   0.34490   0.01267  Uiso   1.00
H11    H     0.27380   0.20600   0.87830   0.01267  Uiso   1.00
H12    H     0.18370   0.88010   0.06520   0.01267  Uiso   1.00
H13    H     0.23750   0.76310   0.43910   0.01267  Uiso   1.00
H14    H     0.00890   0.74230   0.86310   0.01267  Uiso   1.00
H15    H     0.91900   0.37120   0.14540   0.01267  Uiso   1.00
H16    H     0.07240   0.80320   0.22630   0.01267  Uiso   1.00
H17    H     0.25770   0.99110   0.63690   0.01267  Uiso   1.00
H18    H     0.51250   0.72490   0.21950   0.01267  Uiso   1.00
H19    H     0.46610   0.04770   0.38850   0.01267  Uiso   1.00
H20    H     0.56890   0.17270   0.75250   0.01267  Uiso   1.00
H21    H     0.04770   0.46610   0.88850   0.01267  Uiso   1.00
H22    H     0.19600   0.16220   0.86440   0.01267  Uiso   1.00
H23    H     0.45580   0.16480   0.83130   0.01267  Uiso   1.00
H24    H     0.91260   0.69260   0.62330   0.01267  Uiso   1.00
H25    H     0.80320   0.07240   0.72630   0.01267  Uiso   1.00
H26    H     0.30740   0.08740   0.87670   0.01267  Uiso   1.00
H27    H     0.88010   0.18370   0.56520   0.01267  Uiso   1.00
H28    H     0.08300   0.34560   0.94970   0.01267  Uiso   1.00
H29    H     0.59680   0.03940   0.53370   0.01267  Uiso   1.00
H30    H     0.34560   0.08300   0.44970   0.01267  Uiso   1.00
H31    H     0.99110   0.25770   0.13690   0.01267  Uiso   1.00
H32    H     0.17270   0.56890   0.25250   0.01267  Uiso   1.00
H33    H     0.16480   0.45580   0.33130   0.01267  Uiso   1.00
H34    H     0.11990   0.81630   0.43480   0.01267  Uiso   1.00
H35    H     0.72620   0.79400   0.12170   0.01267  Uiso   1.00
H36    H     0.54420   0.83520   0.16870   0.01267  Uiso   1.00
H37    H     0.76250   0.23690   0.56090   0.01267  Uiso   1.00
H38    H     0.83520   0.54420   0.66870   0.01267  Uiso   1.00
H39    H     0.81630   0.11990   0.93480   0.01267  Uiso   1.00
H40    H     0.82730   0.43110   0.74750   0.01267  Uiso   1.00
H41    H     0.03940   0.59680   0.03370   0.01267  Uiso   1.00
H42    H     0.53390   0.95230   0.61150   0.01267  Uiso   1.00
H43    H     0.92760   0.19680   0.77370   0.01267  Uiso   1.00
H44    H     0.69260   0.91260   0.12330   0.01267  Uiso   1.00
H45    H     0.96890   0.88110   0.19960   0.01267  Uiso   1.00
H46    H     0.91700   0.65440   0.05030   0.01267  Uiso   1.00
H47    H     0.79400   0.72620   0.62170   0.01267  Uiso   1.00
H48    H     0.11890   0.03110   0.30040   0.01267  Uiso   1.00
H49    H     0.23690   0.76250   0.06090   0.01267  Uiso   1.00
H50    H     0.72490   0.51250   0.71950   0.01267  Uiso   1.00
H51    H     0.08100   0.62880   0.85460   0.01267  Uiso   1.00
H52    H     0.96520   0.66740   0.84490   0.01267  Uiso   1.00
H53    H     0.80400   0.83780   0.13560   0.01267  Uiso   1.00
H54    H     0.76310   0.23750   0.93910   0.01267  Uiso   1.00
H55    H     0.40320   0.96060   0.46630   0.01267  Uiso   1.00
H56    H     0.03480   0.33260   0.15510   0.01267  Uiso   1.00
H57    H     0.37120   0.91900   0.64540   0.01267  Uiso   1.00
H58    H     0.43110   0.82730   0.24750   0.01267  Uiso   1.00
H59    H     0.95230   0.53390   0.11150   0.01267  Uiso   1.00
H60    H     0.65440   0.91700   0.55030   0.01267  Uiso   1.00
H61    H     0.33260   0.03480   0.65510   0.01267  Uiso   1.00
H62    H     0.83780   0.80400   0.63560   0.01267  Uiso   1.00
H63    H     0.62880   0.08100   0.35460   0.01267  Uiso   1.00
H64    H     0.74230   0.00890   0.36310   0.01267  Uiso   1.00
C1     C     0.96880   0.63660   0.15870   0.01267  Uiso   1.00
C2     C     0.16200   0.66000   0.45820   0.01267  Uiso   1.00
C3     C     0.14400   0.24820   0.39670   0.01267  Uiso   1.00
C4     C     0.80130   0.48630   0.69460   0.01267  Uiso   1.00
C5     C     0.82640   0.44180   0.61510   0.01267  Uiso   1.00
C6     C     0.81370   0.99530   0.74530   0.01267  Uiso   1.00
C7     C     0.82660   0.94860   0.84450   0.01267  Uiso   1.00
C8     C     0.10850   0.19950   0.50320   0.01267  Uiso   1.00
C9     C     0.17360   0.55820   0.38490   0.01267  Uiso   1.00
C10    C     0.44180   0.82640   0.11510   0.01267  Uiso   1.00
C11    C     0.97210   0.31030   0.16930   0.01267  Uiso   1.00
C12    C     0.94860   0.82660   0.34450   0.01267  Uiso   1.00
C13    C     0.89150   0.80050   0.49680   0.01267  Uiso   1.00
C14    C     0.26300   0.92840   0.77680   0.01267  Uiso   1.00
C15    C     0.96940   0.60260   0.08200   0.01267  Uiso   1.00
C16    C     0.31030   0.97210   0.66930   0.01267  Uiso   1.00
C17    C     0.24820   0.14400   0.89670   0.01267  Uiso   1.00
C18    C     0.18630   0.00470   0.25470   0.01267  Uiso   1.00
C19    C     0.19870   0.51370   0.30540   0.01267  Uiso   1.00
C20    C     0.68970   0.02790   0.33070   0.01267  Uiso   1.00
C21    C     0.16430   0.75490   0.47100   0.01267  Uiso   1.00
C22    C     0.12980   0.76140   0.57170   0.01267  Uiso   1.00
C23    C     0.48630   0.80130   0.19460   0.01267  Uiso   1.00
C24    C     0.51370   0.19870   0.80540   0.01267  Uiso   1.00
C25    C     0.36340   0.03120   0.34130   0.01267  Uiso   1.00
C26    C     0.97660   0.72800   0.22990   0.01267  Uiso   1.00
C27    C     0.66000   0.16200   0.95820   0.01267  Uiso   1.00
C28    C     0.75490   0.16430   0.97100   0.01267  Uiso   1.00
C29    C     0.00470   0.18630   0.75470   0.01267  Uiso   1.00
C30    C     0.19950   0.10850   0.00320   0.01267  Uiso   1.00
C31    C     0.63660   0.96880   0.65870   0.01267  Uiso   1.00
C32    C     0.83570   0.24510   0.52900   0.01267  Uiso   1.00
C33    C     0.02790   0.68970   0.83070   0.01267  Uiso   1.00
C34    C     0.05140   0.17340   0.65550   0.01267  Uiso   1.00
C35    C     0.02340   0.27200   0.77010   0.01267  Uiso   1.00
C36    C     0.83800   0.34000   0.54180   0.01267  Uiso   1.00
C37    C     0.75180   0.85600   0.10330   0.01267  Uiso   1.00
C38    C     0.24510   0.83570   0.02900   0.01267  Uiso   1.00
C39    C     0.03060   0.39740   0.91800   0.01267  Uiso   1.00
C40    C     0.72800   0.97660   0.72990   0.01267  Uiso   1.00
C41    C     0.17340   0.05140   0.15550   0.01267  Uiso   1.00
C42    C     0.99530   0.81370   0.24530   0.01267  Uiso   1.00
C43    C     0.80050   0.89150   0.99680   0.01267  Uiso   1.00
C44    C     0.87020   0.23860   0.42830   0.01267  Uiso   1.00
C45    C     0.55820   0.17360   0.88490   0.01267  Uiso   1.00
C46    C     0.60260   0.96940   0.58200   0.01267  Uiso   1.00
C47    C     0.92840   0.26300   0.27680   0.01267  Uiso   1.00
C48    C     0.73700   0.07160   0.22320   0.01267  Uiso   1.00
C49    C     0.76140   0.12980   0.07170   0.01267  Uiso   1.00
C50    C     0.85600   0.75180   0.60330   0.01267  Uiso   1.00
C51    C     0.27200   0.02340   0.27010   0.01267  Uiso   1.00
C52    C     0.34000   0.83800   0.04180   0.01267  Uiso   1.00
C53    C     0.07160   0.73700   0.72320   0.01267  Uiso   1.00
C54    C     0.23860   0.87020   0.92830   0.01267  Uiso   1.00
C55    C     0.39740   0.03060   0.41800   0.01267  Uiso   1.00
C56    C     0.03120   0.36340   0.84130   0.01267  Uiso   1.00
N1     N     0.83260   0.08800   0.18300   0.01267  Uiso   1.00
N2     N     0.35010   0.80370   0.13240   0.01267  Uiso   1.00
N3     N     0.48640   0.86820   0.02140   0.01267  Uiso   1.00
N4     N     0.91200   0.16740   0.31700   0.01267  Uiso   1.00
N5     N     0.13180   0.51360   0.47860   0.01267  Uiso   1.00
N6     N     0.51360   0.13180   0.97860   0.01267  Uiso   1.00
N7     N     0.12550   0.84870   0.58350   0.01267  Uiso   1.00
N8     N     0.16740   0.91200   0.81700   0.01267  Uiso   1.00
N9     N     0.90140   0.89740   0.95530   0.01267  Uiso   1.00
N10    N     0.24960   0.07780   0.06890   0.01267  Uiso   1.00
N11    N     0.75040   0.92220   0.93110   0.01267  Uiso   1.00
N12    N     0.93560   0.91680   0.35520   0.01267  Uiso   1.00
N13    N     0.90420   0.31180   0.34210   0.01267  Uiso   1.00
N14    N     0.68820   0.09580   0.15790   0.01267  Uiso   1.00
N15    N     0.09860   0.10260   0.04470   0.01267  Uiso   1.00
N16    N     0.80370   0.35010   0.63240   0.01267  Uiso   1.00
N17    N     0.64320   0.94820   0.79970   0.01267  Uiso   1.00
N18    N     0.86820   0.48640   0.52140   0.01267  Uiso   1.00
N19    N     0.94820   0.64320   0.29970   0.01267  Uiso   1.00
N20    N     0.41650   0.05570   0.24760   0.01267  Uiso   1.00
N21    N     0.08320   0.06440   0.14480   0.01267  Uiso   1.00
N22    N     0.58350   0.94430   0.75240   0.01267  Uiso   1.00
N23    N     0.64990   0.19630   0.86760   0.01267  Uiso   1.00
N24    N     0.84870   0.12550   0.08350   0.01267  Uiso   1.00
N25    N     0.87670   0.41950   0.47420   0.01267  Uiso   1.00
N26    N     0.05180   0.35680   0.70030   0.01267  Uiso   1.00
N27    N     0.92220   0.75040   0.43110   0.01267  Uiso   1.00
N28    N     0.01040   0.27200   0.86000   0.01267  Uiso   1.00
N29    N     0.31180   0.90420   0.84210   0.01267  Uiso   1.00
N30    N     0.35680   0.05180   0.20030   0.01267  Uiso   1.00
N31    N     0.87450   0.15130   0.41650   0.01267  Uiso   1.00
N32    N     0.10260   0.09860   0.54470   0.01267  Uiso   1.00
N33    N     0.98960   0.72800   0.14000   0.01267  Uiso   1.00
N34    N     0.05570   0.41650   0.74760   0.01267  Uiso   1.00
N35    N     0.58050   0.12330   0.02580   0.01267  Uiso   1.00
N36    N     0.08800   0.83260   0.68300   0.01267  Uiso   1.00
N37    N     0.12330   0.58050   0.52580   0.01267  Uiso   1.00
N38    N     0.15130   0.87450   0.91650   0.01267  Uiso   1.00
N39    N     0.41950   0.87670   0.97420   0.01267  Uiso   1.00
N40    N     0.09580   0.68820   0.65790   0.01267  Uiso   1.00
N41    N     0.72800   0.98960   0.64000   0.01267  Uiso   1.00
N42    N     0.89740   0.90140   0.45530   0.01267  Uiso   1.00
N43    N     0.91680   0.93560   0.85520   0.01267  Uiso   1.00
N44    N     0.94430   0.58350   0.25240   0.01267  Uiso   1.00
N45    N     0.06440   0.08320   0.64480   0.01267  Uiso   1.00
N46    N     0.19630   0.64990   0.36760   0.01267  Uiso   1.00
N47    N     0.27200   0.01040   0.36000   0.01267  Uiso   1.00
N48    N     0.07780   0.24960   0.56890   0.01267  Uiso   1.00
