data_image0
_cell_length_a       17.0627
_cell_length_b       18.8861
_cell_length_c       31.6438
_cell_angle_alpha    90
_cell_angle_beta     90
_cell_angle_gamma    90

_symmetry_space_group_name_H-M    P 1
_symmetry_int_tables_number       1

loop_
  _symmetry_equiv_pos_as_xyz
  'x, y, z'

loop_
  _atom_site_label
  _atom_site_occupancy
  _atom_site_fract_x
  _atom_site_fract_y
  _atom_site_fract_z
  _atom_site_thermal_displace_type
  _atom_site_B_iso_or_equiv
  _atom_site_type_symbol
  Cs1      1.0000 0.56131  0.60049  0.81380  Biso   1.000  Cs
  Cs2      1.0000 0.43869  0.89951  0.31380  Biso   1.000  Cs
  Cs3      1.0000 0.06131  0.39951  0.68620  Biso   1.000  Cs
  Cs4      1.0000 0.93869  0.10049  0.18620  Biso   1.000  Cs
  Cs5      1.0000 0.43869  0.39951  0.18620  Biso   1.000  Cs
  Cs6      1.0000 0.56131  0.10049  0.68620  Biso   1.000  Cs
  Cs7      1.0000 0.93869  0.60049  0.31380  Biso   1.000  Cs
  Cs8      1.0000 0.06131  0.89951  0.81380  Biso   1.000  Cs
  K1       1.0000 0.86090  0.28067  0.77894  Biso   1.000  K
  K2       1.0000 0.13910  0.21933  0.27894  Biso   1.000  K
  K3       1.0000 0.36090  0.71933  0.72106  Biso   1.000  K
  K4       1.0000 0.63910  0.78067  0.22106  Biso   1.000  K
  K5       1.0000 0.13910  0.71933  0.22106  Biso   1.000  K
  K6       1.0000 0.86090  0.78067  0.72106  Biso   1.000  K
  K7       1.0000 0.63910  0.28067  0.27894  Biso   1.000  K
  K8       1.0000 0.36090  0.21933  0.77894  Biso   1.000  K
  Mo1      1.0000 0.73714  0.44847  0.79974  Biso   1.000  Mo
  Mo2      1.0000 0.91811  0.47627  0.78001  Biso   1.000  Mo
  Mo3      1.0000 0.92545  0.58494  0.67978  Biso   1.000  Mo
  Mo4      1.0000 0.86979  0.72198  0.60654  Biso   1.000  Mo
  Mo5      1.0000 0.87718  0.81654  0.50133  Biso   1.000  Mo
  Mo6      1.0000 0.61079  0.69832  0.92951  Biso   1.000  Mo
  Mo7      1.0000 0.26286  0.05153  0.29974  Biso   1.000  Mo
  Mo8      1.0000 0.08189  0.02373  0.28001  Biso   1.000  Mo
  Mo9      1.0000 0.07456  0.91506  0.17978  Biso   1.000  Mo
  Mo10     1.0000 0.13021  0.77802  0.10654  Biso   1.000  Mo
  Mo11     1.0000 0.12282  0.68346  0.00133  Biso   1.000  Mo
  Mo12     1.0000 0.38921  0.80168  0.42951  Biso   1.000  Mo
  Mo13     1.0000 0.23714  0.55153  0.70026  Biso   1.000  Mo
  Mo14     1.0000 0.41811  0.52373  0.71999  Biso   1.000  Mo
  Mo15     1.0000 0.42544  0.41506  0.82022  Biso   1.000  Mo
  Mo16     1.0000 0.36979  0.27802  0.89346  Biso   1.000  Mo
  Mo17     1.0000 0.37718  0.18346  0.99867  Biso   1.000  Mo
  Mo18     1.0000 0.11079  0.30168  0.57049  Biso   1.000  Mo
  Mo19     1.0000 0.76286  0.94847  0.20026  Biso   1.000  Mo
  Mo20     1.0000 0.58189  0.97627  0.21999  Biso   1.000  Mo
  Mo21     1.0000 0.57455  0.08494  0.32022  Biso   1.000  Mo
  Mo22     1.0000 0.63021  0.22198  0.39346  Biso   1.000  Mo
  Mo23     1.0000 0.62282  0.31654  0.49867  Biso   1.000  Mo
  Mo24     1.0000 0.88921  0.19832  0.07049  Biso   1.000  Mo
  Mo25     1.0000 0.26286  0.55153  0.20026  Biso   1.000  Mo
  Mo26     1.0000 0.08189  0.52373  0.21999  Biso   1.000  Mo
  Mo27     1.0000 0.07456  0.41506  0.32022  Biso   1.000  Mo
  Mo28     1.0000 0.13021  0.27802  0.39346  Biso   1.000  Mo
  Mo29     1.0000 0.12282  0.18346  0.49867  Biso   1.000  Mo
  Mo30     1.0000 0.38921  0.30168  0.07049  Biso   1.000  Mo
  Mo31     1.0000 0.73714  0.94847  0.70026  Biso   1.000  Mo
  Mo32     1.0000 0.91811  0.97627  0.71999  Biso   1.000  Mo
  Mo33     1.0000 0.92545  0.08494  0.82022  Biso   1.000  Mo
  Mo34     1.0000 0.86979  0.22198  0.89346  Biso   1.000  Mo
  Mo35     1.0000 0.87718  0.31654  0.99867  Biso   1.000  Mo
  Mo36     1.0000 0.61079  0.19832  0.57049  Biso   1.000  Mo
  Mo37     1.0000 0.76286  0.44847  0.29974  Biso   1.000  Mo
  Mo38     1.0000 0.58189  0.47627  0.28001  Biso   1.000  Mo
  Mo39     1.0000 0.57455  0.58494  0.17978  Biso   1.000  Mo
  Mo40     1.0000 0.63021  0.72198  0.10654  Biso   1.000  Mo
  Mo41     1.0000 0.62282  0.81654  0.00133  Biso   1.000  Mo
  Mo42     1.0000 0.88921  0.69832  0.42951  Biso   1.000  Mo
  Mo43     1.0000 0.23714  0.05153  0.79974  Biso   1.000  Mo
  Mo44     1.0000 0.41811  0.02373  0.78001  Biso   1.000  Mo
  Mo45     1.0000 0.42544  0.91506  0.67978  Biso   1.000  Mo
  Mo46     1.0000 0.36979  0.77802  0.60654  Biso   1.000  Mo
  Mo47     1.0000 0.37718  0.68346  0.50133  Biso   1.000  Mo
  Mo48     1.0000 0.11079  0.80168  0.92951  Biso   1.000  Mo
  P1       1.0000 0.77059  0.59895  0.75025  Biso   1.000  P
  P2       1.0000 0.77916  0.46475  0.69932  Biso   1.000  P
  P3       1.0000 0.79294  0.64942  0.51441  Biso   1.000  P
  P4       1.0000 0.96815  0.65534  0.52146  Biso   1.000  P
  P5       1.0000 0.22941  0.90105  0.25025  Biso   1.000  P
  P6       1.0000 0.22084  0.03525  0.19932  Biso   1.000  P
  P7       1.0000 0.20706  0.85058  0.01441  Biso   1.000  P
  P8       1.0000 0.03185  0.84466  0.02146  Biso   1.000  P
  P9       1.0000 0.27059  0.40105  0.74975  Biso   1.000  P
  P10      1.0000 0.27916  0.53525  0.80068  Biso   1.000  P
  P11      1.0000 0.29294  0.35058  0.98559  Biso   1.000  P
  P12      1.0000 0.46815  0.34466  0.97854  Biso   1.000  P
  P13      1.0000 0.72941  0.09895  0.24975  Biso   1.000  P
  P14      1.0000 0.72084  0.96475  0.30068  Biso   1.000  P
  P15      1.0000 0.70706  0.14942  0.48559  Biso   1.000  P
  P16      1.0000 0.53185  0.15534  0.47854  Biso   1.000  P
  P17      1.0000 0.22941  0.40105  0.24975  Biso   1.000  P
  P18      1.0000 0.22084  0.53525  0.30068  Biso   1.000  P
  P19      1.0000 0.20706  0.35058  0.48559  Biso   1.000  P
  P20      1.0000 0.03185  0.34466  0.47854  Biso   1.000  P
  P21      1.0000 0.77059  0.09895  0.74975  Biso   1.000  P
  P22      1.0000 0.77916  0.96475  0.80068  Biso   1.000  P
  P23      1.0000 0.79294  0.14942  0.98559  Biso   1.000  P
  P24      1.0000 0.96815  0.15534  0.97854  Biso   1.000  P
  P25      1.0000 0.72941  0.59895  0.25025  Biso   1.000  P
  P26      1.0000 0.72084  0.46475  0.19932  Biso   1.000  P
  P27      1.0000 0.70706  0.64942  0.01441  Biso   1.000  P
  P28      1.0000 0.53185  0.65534  0.02146  Biso   1.000  P
  P29      1.0000 0.27059  0.90105  0.75025  Biso   1.000  P
  P30      1.0000 0.27916  0.03525  0.69932  Biso   1.000  P
  P31      1.0000 0.29294  0.85058  0.51441  Biso   1.000  P
  P32      1.0000 0.46815  0.84466  0.52146  Biso   1.000  P
  H1       1.0000 0.62510  0.51910  0.67840  Biso   1.000  H
  H2       1.0000 0.61070  0.58370  0.70840  Biso   1.000  H
  H3       1.0000 0.69910  0.65270  0.67080  Biso   1.000  H
  H4       1.0000 0.72430  0.58740  0.64320  Biso   1.000  H
  H5       1.0000 0.60330  0.58330  0.61110  Biso   1.000  H
  H6       1.0000 0.56990  0.64060  0.64210  Biso   1.000  H
  H7       1.0000 0.68760  0.67110  0.58660  Biso   1.000  H
  H8       1.0000 0.64510  0.72280  0.61170  Biso   1.000  H
  H9       1.0000 0.58240  0.65150  0.54470  Biso   1.000  H
  H10      1.0000 0.60350  0.73230  0.54460  Biso   1.000  H
  H11      1.0000 0.53410  0.70460  0.57250  Biso   1.000  H
  H12      1.0000 0.84870  0.49860  0.49910  Biso   1.000  H
  H13      1.0000 0.93740  0.50600  0.51070  Biso   1.000  H
  H14      1.0000 0.89540  0.54450  0.58000  Biso   1.000  H
  H15      1.0000 0.81090  0.52010  0.56720  Biso   1.000  H
  H16      1.0000 0.94140  0.43020  0.57670  Biso   1.000  H
  H17      1.0000 0.86760  0.43120  0.60620  Biso   1.000  H
  H18      1.0000 0.87330  0.38010  0.52580  Biso   1.000  H
  H19      1.0000 0.79800  0.39680  0.54460  Biso   1.000  H
  H20      1.0000 0.89570  0.29450  0.57570  Biso   1.000  H
  H21      1.0000 0.82030  0.27830  0.54910  Biso   1.000  H
  H22      1.0000 0.81260  0.31130  0.59430  Biso   1.000  H
  H23      1.0000 0.37490  0.98090  0.17840  Biso   1.000  H
  H24      1.0000 0.38930  0.91630  0.20840  Biso   1.000  H
  H25      1.0000 0.30090  0.84730  0.17080  Biso   1.000  H
  H26      1.0000 0.27570  0.91260  0.14320  Biso   1.000  H
  H27      1.0000 0.39670  0.91670  0.11110  Biso   1.000  H
  H28      1.0000 0.43010  0.85940  0.14210  Biso   1.000  H
  H29      1.0000 0.31240  0.82890  0.08660  Biso   1.000  H
  H30      1.0000 0.35490  0.77720  0.11170  Biso   1.000  H
  H31      1.0000 0.41760  0.84850  0.04470  Biso   1.000  H
  H32      1.0000 0.39650  0.76770  0.04460  Biso   1.000  H
  H33      1.0000 0.46590  0.79540  0.07250  Biso   1.000  H
  H34      1.0000 0.15130  0.00140  0.99910  Biso   1.000  H
  H35      1.0000 0.06260  0.99400  0.01070  Biso   1.000  H
  H36      1.0000 0.10460  0.95550  0.08000  Biso   1.000  H
  H37      1.0000 0.18910  0.97990  0.06720  Biso   1.000  H
  H38      1.0000 0.05860  0.06980  0.07670  Biso   1.000  H
  H39      1.0000 0.13240  0.06880  0.10620  Biso   1.000  H
  H40      1.0000 0.12670  0.11990  0.02580  Biso   1.000  H
  H41      1.0000 0.20200  0.10320  0.04460  Biso   1.000  H
  H42      1.0000 0.10430  0.20550  0.07570  Biso   1.000  H
  H43      1.0000 0.17970  0.22170  0.04910  Biso   1.000  H
  H44      1.0000 0.18740  0.18870  0.09430  Biso   1.000  H
  H45      1.0000 0.12510  0.48090  0.82160  Biso   1.000  H
  H46      1.0000 0.11070  0.41630  0.79160  Biso   1.000  H
  H47      1.0000 0.19910  0.34730  0.82920  Biso   1.000  H
  H48      1.0000 0.22430  0.41260  0.85680  Biso   1.000  H
  H49      1.0000 0.10330  0.41670  0.88890  Biso   1.000  H
  H50      1.0000 0.06990  0.35940  0.85790  Biso   1.000  H
  H51      1.0000 0.18760  0.32890  0.91340  Biso   1.000  H
  H52      1.0000 0.14510  0.27720  0.88830  Biso   1.000  H
  H53      1.0000 0.08240  0.34850  0.95530  Biso   1.000  H
  H54      1.0000 0.10350  0.26770  0.95540  Biso   1.000  H
  H55      1.0000 0.03410  0.29540  0.92750  Biso   1.000  H
  H56      1.0000 0.34870  0.50140  0.00090  Biso   1.000  H
  H57      1.0000 0.43740  0.49400  0.98930  Biso   1.000  H
  H58      1.0000 0.39540  0.45550  0.92000  Biso   1.000  H
  H59      1.0000 0.31090  0.47990  0.93280  Biso   1.000  H
  H60      1.0000 0.44140  0.56980  0.92330  Biso   1.000  H
  H61      1.0000 0.36760  0.56880  0.89380  Biso   1.000  H
  H62      1.0000 0.37330  0.61990  0.97420  Biso   1.000  H
  H63      1.0000 0.29800  0.60320  0.95540  Biso   1.000  H
  H64      1.0000 0.39570  0.70550  0.92430  Biso   1.000  H
  H65      1.0000 0.32030  0.72170  0.95090  Biso   1.000  H
  H66      1.0000 0.31260  0.68870  0.90570  Biso   1.000  H
  H67      1.0000 0.87490  0.01910  0.32160  Biso   1.000  H
  H68      1.0000 0.88930  0.08370  0.29160  Biso   1.000  H
  H69      1.0000 0.80090  0.15270  0.32920  Biso   1.000  H
  H70      1.0000 0.77570  0.08740  0.35680  Biso   1.000  H
  H71      1.0000 0.89670  0.08330  0.38890  Biso   1.000  H
  H72      1.0000 0.93010  0.14060  0.35790  Biso   1.000  H
  H73      1.0000 0.81240  0.17110  0.41340  Biso   1.000  H
  H74      1.0000 0.85490  0.22280  0.38830  Biso   1.000  H
  H75      1.0000 0.91760  0.15150  0.45530  Biso   1.000  H
  H76      1.0000 0.89650  0.23230  0.45540  Biso   1.000  H
  H77      1.0000 0.96590  0.20460  0.42750  Biso   1.000  H
  H78      1.0000 0.65130  0.99860  0.50090  Biso   1.000  H
  H79      1.0000 0.56260  0.00600  0.48930  Biso   1.000  H
  H80      1.0000 0.60460  0.04450  0.42000  Biso   1.000  H
  H81      1.0000 0.68910  0.02010  0.43280  Biso   1.000  H
  H82      1.0000 0.55860  0.93020  0.42330  Biso   1.000  H
  H83      1.0000 0.63240  0.93120  0.39380  Biso   1.000  H
  H84      1.0000 0.62670  0.88010  0.47420  Biso   1.000  H
  H85      1.0000 0.70200  0.89680  0.45540  Biso   1.000  H
  H86      1.0000 0.60430  0.79450  0.42430  Biso   1.000  H
  H87      1.0000 0.67970  0.77830  0.45090  Biso   1.000  H
  H88      1.0000 0.68740  0.81130  0.40570  Biso   1.000  H
  H89      1.0000 0.37490  0.48090  0.32160  Biso   1.000  H
  H90      1.0000 0.38930  0.41630  0.29160  Biso   1.000  H
  H91      1.0000 0.30090  0.34730  0.32920  Biso   1.000  H
  H92      1.0000 0.27570  0.41260  0.35680  Biso   1.000  H
  H93      1.0000 0.39670  0.41670  0.38890  Biso   1.000  H
  H94      1.0000 0.43010  0.35940  0.35790  Biso   1.000  H
  H95      1.0000 0.31240  0.32890  0.41340  Biso   1.000  H
  H96      1.0000 0.35490  0.27720  0.38830  Biso   1.000  H
  H97      1.0000 0.41760  0.34850  0.45530  Biso   1.000  H
  H98      1.0000 0.39650  0.26770  0.45540  Biso   1.000  H
  H99      1.0000 0.46590  0.29540  0.42750  Biso   1.000  H
  H100     1.0000 0.15130  0.50140  0.50090  Biso   1.000  H
  H101     1.0000 0.06260  0.49400  0.48930  Biso   1.000  H
  H102     1.0000 0.10460  0.45550  0.42000  Biso   1.000  H
  H103     1.0000 0.18910  0.47990  0.43280  Biso   1.000  H
  H104     1.0000 0.05860  0.56980  0.42330  Biso   1.000  H
  H105     1.0000 0.13240  0.56880  0.39380  Biso   1.000  H
  H106     1.0000 0.12670  0.61990  0.47420  Biso   1.000  H
  H107     1.0000 0.20200  0.60320  0.45540  Biso   1.000  H
  H108     1.0000 0.10430  0.70550  0.42430  Biso   1.000  H
  H109     1.0000 0.17970  0.72170  0.45090  Biso   1.000  H
  H110     1.0000 0.18740  0.68870  0.40570  Biso   1.000  H
  H111     1.0000 0.62510  0.01910  0.82160  Biso   1.000  H
  H112     1.0000 0.61070  0.08370  0.79160  Biso   1.000  H
  H113     1.0000 0.69910  0.15270  0.82920  Biso   1.000  H
  H114     1.0000 0.72430  0.08740  0.85680  Biso   1.000  H
  H115     1.0000 0.60330  0.08330  0.88890  Biso   1.000  H
  H116     1.0000 0.56990  0.14060  0.85790  Biso   1.000  H
  H117     1.0000 0.68760  0.17110  0.91340  Biso   1.000  H
  H118     1.0000 0.64510  0.22280  0.88830  Biso   1.000  H
  H119     1.0000 0.58240  0.15150  0.95530  Biso   1.000  H
  H120     1.0000 0.60350  0.23230  0.95540  Biso   1.000  H
  H121     1.0000 0.53410  0.20460  0.92750  Biso   1.000  H
  H122     1.0000 0.84870  0.99860  0.00090  Biso   1.000  H
  H123     1.0000 0.93740  0.00600  0.98930  Biso   1.000  H
  H124     1.0000 0.89540  0.04450  0.92000  Biso   1.000  H
  H125     1.0000 0.81090  0.02010  0.93280  Biso   1.000  H
  H126     1.0000 0.94140  0.93020  0.92330  Biso   1.000  H
  H127     1.0000 0.86760  0.93120  0.89380  Biso   1.000  H
  H128     1.0000 0.87330  0.88010  0.97420  Biso   1.000  H
  H129     1.0000 0.79800  0.89680  0.95540  Biso   1.000  H
  H130     1.0000 0.89570  0.79450  0.92430  Biso   1.000  H
  H131     1.0000 0.82030  0.77830  0.95090  Biso   1.000  H
  H132     1.0000 0.81260  0.81130  0.90570  Biso   1.000  H
  H133     1.0000 0.87490  0.51910  0.17840  Biso   1.000  H
  H134     1.0000 0.88930  0.58370  0.20840  Biso   1.000  H
  H135     1.0000 0.80090  0.65270  0.17080  Biso   1.000  H
  H136     1.0000 0.77570  0.58740  0.14320  Biso   1.000  H
  H137     1.0000 0.89670  0.58330  0.11110  Biso   1.000  H
  H138     1.0000 0.93010  0.64060  0.14210  Biso   1.000  H
  H139     1.0000 0.81240  0.67110  0.08660  Biso   1.000  H
  H140     1.0000 0.85490  0.72280  0.11170  Biso   1.000  H
  H141     1.0000 0.91760  0.65150  0.04470  Biso   1.000  H
  H142     1.0000 0.89650  0.73230  0.04460  Biso   1.000  H
  H143     1.0000 0.96590  0.70460  0.07250  Biso   1.000  H
  H144     1.0000 0.65130  0.49860  0.99910  Biso   1.000  H
  H145     1.0000 0.56260  0.50600  0.01070  Biso   1.000  H
  H146     1.0000 0.60460  0.54450  0.08000  Biso   1.000  H
  H147     1.0000 0.68910  0.52010  0.06720  Biso   1.000  H
  H148     1.0000 0.55860  0.43020  0.07670  Biso   1.000  H
  H149     1.0000 0.63240  0.43120  0.10620  Biso   1.000  H
  H150     1.0000 0.62670  0.38010  0.02580  Biso   1.000  H
  H151     1.0000 0.70200  0.39680  0.04460  Biso   1.000  H
  H152     1.0000 0.60430  0.29450  0.07570  Biso   1.000  H
  H153     1.0000 0.67970  0.27830  0.04910  Biso   1.000  H
  H154     1.0000 0.68740  0.31130  0.09430  Biso   1.000  H
  H155     1.0000 0.12510  0.98090  0.67840  Biso   1.000  H
  H156     1.0000 0.11070  0.91630  0.70840  Biso   1.000  H
  H157     1.0000 0.19910  0.84730  0.67080  Biso   1.000  H
  H158     1.0000 0.22430  0.91260  0.64320  Biso   1.000  H
  H159     1.0000 0.10330  0.91670  0.61110  Biso   1.000  H
  H160     1.0000 0.06990  0.85940  0.64210  Biso   1.000  H
  H161     1.0000 0.18760  0.82890  0.58660  Biso   1.000  H
  H162     1.0000 0.14510  0.77720  0.61170  Biso   1.000  H
  H163     1.0000 0.08240  0.84850  0.54470  Biso   1.000  H
  H164     1.0000 0.10350  0.76770  0.54460  Biso   1.000  H
  H165     1.0000 0.03410  0.79540  0.57250  Biso   1.000  H
  H166     1.0000 0.34870  0.00140  0.49910  Biso   1.000  H
  H167     1.0000 0.43740  0.99400  0.51070  Biso   1.000  H
  H168     1.0000 0.39540  0.95550  0.58000  Biso   1.000  H
  H169     1.0000 0.31090  0.97990  0.56720  Biso   1.000  H
  H170     1.0000 0.44140  0.06980  0.57670  Biso   1.000  H
  H171     1.0000 0.36760  0.06880  0.60620  Biso   1.000  H
  H172     1.0000 0.37330  0.11990  0.52580  Biso   1.000  H
  H173     1.0000 0.29800  0.10320  0.54460  Biso   1.000  H
  H174     1.0000 0.39570  0.20550  0.57570  Biso   1.000  H
  H175     1.0000 0.32030  0.22170  0.54910  Biso   1.000  H
  H176     1.0000 0.31260  0.18870  0.59430  Biso   1.000  H
  C1       1.0000 0.71290  0.53100  0.72227  Biso   1.000  C
  C2       1.0000 0.65030  0.55910  0.69199  Biso   1.000  C
  C3       1.0000 0.68060  0.60920  0.65785  Biso   1.000  C
  C4       1.0000 0.61640  0.62570  0.62688  Biso   1.000  C
  C5       1.0000 0.58520  0.69360  0.56162  Biso   1.000  C
  C6       1.0000 0.88370  0.60244  0.50278  Biso   1.000  C
  C7       1.0000 0.88560  0.52479  0.51642  Biso   1.000  C
  C8       1.0000 0.86630  0.51120  0.56275  Biso   1.000  C
  C9       1.0000 0.88510  0.43700  0.57729  Biso   1.000  C
  C10      1.0000 0.84360  0.31030  0.56903  Biso   1.000  C
  C11      1.0000 0.28710  0.96900  0.22227  Biso   1.000  C
  C12      1.0000 0.34970  0.94090  0.19199  Biso   1.000  C
  C13      1.0000 0.31940  0.89080  0.15785  Biso   1.000  C
  C14      1.0000 0.38360  0.87430  0.12688  Biso   1.000  C
  C15      1.0000 0.41480  0.80640  0.06162  Biso   1.000  C
  C16      1.0000 0.11630  0.89756  0.00278  Biso   1.000  C
  C17      1.0000 0.11440  0.97521  0.01642  Biso   1.000  C
  C18      1.0000 0.13370  0.98880  0.06275  Biso   1.000  C
  C19      1.0000 0.11490  0.06300  0.07729  Biso   1.000  C
  C20      1.0000 0.15640  0.18970  0.06903  Biso   1.000  C
  C21      1.0000 0.21290  0.46900  0.77773  Biso   1.000  C
  C22      1.0000 0.15030  0.44090  0.80801  Biso   1.000  C
  C23      1.0000 0.18060  0.39080  0.84215  Biso   1.000  C
  C24      1.0000 0.11640  0.37430  0.87312  Biso   1.000  C
  C25      1.0000 0.08520  0.30640  0.93838  Biso   1.000  C
  C26      1.0000 0.38370  0.39756  0.99722  Biso   1.000  C
  C27      1.0000 0.38560  0.47521  0.98358  Biso   1.000  C
  C28      1.0000 0.36630  0.48880  0.93725  Biso   1.000  C
  C29      1.0000 0.38510  0.56300  0.92271  Biso   1.000  C
  C30      1.0000 0.34360  0.68970  0.93097  Biso   1.000  C
  C31      1.0000 0.78710  0.03100  0.27773  Biso   1.000  C
  C32      1.0000 0.84970  0.05910  0.30801  Biso   1.000  C
  C33      1.0000 0.81940  0.10920  0.34215  Biso   1.000  C
  C34      1.0000 0.88360  0.12570  0.37312  Biso   1.000  C
  C35      1.0000 0.91480  0.19360  0.43838  Biso   1.000  C
  C36      1.0000 0.61630  0.10244  0.49722  Biso   1.000  C
  C37      1.0000 0.61440  0.02479  0.48358  Biso   1.000  C
  C38      1.0000 0.63370  0.01120  0.43725  Biso   1.000  C
  C39      1.0000 0.61490  0.93700  0.42271  Biso   1.000  C
  C40      1.0000 0.65640  0.81030  0.43097  Biso   1.000  C
  C41      1.0000 0.28710  0.46900  0.27773  Biso   1.000  C
  C42      1.0000 0.34970  0.44090  0.30801  Biso   1.000  C
  C43      1.0000 0.31940  0.39080  0.34215  Biso   1.000  C
  C44      1.0000 0.38360  0.37430  0.37312  Biso   1.000  C
  C45      1.0000 0.41480  0.30640  0.43838  Biso   1.000  C
  C46      1.0000 0.11630  0.39756  0.49722  Biso   1.000  C
  C47      1.0000 0.11440  0.47521  0.48358  Biso   1.000  C
  C48      1.0000 0.13370  0.48880  0.43725  Biso   1.000  C
  C49      1.0000 0.11490  0.56300  0.42271  Biso   1.000  C
  C50      1.0000 0.15640  0.68970  0.43097  Biso   1.000  C
  C51      1.0000 0.71290  0.03100  0.77773  Biso   1.000  C
  C52      1.0000 0.65030  0.05910  0.80801  Biso   1.000  C
  C53      1.0000 0.68060  0.10920  0.84215  Biso   1.000  C
  C54      1.0000 0.61640  0.12570  0.87312  Biso   1.000  C
  C55      1.0000 0.58520  0.19360  0.93838  Biso   1.000  C
  C56      1.0000 0.88370  0.10244  0.99722  Biso   1.000  C
  C57      1.0000 0.88560  0.02479  0.98358  Biso   1.000  C
  C58      1.0000 0.86630  0.01120  0.93725  Biso   1.000  C
  C59      1.0000 0.88510  0.93700  0.92271  Biso   1.000  C
  C60      1.0000 0.84360  0.81030  0.93097  Biso   1.000  C
  C61      1.0000 0.78710  0.53100  0.22227  Biso   1.000  C
  C62      1.0000 0.84970  0.55910  0.19199  Biso   1.000  C
  C63      1.0000 0.81940  0.60920  0.15785  Biso   1.000  C
  C64      1.0000 0.88360  0.62570  0.12688  Biso   1.000  C
  C65      1.0000 0.91480  0.69360  0.06162  Biso   1.000  C
  C66      1.0000 0.61630  0.60244  0.00278  Biso   1.000  C
  C67      1.0000 0.61440  0.52479  0.01642  Biso   1.000  C
  C68      1.0000 0.63370  0.51120  0.06275  Biso   1.000  C
  C69      1.0000 0.61490  0.43700  0.07729  Biso   1.000  C
  C70      1.0000 0.65640  0.31030  0.06903  Biso   1.000  C
  C71      1.0000 0.21290  0.96900  0.72227  Biso   1.000  C
  C72      1.0000 0.15030  0.94090  0.69199  Biso   1.000  C
  C73      1.0000 0.18060  0.89080  0.65785  Biso   1.000  C
  C74      1.0000 0.11640  0.87430  0.62688  Biso   1.000  C
  C75      1.0000 0.08520  0.80640  0.56162  Biso   1.000  C
  C76      1.0000 0.38370  0.89756  0.50278  Biso   1.000  C
  C77      1.0000 0.38560  0.97521  0.51642  Biso   1.000  C
  C78      1.0000 0.36630  0.98880  0.56275  Biso   1.000  C
  C79      1.0000 0.38510  0.06300  0.57729  Biso   1.000  C
  C80      1.0000 0.34360  0.18970  0.56903  Biso   1.000  C
  N1       1.0000 0.64019  0.68206  0.59720  Biso   1.000  N
  N2       1.0000 0.84720  0.38254  0.55044  Biso   1.000  N
  N3       1.0000 0.35981  0.81794  0.09720  Biso   1.000  N
  N4       1.0000 0.15280  0.11746  0.05044  Biso   1.000  N
  N5       1.0000 0.14019  0.31794  0.90280  Biso   1.000  N
  N6       1.0000 0.34720  0.61746  0.94956  Biso   1.000  N
  N7       1.0000 0.85981  0.18206  0.40280  Biso   1.000  N
  N8       1.0000 0.65280  0.88254  0.44956  Biso   1.000  N
  N9       1.0000 0.35981  0.31794  0.40280  Biso   1.000  N
  N10      1.0000 0.15280  0.61746  0.44956  Biso   1.000  N
  N11      1.0000 0.64019  0.18206  0.90280  Biso   1.000  N
  N12      1.0000 0.84720  0.88254  0.94956  Biso   1.000  N
  N13      1.0000 0.85981  0.68206  0.09720  Biso   1.000  N
  N14      1.0000 0.65280  0.38254  0.05044  Biso   1.000  N
  N15      1.0000 0.14019  0.81794  0.59720  Biso   1.000  N
  N16      1.0000 0.34720  0.11746  0.55044  Biso   1.000  N
  O1       1.0000 0.69110  0.48530  0.84209  Biso   1.000  O
  O2       1.0000 0.70050  0.36390  0.79635  Biso   1.000  O
  O3       1.0000 0.83863  0.43228  0.81926  Biso   1.000  O
  O4       1.0000 0.67376  0.49345  0.75584  Biso   1.000  O
  O5       1.0000 0.81653  0.43411  0.74052  Biso   1.000  O
  O6       1.0000 0.80872  0.55217  0.78538  Biso   1.000  O
  O7       1.0000 0.96540  0.52100  0.81944  Biso   1.000  O
  O8       1.0000 0.97108  0.40025  0.77293  Biso   1.000  O
  O9       1.0000 0.94521  0.52817  0.73359  Biso   1.000  O
  O10      1.0000 0.98935  0.53613  0.64984  Biso   1.000  O
  O11      1.0000 0.98190  0.65349  0.69740  Biso   1.000  O
  O12      1.0000 0.87202  0.63445  0.63704  Biso   1.000  O
  O13      1.0000 0.83914  0.50210  0.67176  Biso   1.000  O
  O14      1.0000 0.83171  0.62959  0.72059  Biso   1.000  O
  O15      1.0000 0.94131  0.26419  0.86538  Biso   1.000  O
  O16      1.0000 0.78593  0.25703  0.87199  Biso   1.000  O
  O17      1.0000 0.87248  0.79002  0.55745  Biso   1.000  O
  O18      1.0000 0.95632  0.67104  0.56792  Biso   1.000  O
  O19      1.0000 0.78916  0.66598  0.56115  Biso   1.000  O
  O20      1.0000 0.79670  0.87096  0.49768  Biso   1.000  O
  O21      1.0000 0.95420  0.87446  0.50198  Biso   1.000  O
  O22      1.0000 0.61455  0.79588  0.93919  Biso   1.000  O
  O23      1.0000 0.95941  0.72187  0.49289  Biso   1.000  O
  O24      1.0000 0.80488  0.71740  0.48726  Biso   1.000  O
  O25      1.0000 0.68410  0.68470  0.89448  Biso   1.000  O
  O26      1.0000 0.52870  0.68910  0.89893  Biso   1.000  O
  O27      1.0000 0.89073  0.60603  0.45732  Biso   1.000  O
  O28      1.0000 0.71783  0.65396  0.76956  Biso   1.000  O
  O29      1.0000 0.73220  0.40868  0.67745  Biso   1.000  O
  O30      1.0000 0.72421  0.60694  0.49915  Biso   1.000  O
  O31      1.0000 0.04430  0.61785  0.51306  Biso   1.000  O
  O32      1.0000 0.59190  0.73310  0.74538  Biso   1.000  O
  O33      1.0000 0.45160  0.74970  0.81910  Biso   1.000  O
  O34      1.0000 0.30890  0.01470  0.34209  Biso   1.000  O
  O35      1.0000 0.29950  0.13610  0.29635  Biso   1.000  O
  O36      1.0000 0.16137  0.06772  0.31926  Biso   1.000  O
  O37      1.0000 0.32624  0.00655  0.25584  Biso   1.000  O
  O38      1.0000 0.18347  0.06589  0.24052  Biso   1.000  O
  O39      1.0000 0.19128  0.94783  0.28538  Biso   1.000  O
  O40      1.0000 0.03460  0.97900  0.31944  Biso   1.000  O
  O41      1.0000 0.02892  0.09975  0.27293  Biso   1.000  O
  O42      1.0000 0.05479  0.97183  0.23359  Biso   1.000  O
  O43      1.0000 0.01065  0.96387  0.14984  Biso   1.000  O
  O44      1.0000 0.01810  0.84651  0.19740  Biso   1.000  O
  O45      1.0000 0.12798  0.86555  0.13704  Biso   1.000  O
  O46      1.0000 0.16086  0.99790  0.17176  Biso   1.000  O
  O47      1.0000 0.16829  0.87041  0.22059  Biso   1.000  O
  O48      1.0000 0.05869  0.23581  0.36538  Biso   1.000  O
  O49      1.0000 0.21407  0.24297  0.37199  Biso   1.000  O
  O50      1.0000 0.12752  0.70998  0.05745  Biso   1.000  O
  O51      1.0000 0.04368  0.82896  0.06792  Biso   1.000  O
  O52      1.0000 0.21084  0.83402  0.06115  Biso   1.000  O
  O53      1.0000 0.20330  0.62904  0.99768  Biso   1.000  O
  O54      1.0000 0.04580  0.62554  0.00198  Biso   1.000  O
  O55      1.0000 0.38545  0.70412  0.43919  Biso   1.000  O
  O56      1.0000 0.04059  0.77813  0.99289  Biso   1.000  O
  O57      1.0000 0.19512  0.78260  0.98726  Biso   1.000  O
  O58      1.0000 0.31590  0.81530  0.39448  Biso   1.000  O
  O59      1.0000 0.47130  0.81090  0.39893  Biso   1.000  O
  O60      1.0000 0.10927  0.89397  0.95732  Biso   1.000  O
  O61      1.0000 0.28217  0.84604  0.26956  Biso   1.000  O
  O62      1.0000 0.26780  0.09132  0.17745  Biso   1.000  O
  O63      1.0000 0.27579  0.89306  0.99915  Biso   1.000  O
  O64      1.0000 0.95570  0.88215  0.01306  Biso   1.000  O
  O65      1.0000 0.40810  0.76690  0.24538  Biso   1.000  O
  O66      1.0000 0.54840  0.75030  0.31910  Biso   1.000  O
  O67      1.0000 0.19110  0.51470  0.65791  Biso   1.000  O
  O68      1.0000 0.20050  0.63610  0.70365  Biso   1.000  O
  O69      1.0000 0.33863  0.56772  0.68074  Biso   1.000  O
  O70      1.0000 0.17376  0.50655  0.74416  Biso   1.000  O
  O71      1.0000 0.31653  0.56589  0.75948  Biso   1.000  O
  O72      1.0000 0.30872  0.44783  0.71462  Biso   1.000  O
  O73      1.0000 0.46540  0.47900  0.68056  Biso   1.000  O
  O74      1.0000 0.47108  0.59975  0.72707  Biso   1.000  O
  O75      1.0000 0.44521  0.47183  0.76641  Biso   1.000  O
  O76      1.0000 0.48935  0.46387  0.85016  Biso   1.000  O
  O77      1.0000 0.48190  0.34651  0.80260  Biso   1.000  O
  O78      1.0000 0.37202  0.36555  0.86296  Biso   1.000  O
  O79      1.0000 0.33914  0.49790  0.82824  Biso   1.000  O
  O80      1.0000 0.33171  0.37041  0.77941  Biso   1.000  O
  O81      1.0000 0.44131  0.73581  0.63462  Biso   1.000  O
  O82      1.0000 0.28593  0.74297  0.62801  Biso   1.000  O
  O83      1.0000 0.37248  0.20998  0.94255  Biso   1.000  O
  O84      1.0000 0.45632  0.32896  0.93208  Biso   1.000  O
  O85      1.0000 0.28916  0.33402  0.93885  Biso   1.000  O
  O86      1.0000 0.29670  0.12904  0.00232  Biso   1.000  O
  O87      1.0000 0.45420  0.12554  0.99802  Biso   1.000  O
  O88      1.0000 0.11455  0.20412  0.56081  Biso   1.000  O
  O89      1.0000 0.45941  0.27813  0.00711  Biso   1.000  O
  O90      1.0000 0.30488  0.28260  0.01274  Biso   1.000  O
  O91      1.0000 0.18410  0.31530  0.60552  Biso   1.000  O
  O92      1.0000 0.02870  0.31090  0.60107  Biso   1.000  O
  O93      1.0000 0.39073  0.39397  0.04268  Biso   1.000  O
  O94      1.0000 0.21783  0.34604  0.73044  Biso   1.000  O
  O95      1.0000 0.23220  0.59132  0.82255  Biso   1.000  O
  O96      1.0000 0.22421  0.39306  0.00085  Biso   1.000  O
  O97      1.0000 0.54430  0.38215  0.98694  Biso   1.000  O
  O98      1.0000 0.09190  0.26690  0.75462  Biso   1.000  O
  O99      1.0000 0.95160  0.25030  0.68090  Biso   1.000  O
  O100     1.0000 0.80890  0.98530  0.15791  Biso   1.000  O
  O101     1.0000 0.79950  0.86390  0.20365  Biso   1.000  O
  O102     1.0000 0.66137  0.93228  0.18074  Biso   1.000  O
  O103     1.0000 0.82624  0.99345  0.24416  Biso   1.000  O
  O104     1.0000 0.68347  0.93411  0.25948  Biso   1.000  O
  O105     1.0000 0.69128  0.05217  0.21462  Biso   1.000  O
  O106     1.0000 0.53460  0.02100  0.18056  Biso   1.000  O
  O107     1.0000 0.52892  0.90025  0.22707  Biso   1.000  O
  O108     1.0000 0.55479  0.02817  0.26641  Biso   1.000  O
  O109     1.0000 0.51065  0.03613  0.35016  Biso   1.000  O
  O110     1.0000 0.51810  0.15349  0.30260  Biso   1.000  O
  O111     1.0000 0.62798  0.13445  0.36296  Biso   1.000  O
  O112     1.0000 0.66086  0.00210  0.32824  Biso   1.000  O
  O113     1.0000 0.66829  0.12959  0.27941  Biso   1.000  O
  O114     1.0000 0.55869  0.76419  0.13462  Biso   1.000  O
  O115     1.0000 0.71407  0.75703  0.12801  Biso   1.000  O
  O116     1.0000 0.62752  0.29002  0.44255  Biso   1.000  O
  O117     1.0000 0.54368  0.17104  0.43208  Biso   1.000  O
  O118     1.0000 0.71084  0.16598  0.43885  Biso   1.000  O
  O119     1.0000 0.70330  0.37096  0.50232  Biso   1.000  O
  O120     1.0000 0.54580  0.37446  0.49802  Biso   1.000  O
  O121     1.0000 0.88545  0.29588  0.06081  Biso   1.000  O
  O122     1.0000 0.54059  0.22187  0.50711  Biso   1.000  O
  O123     1.0000 0.69512  0.21740  0.51274  Biso   1.000  O
  O124     1.0000 0.81590  0.18470  0.10552  Biso   1.000  O
  O125     1.0000 0.97130  0.18910  0.10107  Biso   1.000  O
  O126     1.0000 0.60927  0.10603  0.54268  Biso   1.000  O
  O127     1.0000 0.78217  0.15396  0.23044  Biso   1.000  O
  O128     1.0000 0.76780  0.90868  0.32255  Biso   1.000  O
  O129     1.0000 0.77579  0.10694  0.50085  Biso   1.000  O
  O130     1.0000 0.45570  0.11785  0.48694  Biso   1.000  O
  O131     1.0000 0.90810  0.23310  0.25462  Biso   1.000  O
  O132     1.0000 0.04840  0.24970  0.18090  Biso   1.000  O
  O133     1.0000 0.30890  0.51470  0.15791  Biso   1.000  O
  O134     1.0000 0.29950  0.63610  0.20365  Biso   1.000  O
  O135     1.0000 0.16137  0.56772  0.18074  Biso   1.000  O
  O136     1.0000 0.32624  0.50655  0.24416  Biso   1.000  O
  O137     1.0000 0.18347  0.56589  0.25948  Biso   1.000  O
  O138     1.0000 0.19128  0.44783  0.21462  Biso   1.000  O
  O139     1.0000 0.03460  0.47900  0.18056  Biso   1.000  O
  O140     1.0000 0.02892  0.59975  0.22707  Biso   1.000  O
  O141     1.0000 0.05479  0.47183  0.26641  Biso   1.000  O
  O142     1.0000 0.01065  0.46387  0.35016  Biso   1.000  O
  O143     1.0000 0.01810  0.34651  0.30260  Biso   1.000  O
  O144     1.0000 0.12798  0.36555  0.36296  Biso   1.000  O
  O145     1.0000 0.16086  0.49790  0.32824  Biso   1.000  O
  O146     1.0000 0.16829  0.37041  0.27941  Biso   1.000  O
  O147     1.0000 0.05869  0.73581  0.13462  Biso   1.000  O
  O148     1.0000 0.21407  0.74297  0.12801  Biso   1.000  O
  O149     1.0000 0.12752  0.20998  0.44255  Biso   1.000  O
  O150     1.0000 0.04368  0.32896  0.43208  Biso   1.000  O
  O151     1.0000 0.21084  0.33402  0.43885  Biso   1.000  O
  O152     1.0000 0.20330  0.12904  0.50232  Biso   1.000  O
  O153     1.0000 0.04580  0.12554  0.49802  Biso   1.000  O
  O154     1.0000 0.38545  0.20412  0.06081  Biso   1.000  O
  O155     1.0000 0.04059  0.27813  0.50711  Biso   1.000  O
  O156     1.0000 0.19512  0.28260  0.51274  Biso   1.000  O
  O157     1.0000 0.31590  0.31530  0.10552  Biso   1.000  O
  O158     1.0000 0.47130  0.31090  0.10107  Biso   1.000  O
  O159     1.0000 0.10927  0.39397  0.54268  Biso   1.000  O
  O160     1.0000 0.28217  0.34604  0.23044  Biso   1.000  O
  O161     1.0000 0.26780  0.59132  0.32255  Biso   1.000  O
  O162     1.0000 0.27579  0.39306  0.50085  Biso   1.000  O
  O163     1.0000 0.95570  0.38215  0.48694  Biso   1.000  O
  O164     1.0000 0.40810  0.26690  0.25462  Biso   1.000  O
  O165     1.0000 0.54840  0.25030  0.18090  Biso   1.000  O
  O166     1.0000 0.69110  0.98530  0.65791  Biso   1.000  O
  O167     1.0000 0.70050  0.86390  0.70365  Biso   1.000  O
  O168     1.0000 0.83863  0.93228  0.68074  Biso   1.000  O
  O169     1.0000 0.67376  0.99345  0.74416  Biso   1.000  O
  O170     1.0000 0.81653  0.93411  0.75948  Biso   1.000  O
  O171     1.0000 0.80872  0.05217  0.71462  Biso   1.000  O
  O172     1.0000 0.96540  0.02100  0.68056  Biso   1.000  O
  O173     1.0000 0.97108  0.90025  0.72707  Biso   1.000  O
  O174     1.0000 0.94521  0.02817  0.76641  Biso   1.000  O
  O175     1.0000 0.98935  0.03613  0.85016  Biso   1.000  O
  O176     1.0000 0.98190  0.15349  0.80260  Biso   1.000  O
  O177     1.0000 0.87202  0.13445  0.86296  Biso   1.000  O
  O178     1.0000 0.83914  0.00210  0.82824  Biso   1.000  O
  O179     1.0000 0.83171  0.12959  0.77941  Biso   1.000  O
  O180     1.0000 0.94131  0.76419  0.63462  Biso   1.000  O
  O181     1.0000 0.78593  0.75703  0.62801  Biso   1.000  O
  O182     1.0000 0.87248  0.29002  0.94255  Biso   1.000  O
  O183     1.0000 0.95632  0.17104  0.93208  Biso   1.000  O
  O184     1.0000 0.78916  0.16598  0.93885  Biso   1.000  O
  O185     1.0000 0.79670  0.37096  0.00232  Biso   1.000  O
  O186     1.0000 0.95420  0.37446  0.99802  Biso   1.000  O
  O187     1.0000 0.61455  0.29588  0.56081  Biso   1.000  O
  O188     1.0000 0.95941  0.22187  0.00711  Biso   1.000  O
  O189     1.0000 0.80488  0.21740  0.01274  Biso   1.000  O
  O190     1.0000 0.68410  0.18470  0.60552  Biso   1.000  O
  O191     1.0000 0.52870  0.18910  0.60107  Biso   1.000  O
  O192     1.0000 0.89073  0.10603  0.04268  Biso   1.000  O
  O193     1.0000 0.71783  0.15396  0.73044  Biso   1.000  O
  O194     1.0000 0.73220  0.90868  0.82255  Biso   1.000  O
  O195     1.0000 0.72421  0.10694  0.00085  Biso   1.000  O
  O196     1.0000 0.04430  0.11785  0.98694  Biso   1.000  O
  O197     1.0000 0.59190  0.23310  0.75462  Biso   1.000  O
  O198     1.0000 0.45160  0.24970  0.68090  Biso   1.000  O
  O199     1.0000 0.80890  0.48530  0.34209  Biso   1.000  O
  O200     1.0000 0.79950  0.36390  0.29635  Biso   1.000  O
  O201     1.0000 0.66137  0.43228  0.31926  Biso   1.000  O
  O202     1.0000 0.82624  0.49345  0.25584  Biso   1.000  O
  O203     1.0000 0.68347  0.43411  0.24052  Biso   1.000  O
  O204     1.0000 0.69128  0.55217  0.28538  Biso   1.000  O
  O205     1.0000 0.53460  0.52100  0.31944  Biso   1.000  O
  O206     1.0000 0.52892  0.40025  0.27293  Biso   1.000  O
  O207     1.0000 0.55479  0.52817  0.23359  Biso   1.000  O
  O208     1.0000 0.51065  0.53613  0.14984  Biso   1.000  O
  O209     1.0000 0.51810  0.65349  0.19740  Biso   1.000  O
  O210     1.0000 0.62798  0.63445  0.13704  Biso   1.000  O
  O211     1.0000 0.66086  0.50210  0.17176  Biso   1.000  O
  O212     1.0000 0.66829  0.62959  0.22059  Biso   1.000  O
  O213     1.0000 0.55869  0.26419  0.36538  Biso   1.000  O
  O214     1.0000 0.71407  0.25703  0.37199  Biso   1.000  O
  O215     1.0000 0.62752  0.79002  0.05745  Biso   1.000  O
  O216     1.0000 0.54368  0.67104  0.06792  Biso   1.000  O
  O217     1.0000 0.71084  0.66598  0.06115  Biso   1.000  O
  O218     1.0000 0.70330  0.87096  0.99768  Biso   1.000  O
  O219     1.0000 0.54580  0.87446  0.00198  Biso   1.000  O
  O220     1.0000 0.88545  0.79588  0.43919  Biso   1.000  O
  O221     1.0000 0.54059  0.72187  0.99289  Biso   1.000  O
  O222     1.0000 0.69512  0.71740  0.98726  Biso   1.000  O
  O223     1.0000 0.81590  0.68470  0.39448  Biso   1.000  O
  O224     1.0000 0.97130  0.68910  0.39893  Biso   1.000  O
  O225     1.0000 0.60927  0.60603  0.95732  Biso   1.000  O
  O226     1.0000 0.78217  0.65396  0.26956  Biso   1.000  O
  O227     1.0000 0.76780  0.40868  0.17745  Biso   1.000  O
  O228     1.0000 0.77579  0.60694  0.99915  Biso   1.000  O
  O229     1.0000 0.45570  0.61785  0.01306  Biso   1.000  O
  O230     1.0000 0.90810  0.73310  0.24538  Biso   1.000  O
  O231     1.0000 0.04840  0.74970  0.31910  Biso   1.000  O
  O232     1.0000 0.19110  0.01470  0.84209  Biso   1.000  O
  O233     1.0000 0.20050  0.13610  0.79635  Biso   1.000  O
  O234     1.0000 0.33863  0.06772  0.81926  Biso   1.000  O
  O235     1.0000 0.17376  0.00655  0.75584  Biso   1.000  O
  O236     1.0000 0.31653  0.06589  0.74052  Biso   1.000  O
  O237     1.0000 0.30872  0.94783  0.78538  Biso   1.000  O
  O238     1.0000 0.46540  0.97900  0.81944  Biso   1.000  O
  O239     1.0000 0.47108  0.09975  0.77293  Biso   1.000  O
  O240     1.0000 0.44521  0.97183  0.73359  Biso   1.000  O
  O241     1.0000 0.48935  0.96387  0.64984  Biso   1.000  O
  O242     1.0000 0.48190  0.84651  0.69740  Biso   1.000  O
  O243     1.0000 0.37202  0.86555  0.63704  Biso   1.000  O
  O244     1.0000 0.33914  0.99790  0.67176  Biso   1.000  O
  O245     1.0000 0.33171  0.87041  0.72059  Biso   1.000  O
  O246     1.0000 0.44131  0.23581  0.86538  Biso   1.000  O
  O247     1.0000 0.28593  0.24297  0.87199  Biso   1.000  O
  O248     1.0000 0.37248  0.70998  0.55745  Biso   1.000  O
  O249     1.0000 0.45632  0.82896  0.56792  Biso   1.000  O
  O250     1.0000 0.28916  0.83402  0.56115  Biso   1.000  O
  O251     1.0000 0.29670  0.62904  0.49768  Biso   1.000  O
  O252     1.0000 0.45420  0.62554  0.50198  Biso   1.000  O
  O253     1.0000 0.11455  0.70412  0.93919  Biso   1.000  O
  O254     1.0000 0.45941  0.77813  0.49289  Biso   1.000  O
  O255     1.0000 0.30488  0.78260  0.48726  Biso   1.000  O
  O256     1.0000 0.18410  0.81530  0.89448  Biso   1.000  O
  O257     1.0000 0.02870  0.81090  0.89893  Biso   1.000  O
  O258     1.0000 0.39073  0.89397  0.45732  Biso   1.000  O
  O259     1.0000 0.21783  0.84604  0.76956  Biso   1.000  O
  O260     1.0000 0.23220  0.09132  0.67745  Biso   1.000  O
  O261     1.0000 0.22421  0.89306  0.49915  Biso   1.000  O
  O262     1.0000 0.54430  0.88215  0.51306  Biso   1.000  O
  O263     1.0000 0.09190  0.76690  0.74538  Biso   1.000  O
  O264     1.0000 0.95160  0.75030  0.81910  Biso   1.000  O
