data_image0
_cell_length_a       31.11
_cell_length_b       11.544
_cell_length_c       22.583
_cell_angle_alpha    90
_cell_angle_beta     112.419
_cell_angle_gamma    90

_symmetry_space_group_name_H-M    "P 1"
_symmetry_int_tables_number       1

loop_
  _symmetry_equiv_pos_as_xyz
  'x, y, z'

loop_
  _atom_site_label
  _atom_site_occupancy
  _atom_site_fract_x
  _atom_site_fract_y
  _atom_site_fract_z
  _atom_site_thermal_displace_type
  _atom_site_B_iso_or_equiv
  _atom_site_type_symbol
  Bi1      1.0000 0.62947  0.58191  0.90211  Biso   1.000  Bi
  Bi2      1.0000 0.70941  0.50772  0.69107  Biso   1.000  Bi
  Bi3      1.0000 0.54713  0.07801  0.89702  Biso   1.000  Bi
  O1       1.0000 0.55890  0.46140  0.88140  Biso   1.000  O
  O2       1.0000 0.64620  0.37500  0.91480  Biso   1.000  O
  O3       1.0000 0.53080  0.28280  0.87940  Biso   1.000  O
  O4       1.0000 0.61800  0.19800  0.91520  Biso   1.000  O
  O5       1.0000 0.55760  0.70190  0.85620  Biso   1.000  O
  O6       1.0000 0.64450  0.78480  0.91520  Biso   1.000  O
  O7       1.0000 0.52860  0.88150  0.85220  Biso   1.000  O
  O8       1.0000 0.61640  0.95850  0.92170  Biso   1.000  O
  O9       1.0000 0.69670  0.56830  0.87460  Biso   1.000  O
  O10      1.0000 0.61070  0.59130  0.78180  Biso   1.000  O
  O11      1.0000 0.72520  0.52980  0.80010  Biso   1.000  O
  O12      1.0000 0.63720  0.52910  0.70940  Biso   1.000  O
  O13      1.0000 0.61310  0.60910  0.99530  Biso   1.000  O
  O14      1.0000 0.69950  0.58230  0.99500  Biso   1.000  O
  O15      1.0000 0.64230  0.58900  0.10100  Biso   1.000  O
  O16      1.0000 0.72900  0.57910  0.10170  Biso   1.000  O
  O17      1.0000 0.69640  0.32490  0.72290  Biso   1.000  O
  O18      1.0000 0.77980  0.40840  0.73870  Biso   1.000  O
  O19      1.0000 0.72780  0.16390  0.77430  Biso   1.000  O
  O20      1.0000 0.81330  0.23860  0.78150  Biso   1.000  O
  O21      1.0000 0.48340  0.10590  0.94000  Biso   1.000  O
  O22      1.0000 0.45490  0.06750  0.01380  Biso   1.000  O
  O23      1.0000 0.55890  0.08470  0.79940  Biso   1.000  O
  O24      1.0000 0.52540  0.08690  0.69270  Biso   1.000  O
  C1       1.0000 0.56320  0.35410  0.88710  Biso   1.000  C
  C2       1.0000 0.61340  0.30460  0.90760  Biso   1.000  C
  C3       1.0000 0.56090  0.81020  0.86740  Biso   1.000  C
  C4       1.0000 0.61200  0.85300  0.90480  Biso   1.000  C
  C5       1.0000 0.69250  0.55180  0.81710  Biso   1.000  C
  C6       1.0000 0.64230  0.55790  0.76500  Biso   1.000  C
  C7       1.0000 0.64650  0.59650  0.04870  Biso   1.000  C
  C8       1.0000 0.69570  0.58690  0.04860  Biso   1.000  C
  C9       1.0000 0.73150  0.25880  0.75230  Biso   1.000  C
  C10      1.0000 0.77940  0.30440  0.75820  Biso   1.000  C
  C11      1.0000 0.52430  0.08610  0.74800  Biso   1.000  C
  C12      1.0000 0.48240  0.04960  0.98700  Biso   1.000  C
  Bi4      1.0000 0.37053  0.58191  0.59789  Biso   1.000  Bi
  Bi5      1.0000 0.29059  0.50772  0.80893  Biso   1.000  Bi
  Bi6      1.0000 0.45287  0.07801  0.60298  Biso   1.000  Bi
  O25      1.0000 0.44110  0.46140  0.61860  Biso   1.000  O
  O26      1.0000 0.35380  0.37500  0.58520  Biso   1.000  O
  O27      1.0000 0.46920  0.28280  0.62060  Biso   1.000  O
  O28      1.0000 0.38200  0.19800  0.58480  Biso   1.000  O
  O29      1.0000 0.44240  0.70190  0.64380  Biso   1.000  O
  O30      1.0000 0.35550  0.78480  0.58480  Biso   1.000  O
  O31      1.0000 0.47140  0.88150  0.64780  Biso   1.000  O
  O32      1.0000 0.38360  0.95850  0.57830  Biso   1.000  O
  O33      1.0000 0.30330  0.56830  0.62540  Biso   1.000  O
  O34      1.0000 0.38930  0.59130  0.71820  Biso   1.000  O
  O35      1.0000 0.27480  0.52980  0.69990  Biso   1.000  O
  O36      1.0000 0.36280  0.52910  0.79060  Biso   1.000  O
  O37      1.0000 0.38690  0.60910  0.50470  Biso   1.000  O
  O38      1.0000 0.30050  0.58230  0.50500  Biso   1.000  O
  O39      1.0000 0.35770  0.58900  0.39900  Biso   1.000  O
  O40      1.0000 0.27100  0.57910  0.39830  Biso   1.000  O
  O41      1.0000 0.30360  0.32490  0.77710  Biso   1.000  O
  O42      1.0000 0.22020  0.40840  0.76130  Biso   1.000  O
  O43      1.0000 0.27220  0.16390  0.72570  Biso   1.000  O
  O44      1.0000 0.18670  0.23860  0.71850  Biso   1.000  O
  O45      1.0000 0.51660  0.10590  0.56000  Biso   1.000  O
  O46      1.0000 0.54510  0.06750  0.48620  Biso   1.000  O
  O47      1.0000 0.44110  0.08470  0.70060  Biso   1.000  O
  O48      1.0000 0.47460  0.08690  0.80730  Biso   1.000  O
  C13      1.0000 0.43680  0.35410  0.61290  Biso   1.000  C
  C14      1.0000 0.38660  0.30460  0.59240  Biso   1.000  C
  C15      1.0000 0.43910  0.81020  0.63260  Biso   1.000  C
  C16      1.0000 0.38800  0.85300  0.59520  Biso   1.000  C
  C17      1.0000 0.30750  0.55180  0.68290  Biso   1.000  C
  C18      1.0000 0.35770  0.55790  0.73500  Biso   1.000  C
  C19      1.0000 0.35350  0.59650  0.45130  Biso   1.000  C
  C20      1.0000 0.30430  0.58690  0.45140  Biso   1.000  C
  C21      1.0000 0.26850  0.25880  0.74770  Biso   1.000  C
  C22      1.0000 0.22060  0.30440  0.74180  Biso   1.000  C
  C23      1.0000 0.47570  0.08610  0.75200  Biso   1.000  C
  C24      1.0000 0.51760  0.04960  0.51300  Biso   1.000  C
  Bi7      1.0000 0.37053  0.41809  0.09789  Biso   1.000  Bi
  Bi8      1.0000 0.29059  0.49228  0.30893  Biso   1.000  Bi
  Bi9      1.0000 0.45287  0.92199  0.10298  Biso   1.000  Bi
  O49      1.0000 0.44110  0.53860  0.11860  Biso   1.000  O
  O50      1.0000 0.35380  0.62500  0.08520  Biso   1.000  O
  O51      1.0000 0.46920  0.71720  0.12060  Biso   1.000  O
  O52      1.0000 0.38200  0.80200  0.08480  Biso   1.000  O
  O53      1.0000 0.44240  0.29810  0.14380  Biso   1.000  O
  O54      1.0000 0.35550  0.21520  0.08480  Biso   1.000  O
  O55      1.0000 0.47140  0.11850  0.14780  Biso   1.000  O
  O56      1.0000 0.38360  0.04150  0.07830  Biso   1.000  O
  O57      1.0000 0.30330  0.43170  0.12540  Biso   1.000  O
  O58      1.0000 0.38930  0.40870  0.21820  Biso   1.000  O
  O59      1.0000 0.27480  0.47020  0.19990  Biso   1.000  O
  O60      1.0000 0.36280  0.47090  0.29060  Biso   1.000  O
  O61      1.0000 0.38690  0.39090  0.00470  Biso   1.000  O
  O62      1.0000 0.30050  0.41770  0.00500  Biso   1.000  O
  O63      1.0000 0.35770  0.41100  0.89900  Biso   1.000  O
  O64      1.0000 0.27100  0.42090  0.89830  Biso   1.000  O
  O65      1.0000 0.30360  0.67510  0.27710  Biso   1.000  O
  O66      1.0000 0.22020  0.59160  0.26130  Biso   1.000  O
  O67      1.0000 0.27220  0.83610  0.22570  Biso   1.000  O
  O68      1.0000 0.18670  0.76140  0.21850  Biso   1.000  O
  O69      1.0000 0.51660  0.89410  0.06000  Biso   1.000  O
  O70      1.0000 0.54510  0.93250  0.98620  Biso   1.000  O
  O71      1.0000 0.44110  0.91530  0.20060  Biso   1.000  O
  O72      1.0000 0.47460  0.91310  0.30730  Biso   1.000  O
  C25      1.0000 0.43680  0.64590  0.11290  Biso   1.000  C
  C26      1.0000 0.38660  0.69540  0.09240  Biso   1.000  C
  C27      1.0000 0.43910  0.18980  0.13260  Biso   1.000  C
  C28      1.0000 0.38800  0.14700  0.09520  Biso   1.000  C
  C29      1.0000 0.30750  0.44820  0.18290  Biso   1.000  C
  C30      1.0000 0.35770  0.44210  0.23500  Biso   1.000  C
  C31      1.0000 0.35350  0.40350  0.95130  Biso   1.000  C
  C32      1.0000 0.30430  0.41310  0.95140  Biso   1.000  C
  C33      1.0000 0.26850  0.74120  0.24770  Biso   1.000  C
  C34      1.0000 0.22060  0.69560  0.24180  Biso   1.000  C
  C35      1.0000 0.47570  0.91390  0.25200  Biso   1.000  C
  C36      1.0000 0.51760  0.95040  0.01300  Biso   1.000  C
  Bi10     1.0000 0.62947  0.41809  0.40211  Biso   1.000  Bi
  Bi11     1.0000 0.70941  0.49228  0.19107  Biso   1.000  Bi
  Bi12     1.0000 0.54713  0.92199  0.39702  Biso   1.000  Bi
  O73      1.0000 0.55890  0.53860  0.38140  Biso   1.000  O
  O74      1.0000 0.64620  0.62500  0.41480  Biso   1.000  O
  O75      1.0000 0.53080  0.71720  0.37940  Biso   1.000  O
  O76      1.0000 0.61800  0.80200  0.41520  Biso   1.000  O
  O77      1.0000 0.55760  0.29810  0.35620  Biso   1.000  O
  O78      1.0000 0.64450  0.21520  0.41520  Biso   1.000  O
  O79      1.0000 0.52860  0.11850  0.35220  Biso   1.000  O
  O80      1.0000 0.61640  0.04150  0.42170  Biso   1.000  O
  O81      1.0000 0.69670  0.43170  0.37460  Biso   1.000  O
  O82      1.0000 0.61070  0.40870  0.28180  Biso   1.000  O
  O83      1.0000 0.72520  0.47020  0.30010  Biso   1.000  O
  O84      1.0000 0.63720  0.47090  0.20940  Biso   1.000  O
  O85      1.0000 0.61310  0.39090  0.49530  Biso   1.000  O
  O86      1.0000 0.69950  0.41770  0.49500  Biso   1.000  O
  O87      1.0000 0.64230  0.41100  0.60100  Biso   1.000  O
  O88      1.0000 0.72900  0.42090  0.60170  Biso   1.000  O
  O89      1.0000 0.69640  0.67510  0.22290  Biso   1.000  O
  O90      1.0000 0.77980  0.59160  0.23870  Biso   1.000  O
  O91      1.0000 0.72780  0.83610  0.27430  Biso   1.000  O
  O92      1.0000 0.81330  0.76140  0.28150  Biso   1.000  O
  O93      1.0000 0.48340  0.89410  0.44000  Biso   1.000  O
  O94      1.0000 0.45490  0.93250  0.51380  Biso   1.000  O
  O95      1.0000 0.55890  0.91530  0.29940  Biso   1.000  O
  O96      1.0000 0.52540  0.91310  0.19270  Biso   1.000  O
  C37      1.0000 0.56320  0.64590  0.38710  Biso   1.000  C
  C38      1.0000 0.61340  0.69540  0.40760  Biso   1.000  C
  C39      1.0000 0.56090  0.18980  0.36740  Biso   1.000  C
  C40      1.0000 0.61200  0.14700  0.40480  Biso   1.000  C
  C41      1.0000 0.69250  0.44820  0.31710  Biso   1.000  C
  C42      1.0000 0.64230  0.44210  0.26500  Biso   1.000  C
  C43      1.0000 0.64650  0.40350  0.54870  Biso   1.000  C
  C44      1.0000 0.69570  0.41310  0.54860  Biso   1.000  C
  C45      1.0000 0.73150  0.74120  0.25230  Biso   1.000  C
  C46      1.0000 0.77940  0.69560  0.25820  Biso   1.000  C
  C47      1.0000 0.52430  0.91390  0.24800  Biso   1.000  C
  C48      1.0000 0.48240  0.95040  0.48700  Biso   1.000  C
  Bi13     1.0000 0.12947  0.08191  0.90211  Biso   1.000  Bi
  Bi14     1.0000 0.20941  0.00772  0.69107  Biso   1.000  Bi
  Bi15     1.0000 0.04713  0.57801  0.89702  Biso   1.000  Bi
  O97      1.0000 0.05890  0.96140  0.88140  Biso   1.000  O
  O98      1.0000 0.14620  0.87500  0.91480  Biso   1.000  O
  O99      1.0000 0.03080  0.78280  0.87940  Biso   1.000  O
  O100     1.0000 0.11800  0.69800  0.91520  Biso   1.000  O
  O101     1.0000 0.05760  0.20190  0.85620  Biso   1.000  O
  O102     1.0000 0.14450  0.28480  0.91520  Biso   1.000  O
  O103     1.0000 0.02860  0.38150  0.85220  Biso   1.000  O
  O104     1.0000 0.11640  0.45850  0.92170  Biso   1.000  O
  O105     1.0000 0.19670  0.06830  0.87460  Biso   1.000  O
  O106     1.0000 0.11070  0.09130  0.78180  Biso   1.000  O
  O107     1.0000 0.22520  0.02980  0.80010  Biso   1.000  O
  O108     1.0000 0.13720  0.02910  0.70940  Biso   1.000  O
  O109     1.0000 0.11310  0.10910  0.99530  Biso   1.000  O
  O110     1.0000 0.19950  0.08230  0.99500  Biso   1.000  O
  O111     1.0000 0.14230  0.08900  0.10100  Biso   1.000  O
  O112     1.0000 0.22900  0.07910  0.10170  Biso   1.000  O
  O113     1.0000 0.19640  0.82490  0.72290  Biso   1.000  O
  O114     1.0000 0.27980  0.90840  0.73870  Biso   1.000  O
  O115     1.0000 0.22780  0.66390  0.77430  Biso   1.000  O
  O116     1.0000 0.31330  0.73860  0.78150  Biso   1.000  O
  O117     1.0000 0.98340  0.60590  0.94000  Biso   1.000  O
  O118     1.0000 0.95490  0.56750  0.01380  Biso   1.000  O
  O119     1.0000 0.05890  0.58470  0.79940  Biso   1.000  O
  O120     1.0000 0.02540  0.58690  0.69270  Biso   1.000  O
  C49      1.0000 0.06320  0.85410  0.88710  Biso   1.000  C
  C50      1.0000 0.11340  0.80460  0.90760  Biso   1.000  C
  C51      1.0000 0.06090  0.31020  0.86740  Biso   1.000  C
  C52      1.0000 0.11200  0.35300  0.90480  Biso   1.000  C
  C53      1.0000 0.19250  0.05180  0.81710  Biso   1.000  C
  C54      1.0000 0.14230  0.05790  0.76500  Biso   1.000  C
  C55      1.0000 0.14650  0.09650  0.04870  Biso   1.000  C
  C56      1.0000 0.19570  0.08690  0.04860  Biso   1.000  C
  C57      1.0000 0.23150  0.75880  0.75230  Biso   1.000  C
  C58      1.0000 0.27940  0.80440  0.75820  Biso   1.000  C
  C59      1.0000 0.02430  0.58610  0.74800  Biso   1.000  C
  C60      1.0000 0.98240  0.54960  0.98700  Biso   1.000  C
  Bi16     1.0000 0.87053  0.08191  0.59789  Biso   1.000  Bi
  Bi17     1.0000 0.79059  0.00772  0.80893  Biso   1.000  Bi
  Bi18     1.0000 0.95287  0.57801  0.60298  Biso   1.000  Bi
  O121     1.0000 0.94110  0.96140  0.61860  Biso   1.000  O
  O122     1.0000 0.85380  0.87500  0.58520  Biso   1.000  O
  O123     1.0000 0.96920  0.78280  0.62060  Biso   1.000  O
  O124     1.0000 0.88200  0.69800  0.58480  Biso   1.000  O
  O125     1.0000 0.94240  0.20190  0.64380  Biso   1.000  O
  O126     1.0000 0.85550  0.28480  0.58480  Biso   1.000  O
  O127     1.0000 0.97140  0.38150  0.64780  Biso   1.000  O
  O128     1.0000 0.88360  0.45850  0.57830  Biso   1.000  O
  O129     1.0000 0.80330  0.06830  0.62540  Biso   1.000  O
  O130     1.0000 0.88930  0.09130  0.71820  Biso   1.000  O
  O131     1.0000 0.77480  0.02980  0.69990  Biso   1.000  O
  O132     1.0000 0.86280  0.02910  0.79060  Biso   1.000  O
  O133     1.0000 0.88690  0.10910  0.50470  Biso   1.000  O
  O134     1.0000 0.80050  0.08230  0.50500  Biso   1.000  O
  O135     1.0000 0.85770  0.08900  0.39900  Biso   1.000  O
  O136     1.0000 0.77100  0.07910  0.39830  Biso   1.000  O
  O137     1.0000 0.80360  0.82490  0.77710  Biso   1.000  O
  O138     1.0000 0.72020  0.90840  0.76130  Biso   1.000  O
  O139     1.0000 0.77220  0.66390  0.72570  Biso   1.000  O
  O140     1.0000 0.68670  0.73860  0.71850  Biso   1.000  O
  O141     1.0000 0.01660  0.60590  0.56000  Biso   1.000  O
  O142     1.0000 0.04510  0.56750  0.48620  Biso   1.000  O
  O143     1.0000 0.94110  0.58470  0.70060  Biso   1.000  O
  O144     1.0000 0.97460  0.58690  0.80730  Biso   1.000  O
  C61      1.0000 0.93680  0.85410  0.61290  Biso   1.000  C
  C62      1.0000 0.88660  0.80460  0.59240  Biso   1.000  C
  C63      1.0000 0.93910  0.31020  0.63260  Biso   1.000  C
  C64      1.0000 0.88800  0.35300  0.59520  Biso   1.000  C
  C65      1.0000 0.80750  0.05180  0.68290  Biso   1.000  C
  C66      1.0000 0.85770  0.05790  0.73500  Biso   1.000  C
  C67      1.0000 0.85350  0.09650  0.45130  Biso   1.000  C
  C68      1.0000 0.80430  0.08690  0.45140  Biso   1.000  C
  C69      1.0000 0.76850  0.75880  0.74770  Biso   1.000  C
  C70      1.0000 0.72060  0.80440  0.74180  Biso   1.000  C
  C71      1.0000 0.97570  0.58610  0.75200  Biso   1.000  C
  C72      1.0000 0.01760  0.54960  0.51300  Biso   1.000  C
  Bi19     1.0000 0.87053  0.91809  0.09789  Biso   1.000  Bi
  Bi20     1.0000 0.79059  0.99228  0.30893  Biso   1.000  Bi
  Bi21     1.0000 0.95287  0.42199  0.10298  Biso   1.000  Bi
  O145     1.0000 0.94110  0.03860  0.11860  Biso   1.000  O
  O146     1.0000 0.85380  0.12500  0.08520  Biso   1.000  O
  O147     1.0000 0.96920  0.21720  0.12060  Biso   1.000  O
  O148     1.0000 0.88200  0.30200  0.08480  Biso   1.000  O
  O149     1.0000 0.94240  0.79810  0.14380  Biso   1.000  O
  O150     1.0000 0.85550  0.71520  0.08480  Biso   1.000  O
  O151     1.0000 0.97140  0.61850  0.14780  Biso   1.000  O
  O152     1.0000 0.88360  0.54150  0.07830  Biso   1.000  O
  O153     1.0000 0.80330  0.93170  0.12540  Biso   1.000  O
  O154     1.0000 0.88930  0.90870  0.21820  Biso   1.000  O
  O155     1.0000 0.77480  0.97020  0.19990  Biso   1.000  O
  O156     1.0000 0.86280  0.97090  0.29060  Biso   1.000  O
  O157     1.0000 0.88690  0.89090  0.00470  Biso   1.000  O
  O158     1.0000 0.80050  0.91770  0.00500  Biso   1.000  O
  O159     1.0000 0.85770  0.91100  0.89900  Biso   1.000  O
  O160     1.0000 0.77100  0.92090  0.89830  Biso   1.000  O
  O161     1.0000 0.80360  0.17510  0.27710  Biso   1.000  O
  O162     1.0000 0.72020  0.09160  0.26130  Biso   1.000  O
  O163     1.0000 0.77220  0.33610  0.22570  Biso   1.000  O
  O164     1.0000 0.68670  0.26140  0.21850  Biso   1.000  O
  O165     1.0000 0.01660  0.39410  0.06000  Biso   1.000  O
  O166     1.0000 0.04510  0.43250  0.98620  Biso   1.000  O
  O167     1.0000 0.94110  0.41530  0.20060  Biso   1.000  O
  O168     1.0000 0.97460  0.41310  0.30730  Biso   1.000  O
  C73      1.0000 0.93680  0.14590  0.11290  Biso   1.000  C
  C74      1.0000 0.88660  0.19540  0.09240  Biso   1.000  C
  C75      1.0000 0.93910  0.68980  0.13260  Biso   1.000  C
  C76      1.0000 0.88800  0.64700  0.09520  Biso   1.000  C
  C77      1.0000 0.80750  0.94820  0.18290  Biso   1.000  C
  C78      1.0000 0.85770  0.94210  0.23500  Biso   1.000  C
  C79      1.0000 0.85350  0.90350  0.95130  Biso   1.000  C
  C80      1.0000 0.80430  0.91310  0.95140  Biso   1.000  C
  C81      1.0000 0.76850  0.24120  0.24770  Biso   1.000  C
  C82      1.0000 0.72060  0.19560  0.24180  Biso   1.000  C
  C83      1.0000 0.97570  0.41390  0.25200  Biso   1.000  C
  C84      1.0000 0.01760  0.45040  0.01300  Biso   1.000  C
  Bi22     1.0000 0.12947  0.91809  0.40211  Biso   1.000  Bi
  Bi23     1.0000 0.20941  0.99228  0.19107  Biso   1.000  Bi
  Bi24     1.0000 0.04713  0.42199  0.39702  Biso   1.000  Bi
  O169     1.0000 0.05890  0.03860  0.38140  Biso   1.000  O
  O170     1.0000 0.14620  0.12500  0.41480  Biso   1.000  O
  O171     1.0000 0.03080  0.21720  0.37940  Biso   1.000  O
  O172     1.0000 0.11800  0.30200  0.41520  Biso   1.000  O
  O173     1.0000 0.05760  0.79810  0.35620  Biso   1.000  O
  O174     1.0000 0.14450  0.71520  0.41520  Biso   1.000  O
  O175     1.0000 0.02860  0.61850  0.35220  Biso   1.000  O
  O176     1.0000 0.11640  0.54150  0.42170  Biso   1.000  O
  O177     1.0000 0.19670  0.93170  0.37460  Biso   1.000  O
  O178     1.0000 0.11070  0.90870  0.28180  Biso   1.000  O
  O179     1.0000 0.22520  0.97020  0.30010  Biso   1.000  O
  O180     1.0000 0.13720  0.97090  0.20940  Biso   1.000  O
  O181     1.0000 0.11310  0.89090  0.49530  Biso   1.000  O
  O182     1.0000 0.19950  0.91770  0.49500  Biso   1.000  O
  O183     1.0000 0.14230  0.91100  0.60100  Biso   1.000  O
  O184     1.0000 0.22900  0.92090  0.60170  Biso   1.000  O
  O185     1.0000 0.19640  0.17510  0.22290  Biso   1.000  O
  O186     1.0000 0.27980  0.09160  0.23870  Biso   1.000  O
  O187     1.0000 0.22780  0.33610  0.27430  Biso   1.000  O
  O188     1.0000 0.31330  0.26140  0.28150  Biso   1.000  O
  O189     1.0000 0.98340  0.39410  0.44000  Biso   1.000  O
  O190     1.0000 0.95490  0.43250  0.51380  Biso   1.000  O
  O191     1.0000 0.05890  0.41530  0.29940  Biso   1.000  O
  O192     1.0000 0.02540  0.41310  0.19270  Biso   1.000  O
  C85      1.0000 0.06320  0.14590  0.38710  Biso   1.000  C
  C86      1.0000 0.11340  0.19540  0.40760  Biso   1.000  C
  C87      1.0000 0.06090  0.68980  0.36740  Biso   1.000  C
  C88      1.0000 0.11200  0.64700  0.40480  Biso   1.000  C
  C89      1.0000 0.19250  0.94820  0.31710  Biso   1.000  C
  C90      1.0000 0.14230  0.94210  0.26500  Biso   1.000  C
  C91      1.0000 0.14650  0.90350  0.54870  Biso   1.000  C
  C92      1.0000 0.19570  0.91310  0.54860  Biso   1.000  C
  C93      1.0000 0.23150  0.24120  0.25230  Biso   1.000  C
  C94      1.0000 0.27940  0.19560  0.25820  Biso   1.000  C
  C95      1.0000 0.02430  0.41390  0.24800  Biso   1.000  C
  C96      1.0000 0.98240  0.45040  0.48700  Biso   1.000  C
