data_image0
_cell_length_a       8.782
_cell_length_b       14.9417
_cell_length_c       15.4943
_cell_angle_alpha    90
_cell_angle_beta     92.94
_cell_angle_gamma    90

_symmetry_space_group_name_H-M    "P 1"
_symmetry_int_tables_number       1

loop_
  _symmetry_equiv_pos_as_xyz
  'x, y, z'

loop_
  _atom_site_label
  _atom_site_occupancy
  _atom_site_fract_x
  _atom_site_fract_y
  _atom_site_fract_z
  _atom_site_thermal_displace_type
  _atom_site_B_iso_or_equiv
  _atom_site_type_symbol
  Zn1      1.0000 0.65033  0.61909  0.01032  Biso   1.000  Zn
  P1       1.0000 0.78990  0.72018  0.85023  Biso   1.000  P
  P2       1.0000 0.66127  0.58030  0.58375  Biso   1.000  P
  O1       1.0000 0.78060  0.64760  0.91643  Biso   1.000  O
  O2       1.0000 0.81500  0.81290  0.88448  Biso   1.000  O
  O3       1.0000 0.72500  0.49922  0.54044  Biso   1.000  O
  O4       1.0000 0.56130  0.63797  0.52414  Biso   1.000  O
  O5       1.0000 0.65500  0.72223  0.78397  Biso   1.000  O
  O6       1.0000 0.58450  0.55504  0.66609  Biso   1.000  O
  H1       1.0000 0.91000  0.69900  0.80700  Biso   1.000  H
  H2       1.0000 0.78200  0.63030  0.60720  Biso   1.000  H
  Zn2      1.0000 0.15033  0.11909  0.01032  Biso   1.000  Zn
  P3       1.0000 0.28990  0.22018  0.85023  Biso   1.000  P
  P4       1.0000 0.16127  0.08030  0.58375  Biso   1.000  P
  O7       1.0000 0.28060  0.14760  0.91643  Biso   1.000  O
  O8       1.0000 0.31500  0.31290  0.88448  Biso   1.000  O
  O9       1.0000 0.22500  0.99922  0.54044  Biso   1.000  O
  O10      1.0000 0.06130  0.13797  0.52414  Biso   1.000  O
  O11      1.0000 0.15500  0.22223  0.78397  Biso   1.000  O
  O12      1.0000 0.08450  0.05504  0.66609  Biso   1.000  O
  H3       1.0000 0.41000  0.19900  0.80700  Biso   1.000  H
  H4       1.0000 0.28200  0.13030  0.60720  Biso   1.000  H
  Zn3      1.0000 0.34967  0.61909  0.48968  Biso   1.000  Zn
  P5       1.0000 0.21010  0.72018  0.64977  Biso   1.000  P
  P6       1.0000 0.33873  0.58030  0.91625  Biso   1.000  P
  O13      1.0000 0.21940  0.64760  0.58357  Biso   1.000  O
  O14      1.0000 0.18500  0.81290  0.61552  Biso   1.000  O
  O15      1.0000 0.27500  0.49922  0.95956  Biso   1.000  O
  O16      1.0000 0.43870  0.63797  0.97586  Biso   1.000  O
  O17      1.0000 0.34500  0.72223  0.71603  Biso   1.000  O
  O18      1.0000 0.41550  0.55504  0.83391  Biso   1.000  O
  H5       1.0000 0.09000  0.69900  0.69300  Biso   1.000  H
  H6       1.0000 0.21800  0.63030  0.89280  Biso   1.000  H
  Zn4      1.0000 0.84967  0.11909  0.48968  Biso   1.000  Zn
  P7       1.0000 0.71010  0.22018  0.64977  Biso   1.000  P
  P8       1.0000 0.83873  0.08030  0.91625  Biso   1.000  P
  O19      1.0000 0.71940  0.14760  0.58357  Biso   1.000  O
  O20      1.0000 0.68500  0.31290  0.61552  Biso   1.000  O
  O21      1.0000 0.77500  0.99922  0.95956  Biso   1.000  O
  O22      1.0000 0.93870  0.13797  0.97586  Biso   1.000  O
  O23      1.0000 0.84500  0.22223  0.71603  Biso   1.000  O
  O24      1.0000 0.91550  0.05504  0.83391  Biso   1.000  O
  H7       1.0000 0.59000  0.19900  0.69300  Biso   1.000  H
  H8       1.0000 0.71800  0.13030  0.89280  Biso   1.000  H
  Zn5      1.0000 0.34967  0.38091  0.98968  Biso   1.000  Zn
  P9       1.0000 0.21010  0.27982  0.14977  Biso   1.000  P
  P10      1.0000 0.33873  0.41970  0.41625  Biso   1.000  P
  O25      1.0000 0.21940  0.35240  0.08357  Biso   1.000  O
  O26      1.0000 0.18500  0.18710  0.11552  Biso   1.000  O
  O27      1.0000 0.27500  0.50078  0.45956  Biso   1.000  O
  O28      1.0000 0.43870  0.36203  0.47586  Biso   1.000  O
  O29      1.0000 0.34500  0.27777  0.21603  Biso   1.000  O
  O30      1.0000 0.41550  0.44496  0.33391  Biso   1.000  O
  H9       1.0000 0.09000  0.30100  0.19300  Biso   1.000  H
  H10      1.0000 0.21800  0.36970  0.39280  Biso   1.000  H
  Zn6      1.0000 0.84967  0.88091  0.98968  Biso   1.000  Zn
  P11      1.0000 0.71010  0.77982  0.14977  Biso   1.000  P
  P12      1.0000 0.83873  0.91970  0.41625  Biso   1.000  P
  O31      1.0000 0.71940  0.85240  0.08357  Biso   1.000  O
  O32      1.0000 0.68500  0.68710  0.11552  Biso   1.000  O
  O33      1.0000 0.77500  0.00078  0.45956  Biso   1.000  O
  O34      1.0000 0.93870  0.86203  0.47586  Biso   1.000  O
  O35      1.0000 0.84500  0.77777  0.21603  Biso   1.000  O
  O36      1.0000 0.91550  0.94496  0.33391  Biso   1.000  O
  H11      1.0000 0.59000  0.80100  0.19300  Biso   1.000  H
  H12      1.0000 0.71800  0.86970  0.39280  Biso   1.000  H
  Zn7      1.0000 0.65033  0.38091  0.51032  Biso   1.000  Zn
  P13      1.0000 0.78990  0.27982  0.35023  Biso   1.000  P
  P14      1.0000 0.66127  0.41970  0.08375  Biso   1.000  P
  O37      1.0000 0.78060  0.35240  0.41643  Biso   1.000  O
  O38      1.0000 0.81500  0.18710  0.38448  Biso   1.000  O
  O39      1.0000 0.72500  0.50078  0.04044  Biso   1.000  O
  O40      1.0000 0.56130  0.36203  0.02414  Biso   1.000  O
  O41      1.0000 0.65500  0.27777  0.28397  Biso   1.000  O
  O42      1.0000 0.58450  0.44496  0.16609  Biso   1.000  O
  H13      1.0000 0.91000  0.30100  0.30700  Biso   1.000  H
  H14      1.0000 0.78200  0.36970  0.10720  Biso   1.000  H
  Zn8      1.0000 0.15033  0.88091  0.51032  Biso   1.000  Zn
  P15      1.0000 0.28990  0.77982  0.35023  Biso   1.000  P
  P16      1.0000 0.16127  0.91970  0.08375  Biso   1.000  P
  O43      1.0000 0.28060  0.85240  0.41643  Biso   1.000  O
  O44      1.0000 0.31500  0.68710  0.38448  Biso   1.000  O
  O45      1.0000 0.22500  0.00078  0.04044  Biso   1.000  O
  O46      1.0000 0.06130  0.86203  0.02414  Biso   1.000  O
  O47      1.0000 0.15500  0.77777  0.28397  Biso   1.000  O
  O48      1.0000 0.08450  0.94496  0.16609  Biso   1.000  O
  H15      1.0000 0.41000  0.80100  0.30700  Biso   1.000  H
  H16      1.0000 0.28200  0.86970  0.10720  Biso   1.000  H
  Zn9      1.0000 0.50000  0.63203  0.75000  Biso   1.000  Zn
  Zn10     1.0000 0.00000  0.13203  0.75000  Biso   1.000  Zn
  Zn11     1.0000 0.50000  0.36797  0.25000  Biso   1.000  Zn
  Zn12     1.0000 0.00000  0.86797  0.25000  Biso   1.000  Zn
