data_NEDVOJ_charged
_audit_creation_date              2014-07-02
_audit_creation_method            'Materials Studio'
_symmetry_space_group_name_H-M    'P1'
_symmetry_Int_Tables_number       1
_symmetry_cell_setting            triclinic
loop_
_symmetry_equiv_pos_as_xyz
  x,y,z
_cell_length_a                    11.7258
_cell_length_b                    15.4489
_cell_length_c                    16.7107
_cell_angle_alpha                 106.7870
_cell_angle_beta                  98.0640
_cell_angle_gamma                 107.7880
loop_
_atom_site_label
_atom_site_type_symbol
_atom_site_fract_x
_atom_site_fract_y
_atom_site_fract_z
_atom_site_U_iso_or_equiv
_atom_site_adp_type
_atom_site_occupancy
Mn1    Mn    0.18016   0.88054   0.89923   0.01267  Uiso   1.00
Mn2    Mn    0.81984   0.11946   0.10077   0.01267  Uiso   1.00
Mn3    Mn    0.50000   0.00000   0.00000   0.01267  Uiso   1.00
H1     H     0.24020   0.72620   0.66350   0.01267  Uiso   1.00
H2     H     0.28030   0.65280   0.53160   0.01267  Uiso   1.00
H3     H     0.64310   0.82690   0.63110   0.01267  Uiso   1.00
H4     H     0.60020   0.90060   0.76240   0.01267  Uiso   1.00
H5     H     0.37570   0.57250   0.45080   0.01267  Uiso   1.00
H6     H     0.35240   0.64590   0.40590   0.01267  Uiso   1.00
H7     H     0.14640   0.15320   0.11200   0.01267  Uiso   1.00
H8     H     0.22270   0.31300   0.21200   0.01267  Uiso   1.00
H9     H     0.54330   0.36270   0.13740   0.01267  Uiso   1.00
H10    H     0.47010   0.20270   0.04210   0.01267  Uiso   1.00
H11    H     0.30400   0.47540   0.28030   0.01267  Uiso   1.00
H12    H     0.37900   0.43910   0.34360   0.01267  Uiso   1.00
H13    H     0.49670   0.81630   0.10610   0.01267  Uiso   1.00
H14    H     0.53120   0.73850   0.20280   0.01267  Uiso   1.00
H15    H     0.16430   0.63860   0.18730   0.01267  Uiso   1.00
H16    H     0.13040   0.71130   0.08790   0.01267  Uiso   1.00
H17    H     0.52090   0.61830   0.25310   0.01267  Uiso   1.00
H18    H     0.53400   0.71190   0.33280   0.01267  Uiso   1.00
H19    H     0.89140   0.64640   0.65510   0.01267  Uiso   1.00
H20    H     0.76230   0.58420   0.51710   0.01267  Uiso   1.00
H21    H     0.79590   0.85510   0.52800   0.01267  Uiso   1.00
H22    H     0.93200   0.91810   0.66320   0.01267  Uiso   1.00
H23    H     0.62670   0.54840   0.34970   0.01267  Uiso   1.00
H24    H     0.59300   0.55560   0.44050   0.01267  Uiso   1.00
H25    H     0.75980   0.27380   0.33650   0.01267  Uiso   1.00
H26    H     0.71970   0.34720   0.46840   0.01267  Uiso   1.00
H27    H     0.35690   0.17310   0.36890   0.01267  Uiso   1.00
H28    H     0.39980   0.09940   0.23760   0.01267  Uiso   1.00
H29    H     0.62430   0.42750   0.54920   0.01267  Uiso   1.00
H30    H     0.64760   0.35410   0.59410   0.01267  Uiso   1.00
H31    H     0.85360   0.84680   0.88800   0.01267  Uiso   1.00
H32    H     0.77730   0.68700   0.78800   0.01267  Uiso   1.00
H33    H     0.45670   0.63730   0.86260   0.01267  Uiso   1.00
H34    H     0.52990   0.79730   0.95790   0.01267  Uiso   1.00
H35    H     0.69600   0.52460   0.71970   0.01267  Uiso   1.00
H36    H     0.62100   0.56090   0.65640   0.01267  Uiso   1.00
H37    H     0.50330   0.18370   0.89390   0.01267  Uiso   1.00
H38    H     0.46880   0.26150   0.79720   0.01267  Uiso   1.00
H39    H     0.83570   0.36140   0.81270   0.01267  Uiso   1.00
H40    H     0.86960   0.28870   0.91210   0.01267  Uiso   1.00
H41    H     0.47910   0.38170   0.74690   0.01267  Uiso   1.00
H42    H     0.46600   0.28810   0.66720   0.01267  Uiso   1.00
H43    H     0.10860   0.35360   0.34490   0.01267  Uiso   1.00
H44    H     0.23770   0.41580   0.48290   0.01267  Uiso   1.00
H45    H     0.20410   0.14490   0.47200   0.01267  Uiso   1.00
H46    H     0.06800   0.08190   0.33680   0.01267  Uiso   1.00
H47    H     0.37330   0.45160   0.65030   0.01267  Uiso   1.00
H48    H     0.40700   0.44440   0.55950   0.01267  Uiso   1.00
C1     C     0.39200   0.86370   0.80820   0.01267  Uiso   1.00
C2     C     0.41570   0.81940   0.72560   0.01267  Uiso   1.00
C3     C     0.32220   0.74660   0.65680   0.01267  Uiso   1.00
C4     C     0.34490   0.70230   0.57830   0.01267  Uiso   1.00
C5     C     0.46400   0.73360   0.57190   0.01267  Uiso   1.00
C6     C     0.56140   0.80690   0.63850   0.01267  Uiso   1.00
C7     C     0.53570   0.85020   0.71620   0.01267  Uiso   1.00
C8     C     0.41680   0.62470   0.42980   0.01267  Uiso   1.00
C9     C     0.25550   0.06030   0.00790   0.01267  Uiso   1.00
C10    C     0.30200   0.16290   0.06890   0.01267  Uiso   1.00
C11    C     0.22790   0.19550   0.11830   0.01267  Uiso   1.00
C12    C     0.27270   0.29050   0.17730   0.01267  Uiso   1.00
C13    C     0.39080   0.35120   0.18460   0.01267  Uiso   1.00
C14    C     0.46330   0.31950   0.13330   0.01267  Uiso   1.00
C15    C     0.41960   0.22500   0.07620   0.01267  Uiso   1.00
C16    C     0.38740   0.47900   0.30630   0.01267  Uiso   1.00
C17    C     0.29200   0.81830   0.02300   0.01267  Uiso   1.00
C18    C     0.30980   0.76880   0.08520   0.01267  Uiso   1.00
C19    C     0.42870   0.77850   0.12140   0.01267  Uiso   1.00
C20    C     0.44980   0.73360   0.17980   0.01267  Uiso   1.00
C21    C     0.34990   0.68140   0.20420   0.01267  Uiso   1.00
C22    C     0.23210   0.67380   0.17000   0.01267  Uiso   1.00
C23    C     0.21220   0.71700   0.11120   0.01267  Uiso   1.00
C24    C     0.48210   0.64320   0.29910   0.01267  Uiso   1.00
C25    C     0.00630   0.82770   0.76250   0.01267  Uiso   1.00
C26    C     0.92370   0.78850   0.67380   0.01267  Uiso   1.00
C27    C     0.87250   0.68930   0.62930   0.01267  Uiso   1.00
C28    C     0.79430   0.65220   0.54780   0.01267  Uiso   1.00
C29    C     0.76260   0.71210   0.51090   0.01267  Uiso   1.00
C30    C     0.81540   0.81270   0.55410   0.01267  Uiso   1.00
C31    C     0.89550   0.84970   0.63430   0.01267  Uiso   1.00
C32    C     0.59780   0.58590   0.39570   0.01267  Uiso   1.00
C33    C     0.46980   0.58270   0.35793   0.01267  Uiso   1.00
C34    C     0.60800   0.13630   0.19180   0.01267  Uiso   1.00
C35    C     0.58430   0.18060   0.27440   0.01267  Uiso   1.00
C36    C     0.67780   0.25340   0.34320   0.01267  Uiso   1.00
C37    C     0.65510   0.29770   0.42170   0.01267  Uiso   1.00
C38    C     0.53600   0.26640   0.42810   0.01267  Uiso   1.00
C39    C     0.43860   0.19310   0.36150   0.01267  Uiso   1.00
C40    C     0.46430   0.14980   0.28380   0.01267  Uiso   1.00
C41    C     0.58320   0.37530   0.57020   0.01267  Uiso   1.00
C42    C     0.74450   0.93970   0.99210   0.01267  Uiso   1.00
C43    C     0.69800   0.83710   0.93110   0.01267  Uiso   1.00
C44    C     0.77210   0.80450   0.88170   0.01267  Uiso   1.00
C45    C     0.72730   0.70950   0.82270   0.01267  Uiso   1.00
C46    C     0.60920   0.64880   0.81540   0.01267  Uiso   1.00
C47    C     0.53670   0.68050   0.86670   0.01267  Uiso   1.00
C48    C     0.58040   0.77500   0.92380   0.01267  Uiso   1.00
C49    C     0.61260   0.52100   0.69370   0.01267  Uiso   1.00
C50    C     0.70800   0.18170   0.97700   0.01267  Uiso   1.00
C51    C     0.69020   0.23120   0.91480   0.01267  Uiso   1.00
C52    C     0.57130   0.22150   0.87860   0.01267  Uiso   1.00
C53    C     0.55020   0.26640   0.82020   0.01267  Uiso   1.00
C54    C     0.65010   0.31860   0.79580   0.01267  Uiso   1.00
C55    C     0.76790   0.32620   0.83000   0.01267  Uiso   1.00
C56    C     0.78780   0.28300   0.88880   0.01267  Uiso   1.00
C57    C     0.51790   0.35680   0.70090   0.01267  Uiso   1.00
C58    C     0.99370   0.17230   0.23750   0.01267  Uiso   1.00
C59    C     0.07630   0.21150   0.32620   0.01267  Uiso   1.00
C60    C     0.12750   0.31070   0.37070   0.01267  Uiso   1.00
C61    C     0.20570   0.34780   0.45220   0.01267  Uiso   1.00
C62    C     0.23740   0.28790   0.48910   0.01267  Uiso   1.00
C63    C     0.18460   0.18730   0.44590   0.01267  Uiso   1.00
C64    C     0.10450   0.15030   0.36570   0.01267  Uiso   1.00
C65    C     0.40220   0.41410   0.60430   0.01267  Uiso   1.00
C66    C     0.53020   0.41730   0.64207   0.01267  Uiso   1.00
O1     O     0.48470   0.92830   0.86593   0.01267  Uiso   1.00
O2     O     0.28280   0.84312   0.81300   0.01267  Uiso   1.00
O3     O     0.49770   0.69950   0.49700   0.01267  Uiso   1.00
O4     O     0.14570   0.00448   0.99632   0.01267  Uiso   1.00
O5     O     0.32780   0.03047   0.96701   0.01267  Uiso   1.00
O6     O     0.44490   0.44530   0.24080   0.01267  Uiso   1.00
O7     O     0.38540   0.86693   0.00560   0.01267  Uiso   1.00
O8     O     0.18290   0.80880   0.98966   0.01267  Uiso   1.00
O9     O     0.36050   0.63500   0.26228   0.01267  Uiso   1.00
O10    O     0.06570   0.91797   0.79845   0.01267  Uiso   1.00
O11    O     0.01680   0.76995   0.80061   0.01267  Uiso   1.00
O12    O     0.68260   0.68240   0.43248   0.01267  Uiso   1.00
O13    O     0.51530   0.07170   0.13407   0.01267  Uiso   1.00
O14    O     0.71720   0.15688   0.18700   0.01267  Uiso   1.00
O15    O     0.50230   0.30050   0.50300   0.01267  Uiso   1.00
O16    O     0.85430   0.99552   0.00368   0.01267  Uiso   1.00
O17    O     0.67220   0.96953   0.03299   0.01267  Uiso   1.00
O18    O     0.55510   0.55470   0.75920   0.01267  Uiso   1.00
O19    O     0.61460   0.13307   0.99440   0.01267  Uiso   1.00
O20    O     0.81710   0.19120   0.01034   0.01267  Uiso   1.00
O21    O     0.63950   0.36500   0.73772   0.01267  Uiso   1.00
O22    O     0.93430   0.08203   0.20155   0.01267  Uiso   1.00
O23    O     0.98320   0.23005   0.19939   0.01267  Uiso   1.00
O24    O     0.31740   0.31760   0.56752   0.01267  Uiso   1.00
H49    H     0.95510   0.82240   0.13790   0.01267  Uiso   1.00
H50    H     0.88040   0.83270   0.05550   0.01267  Uiso   1.00
H51    H     0.00490   0.81080   0.05250   0.01267  Uiso   1.00
H52    H     0.20870   0.94870   0.15020   0.01267  Uiso   1.00
H53    H     0.19230   0.04390   0.20940   0.01267  Uiso   1.00
H54    H     0.14080   0.94390   0.22640   0.01267  Uiso   1.00
C67    C     0.96290   0.84530   0.08930   0.01267  Uiso   1.00
C68    C     0.15410   0.97310   0.18200   0.01267  Uiso   1.00
N1     N     0.03310   0.94680   0.12110   0.01267  Uiso   1.00
H55    H     0.04490   0.17760   0.86210   0.01267  Uiso   1.00
H56    H     0.11960   0.16730   0.94450   0.01267  Uiso   1.00
H57    H     0.99510   0.18920   0.94750   0.01267  Uiso   1.00
H58    H     0.79130   0.05130   0.84980   0.01267  Uiso   1.00
H59    H     0.80770   0.95610   0.79060   0.01267  Uiso   1.00
H60    H     0.85920   0.05610   0.77360   0.01267  Uiso   1.00
C69    C     0.03710   0.15470   0.91070   0.01267  Uiso   1.00
C70    C     0.84590   0.02690   0.81800   0.01267  Uiso   1.00
N2     N     0.96690   0.05320   0.87890   0.01267  Uiso   1.00
