data_image0
_cell_length_a       16.813
_cell_length_b       12.986
_cell_length_c       11.845
_cell_angle_alpha    90
_cell_angle_beta     107.64
_cell_angle_gamma    90

_symmetry_space_group_name_H-M    "P 1"
_symmetry_int_tables_number       1

loop_
  _symmetry_equiv_pos_as_xyz
  'x, y, z'

loop_
  _atom_site_label
  _atom_site_occupancy
  _atom_site_fract_x
  _atom_site_fract_y
  _atom_site_fract_z
  _atom_site_thermal_displace_type
  _atom_site_B_iso_or_equiv
  _atom_site_type_symbol
  N1       1.0000 0.03937  0.04708  0.18322  Biso   1.000  N
  N2       1.0000 0.87830  0.06535  0.97930  Biso   1.000  N
  N3       1.0000 0.77408  0.11142  0.04560  Biso   1.000  N
  N4       1.0000 0.61268  0.25049  0.36864  Biso   1.000  N
  N5       1.0000 0.55015  0.35903  0.45705  Biso   1.000  N
  C1       1.0000 0.85656  0.12110  0.05760  Biso   1.000  C
  H1       1.0000 0.89320  0.16220  0.11440  Biso   1.000  H
  C2       1.0000 0.65523  0.21380  0.28850  Biso   1.000  C
  C3       1.0000 0.73304  0.14850  0.12720  Biso   1.000  C
  C4       1.0000 0.66259  0.09780  0.13620  Biso   1.000  C
  H2       1.0000 0.64140  0.04190  0.08730  Biso   1.000  H
  C5       1.0000 0.57890  0.19380  0.44040  Biso   1.000  C
  H3       1.0000 0.58110  0.12260  0.44960  Biso   1.000  H
  C6       1.0000 0.59334  0.34910  0.38180  Biso   1.000  C
  H4       1.0000 0.60860  0.40390  0.34230  Biso   1.000  H
  C7       1.0000 0.62395  0.13010  0.21700  Biso   1.000  C
  H5       1.0000 0.57700  0.09570  0.22350  Biso   1.000  H
  C8       1.0000 0.54197  0.26110  0.49480  Biso   1.000  C
  H6       1.0000 0.51490  0.24370  0.55000  Biso   1.000  H
  C9       1.0000 0.80568  0.01900  0.91180  Biso   1.000  C
  H7       1.0000 0.80190  0.97530  0.84820  Biso   1.000  H
  C10      1.0000 0.74119  0.04570  0.95040  Biso   1.000  C
  H8       1.0000 0.68600  0.02460  0.91970  Biso   1.000  H
  C11      1.0000 0.72636  0.26230  0.28160  Biso   1.000  C
  H9       1.0000 0.74840  0.31720  0.33170  Biso   1.000  H
  C12      1.0000 0.76516  0.22980  0.20030  Biso   1.000  C
  H10      1.0000 0.81300  0.26300  0.19540  Biso   1.000  H
  N6       1.0000 0.53937  0.54708  0.18322  Biso   1.000  N
  N7       1.0000 0.37830  0.56535  0.97930  Biso   1.000  N
  N8       1.0000 0.27408  0.61142  0.04560  Biso   1.000  N
  N9       1.0000 0.11268  0.75049  0.36864  Biso   1.000  N
  N10      1.0000 0.05015  0.85903  0.45705  Biso   1.000  N
  C13      1.0000 0.35656  0.62110  0.05760  Biso   1.000  C
  H11      1.0000 0.39320  0.66220  0.11440  Biso   1.000  H
  C14      1.0000 0.15523  0.71380  0.28850  Biso   1.000  C
  C15      1.0000 0.23304  0.64850  0.12720  Biso   1.000  C
  C16      1.0000 0.16259  0.59780  0.13620  Biso   1.000  C
  H12      1.0000 0.14140  0.54190  0.08730  Biso   1.000  H
  C17      1.0000 0.07890  0.69380  0.44040  Biso   1.000  C
  H13      1.0000 0.08110  0.62260  0.44960  Biso   1.000  H
  C18      1.0000 0.09334  0.84910  0.38180  Biso   1.000  C
  H14      1.0000 0.10860  0.90390  0.34230  Biso   1.000  H
  C19      1.0000 0.12395  0.63010  0.21700  Biso   1.000  C
  H15      1.0000 0.07700  0.59570  0.22350  Biso   1.000  H
  C20      1.0000 0.04197  0.76110  0.49480  Biso   1.000  C
  H16      1.0000 0.01490  0.74370  0.55000  Biso   1.000  H
  C21      1.0000 0.30568  0.51900  0.91180  Biso   1.000  C
  H17      1.0000 0.30190  0.47530  0.84820  Biso   1.000  H
  C22      1.0000 0.24119  0.54570  0.95040  Biso   1.000  C
  H18      1.0000 0.18600  0.52460  0.91970  Biso   1.000  H
  C23      1.0000 0.22636  0.76230  0.28160  Biso   1.000  C
  H19      1.0000 0.24840  0.81720  0.33170  Biso   1.000  H
  C24      1.0000 0.26516  0.72980  0.20030  Biso   1.000  C
  H20      1.0000 0.31300  0.76300  0.19540  Biso   1.000  H
  N11      1.0000 0.96063  0.04708  0.31678  Biso   1.000  N
  N12      1.0000 0.12170  0.06535  0.52070  Biso   1.000  N
  N13      1.0000 0.22592  0.11142  0.45440  Biso   1.000  N
  N14      1.0000 0.38732  0.25049  0.13136  Biso   1.000  N
  N15      1.0000 0.44985  0.35903  0.04295  Biso   1.000  N
  C25      1.0000 0.14344  0.12110  0.44240  Biso   1.000  C
  H21      1.0000 0.10680  0.16220  0.38560  Biso   1.000  H
  C26      1.0000 0.34477  0.21380  0.21150  Biso   1.000  C
  C27      1.0000 0.26696  0.14850  0.37280  Biso   1.000  C
  C28      1.0000 0.33741  0.09780  0.36380  Biso   1.000  C
  H22      1.0000 0.35860  0.04190  0.41270  Biso   1.000  H
  C29      1.0000 0.42110  0.19380  0.05960  Biso   1.000  C
  H23      1.0000 0.41890  0.12260  0.05040  Biso   1.000  H
  C30      1.0000 0.40666  0.34910  0.11820  Biso   1.000  C
  H24      1.0000 0.39140  0.40390  0.15770  Biso   1.000  H
  C31      1.0000 0.37605  0.13010  0.28300  Biso   1.000  C
  H25      1.0000 0.42300  0.09570  0.27650  Biso   1.000  H
  C32      1.0000 0.45803  0.26110  0.00520  Biso   1.000  C
  H26      1.0000 0.48510  0.24370  0.95000  Biso   1.000  H
  C33      1.0000 0.19432  0.01900  0.58820  Biso   1.000  C
  H27      1.0000 0.19810  0.97530  0.65180  Biso   1.000  H
  C34      1.0000 0.25881  0.04570  0.54960  Biso   1.000  C
  H28      1.0000 0.31400  0.02460  0.58030  Biso   1.000  H
  C35      1.0000 0.27364  0.26230  0.21840  Biso   1.000  C
  H29      1.0000 0.25160  0.31720  0.16830  Biso   1.000  H
  C36      1.0000 0.23484  0.22980  0.29970  Biso   1.000  C
  H30      1.0000 0.18700  0.26300  0.30460  Biso   1.000  H
  N16      1.0000 0.46063  0.54708  0.31678  Biso   1.000  N
  N17      1.0000 0.62170  0.56535  0.52070  Biso   1.000  N
  N18      1.0000 0.72592  0.61142  0.45440  Biso   1.000  N
  N19      1.0000 0.88732  0.75049  0.13136  Biso   1.000  N
  N20      1.0000 0.94985  0.85903  0.04295  Biso   1.000  N
  C37      1.0000 0.64344  0.62110  0.44240  Biso   1.000  C
  H31      1.0000 0.60680  0.66220  0.38560  Biso   1.000  H
  C38      1.0000 0.84477  0.71380  0.21150  Biso   1.000  C
  C39      1.0000 0.76696  0.64850  0.37280  Biso   1.000  C
  C40      1.0000 0.83741  0.59780  0.36380  Biso   1.000  C
  H32      1.0000 0.85860  0.54190  0.41270  Biso   1.000  H
  C41      1.0000 0.92110  0.69380  0.05960  Biso   1.000  C
  H33      1.0000 0.91890  0.62260  0.05040  Biso   1.000  H
  C42      1.0000 0.90666  0.84910  0.11820  Biso   1.000  C
  H34      1.0000 0.89140  0.90390  0.15770  Biso   1.000  H
  C43      1.0000 0.87605  0.63010  0.28300  Biso   1.000  C
  H35      1.0000 0.92300  0.59570  0.27650  Biso   1.000  H
  C44      1.0000 0.95803  0.76110  0.00520  Biso   1.000  C
  H36      1.0000 0.98510  0.74370  0.95000  Biso   1.000  H
  C45      1.0000 0.69432  0.51900  0.58820  Biso   1.000  C
  H37      1.0000 0.69810  0.47530  0.65180  Biso   1.000  H
  C46      1.0000 0.75881  0.54570  0.54960  Biso   1.000  C
  H38      1.0000 0.81400  0.52460  0.58030  Biso   1.000  H
  C47      1.0000 0.77364  0.76230  0.21840  Biso   1.000  C
  H39      1.0000 0.75160  0.81720  0.16830  Biso   1.000  H
  C48      1.0000 0.73484  0.72980  0.29970  Biso   1.000  C
  H40      1.0000 0.68700  0.76300  0.30460  Biso   1.000  H
  N21      1.0000 0.96063  0.95292  0.81678  Biso   1.000  N
  N22      1.0000 0.12170  0.93465  0.02070  Biso   1.000  N
  N23      1.0000 0.22592  0.88858  0.95440  Biso   1.000  N
  N24      1.0000 0.38732  0.74951  0.63136  Biso   1.000  N
  N25      1.0000 0.44985  0.64097  0.54295  Biso   1.000  N
  C49      1.0000 0.14344  0.87890  0.94240  Biso   1.000  C
  H41      1.0000 0.10680  0.83780  0.88560  Biso   1.000  H
  C50      1.0000 0.34477  0.78620  0.71150  Biso   1.000  C
  C51      1.0000 0.26696  0.85150  0.87280  Biso   1.000  C
  C52      1.0000 0.33741  0.90220  0.86380  Biso   1.000  C
  H42      1.0000 0.35860  0.95810  0.91270  Biso   1.000  H
  C53      1.0000 0.42110  0.80620  0.55960  Biso   1.000  C
  H43      1.0000 0.41890  0.87740  0.55040  Biso   1.000  H
  C54      1.0000 0.40666  0.65090  0.61820  Biso   1.000  C
  H44      1.0000 0.39140  0.59610  0.65770  Biso   1.000  H
  C55      1.0000 0.37605  0.86990  0.78300  Biso   1.000  C
  H45      1.0000 0.42300  0.90430  0.77650  Biso   1.000  H
  C56      1.0000 0.45803  0.73890  0.50520  Biso   1.000  C
  H46      1.0000 0.48510  0.75630  0.45000  Biso   1.000  H
  C57      1.0000 0.19432  0.98100  0.08820  Biso   1.000  C
  H47      1.0000 0.19810  0.02470  0.15180  Biso   1.000  H
  C58      1.0000 0.25881  0.95430  0.04960  Biso   1.000  C
  H48      1.0000 0.31400  0.97540  0.08030  Biso   1.000  H
  C59      1.0000 0.27364  0.73770  0.71840  Biso   1.000  C
  H49      1.0000 0.25160  0.68280  0.66830  Biso   1.000  H
  C60      1.0000 0.23484  0.77020  0.79970  Biso   1.000  C
  H50      1.0000 0.18700  0.73700  0.80460  Biso   1.000  H
  N26      1.0000 0.46063  0.45292  0.81678  Biso   1.000  N
  N27      1.0000 0.62170  0.43465  0.02070  Biso   1.000  N
  N28      1.0000 0.72592  0.38858  0.95440  Biso   1.000  N
  N29      1.0000 0.88732  0.24951  0.63136  Biso   1.000  N
  N30      1.0000 0.94985  0.14097  0.54295  Biso   1.000  N
  C61      1.0000 0.64344  0.37890  0.94240  Biso   1.000  C
  H51      1.0000 0.60680  0.33780  0.88560  Biso   1.000  H
  C62      1.0000 0.84477  0.28620  0.71150  Biso   1.000  C
  C63      1.0000 0.76696  0.35150  0.87280  Biso   1.000  C
  C64      1.0000 0.83741  0.40220  0.86380  Biso   1.000  C
  H52      1.0000 0.85860  0.45810  0.91270  Biso   1.000  H
  C65      1.0000 0.92110  0.30620  0.55960  Biso   1.000  C
  H53      1.0000 0.91890  0.37740  0.55040  Biso   1.000  H
  C66      1.0000 0.90666  0.15090  0.61820  Biso   1.000  C
  H54      1.0000 0.89140  0.09610  0.65770  Biso   1.000  H
  C67      1.0000 0.87605  0.36990  0.78300  Biso   1.000  C
  H55      1.0000 0.92300  0.40430  0.77650  Biso   1.000  H
  C68      1.0000 0.95803  0.23890  0.50520  Biso   1.000  C
  H56      1.0000 0.98510  0.25630  0.45000  Biso   1.000  H
  C69      1.0000 0.69432  0.48100  0.08820  Biso   1.000  C
  H57      1.0000 0.69810  0.52470  0.15180  Biso   1.000  H
  C70      1.0000 0.75881  0.45430  0.04960  Biso   1.000  C
  H58      1.0000 0.81400  0.47540  0.08030  Biso   1.000  H
  C71      1.0000 0.77364  0.23770  0.71840  Biso   1.000  C
  H59      1.0000 0.75160  0.18280  0.66830  Biso   1.000  H
  C72      1.0000 0.73484  0.27020  0.79970  Biso   1.000  C
  H60      1.0000 0.68700  0.23700  0.80460  Biso   1.000  H
  N31      1.0000 0.03937  0.95292  0.68322  Biso   1.000  N
  N32      1.0000 0.87830  0.93465  0.47930  Biso   1.000  N
  N33      1.0000 0.77408  0.88858  0.54560  Biso   1.000  N
  N34      1.0000 0.61268  0.74951  0.86864  Biso   1.000  N
  N35      1.0000 0.55015  0.64097  0.95705  Biso   1.000  N
  C73      1.0000 0.85656  0.87890  0.55760  Biso   1.000  C
  H61      1.0000 0.89320  0.83780  0.61440  Biso   1.000  H
  C74      1.0000 0.65523  0.78620  0.78850  Biso   1.000  C
  C75      1.0000 0.73304  0.85150  0.62720  Biso   1.000  C
  C76      1.0000 0.66259  0.90220  0.63620  Biso   1.000  C
  H62      1.0000 0.64140  0.95810  0.58730  Biso   1.000  H
  C77      1.0000 0.57890  0.80620  0.94040  Biso   1.000  C
  H63      1.0000 0.58110  0.87740  0.94960  Biso   1.000  H
  C78      1.0000 0.59334  0.65090  0.88180  Biso   1.000  C
  H64      1.0000 0.60860  0.59610  0.84230  Biso   1.000  H
  C79      1.0000 0.62395  0.86990  0.71700  Biso   1.000  C
  H65      1.0000 0.57700  0.90430  0.72350  Biso   1.000  H
  C80      1.0000 0.54197  0.73890  0.99480  Biso   1.000  C
  H66      1.0000 0.51490  0.75630  0.05000  Biso   1.000  H
  C81      1.0000 0.80568  0.98100  0.41180  Biso   1.000  C
  H67      1.0000 0.80190  0.02470  0.34820  Biso   1.000  H
  C82      1.0000 0.74119  0.95430  0.45040  Biso   1.000  C
  H68      1.0000 0.68600  0.97540  0.41970  Biso   1.000  H
  C83      1.0000 0.72636  0.73770  0.78160  Biso   1.000  C
  H69      1.0000 0.74840  0.68280  0.83170  Biso   1.000  H
  C84      1.0000 0.76516  0.77020  0.70030  Biso   1.000  C
  H70      1.0000 0.81300  0.73700  0.69540  Biso   1.000  H
  N36      1.0000 0.53937  0.45292  0.68322  Biso   1.000  N
  N37      1.0000 0.37830  0.43465  0.47930  Biso   1.000  N
  N38      1.0000 0.27408  0.38858  0.54560  Biso   1.000  N
  N39      1.0000 0.11268  0.24951  0.86864  Biso   1.000  N
  N40      1.0000 0.05015  0.14097  0.95705  Biso   1.000  N
  C85      1.0000 0.35656  0.37890  0.55760  Biso   1.000  C
  H71      1.0000 0.39320  0.33780  0.61440  Biso   1.000  H
  C86      1.0000 0.15523  0.28620  0.78850  Biso   1.000  C
  C87      1.0000 0.23304  0.35150  0.62720  Biso   1.000  C
  C88      1.0000 0.16259  0.40220  0.63620  Biso   1.000  C
  H72      1.0000 0.14140  0.45810  0.58730  Biso   1.000  H
  C89      1.0000 0.07890  0.30620  0.94040  Biso   1.000  C
  H73      1.0000 0.08110  0.37740  0.94960  Biso   1.000  H
  C90      1.0000 0.09334  0.15090  0.88180  Biso   1.000  C
  H74      1.0000 0.10860  0.09610  0.84230  Biso   1.000  H
  C91      1.0000 0.12395  0.36990  0.71700  Biso   1.000  C
  H75      1.0000 0.07700  0.40430  0.72350  Biso   1.000  H
  C92      1.0000 0.04197  0.23890  0.99480  Biso   1.000  C
  H76      1.0000 0.01490  0.25630  0.05000  Biso   1.000  H
  C93      1.0000 0.30568  0.48100  0.41180  Biso   1.000  C
  H77      1.0000 0.30190  0.52470  0.34820  Biso   1.000  H
  C94      1.0000 0.24119  0.45430  0.45040  Biso   1.000  C
  H78      1.0000 0.18600  0.47540  0.41970  Biso   1.000  H
  C95      1.0000 0.22636  0.23770  0.78160  Biso   1.000  C
  H79      1.0000 0.24840  0.18280  0.83170  Biso   1.000  H
  C96      1.0000 0.26516  0.27020  0.70030  Biso   1.000  C
  H80      1.0000 0.31300  0.23700  0.69540  Biso   1.000  H
  Co1      1.0000 0.00000  0.00000  0.00000  Biso   1.000  Co
  Co2      1.0000 0.50000  0.50000  0.00000  Biso   1.000  Co
  Co3      1.0000 0.00000  0.00000  0.50000  Biso   1.000  Co
  Co4      1.0000 0.50000  0.50000  0.50000  Biso   1.000  Co
  N41      1.0000 0.00000  0.04610  0.25000  Biso   1.000  N
  N42      1.0000 0.50000  0.54610  0.25000  Biso   1.000  N
  N43      1.0000 0.00000  0.95390  0.75000  Biso   1.000  N
  N44      1.0000 0.50000  0.45390  0.75000  Biso   1.000  N
