data_image0
_cell_length_a       11.4992
_cell_length_b       11.4992
_cell_length_c       12.7341
_cell_angle_alpha    90
_cell_angle_beta     90
_cell_angle_gamma    90

_symmetry_space_group_name_H-M    "P 1"
_symmetry_int_tables_number       1

loop_
  _symmetry_equiv_pos_as_xyz
  'x, y, z'

loop_
  _atom_site_label
  _atom_site_occupancy
  _atom_site_fract_x
  _atom_site_fract_y
  _atom_site_fract_z
  _atom_site_thermal_displace_type
  _atom_site_B_iso_or_equiv
  _atom_site_type_symbol
  N1       1.0000 0.69870  0.50050  0.82100  Biso   1.000  N
  N2       1.0000 0.79280  0.70290  0.91100  Biso   1.000  N
  N3       1.0000 0.39660  0.50570  0.08550  Biso   1.000  N
  C1       1.0000 0.78990  0.55560  0.78070  Biso   1.000  C
  H1       1.0000 0.82380  0.52570  0.72020  Biso   1.000  H
  C2       1.0000 0.83740  0.65640  0.82490  Biso   1.000  C
  H2       1.0000 0.90130  0.69130  0.79320  Biso   1.000  H
  C3       1.0000 0.69900  0.64880  0.95280  Biso   1.000  C
  C4       1.0000 0.54900  0.65250  0.09090  Biso   1.000  C
  C5       1.0000 0.49630  0.54990  0.04340  Biso   1.000  C
  C6       1.0000 0.35530  0.41040  0.04330  Biso   1.000  C
  H3       1.0000 0.37770  0.28790  0.92920  Biso   1.000  H
  N4       1.0000 0.30130  0.49950  0.32100  Biso   1.000  N
  N5       1.0000 0.20720  0.29710  0.41100  Biso   1.000  N
  N6       1.0000 0.60340  0.49430  0.58550  Biso   1.000  N
  C7       1.0000 0.21010  0.44440  0.28070  Biso   1.000  C
  H4       1.0000 0.17620  0.47430  0.22020  Biso   1.000  H
  C8       1.0000 0.16260  0.34360  0.32490  Biso   1.000  C
  H5       1.0000 0.09870  0.30870  0.29320  Biso   1.000  H
  C9       1.0000 0.30100  0.35120  0.45280  Biso   1.000  C
  C10      1.0000 0.45100  0.34750  0.59090  Biso   1.000  C
  C11      1.0000 0.50370  0.45010  0.54340  Biso   1.000  C
  C12      1.0000 0.64470  0.58960  0.54330  Biso   1.000  C
  H6       1.0000 0.62230  0.71210  0.42920  Biso   1.000  H
  N7       1.0000 0.99950  0.19870  0.57100  Biso   1.000  N
  N8       1.0000 0.79710  0.29280  0.66100  Biso   1.000  N
  N9       1.0000 0.99430  0.89660  0.83550  Biso   1.000  N
  C13      1.0000 0.94440  0.28990  0.53070  Biso   1.000  C
  H7       1.0000 0.97430  0.32380  0.47020  Biso   1.000  H
  C14      1.0000 0.84360  0.33740  0.57490  Biso   1.000  C
  H8       1.0000 0.80870  0.40130  0.54320  Biso   1.000  H
  C15      1.0000 0.85120  0.19900  0.70280  Biso   1.000  C
  C16      1.0000 0.84750  0.04900  0.84090  Biso   1.000  C
  C17      1.0000 0.95010  0.99630  0.79340  Biso   1.000  C
  C18      1.0000 0.08960  0.85530  0.79330  Biso   1.000  C
  H9       1.0000 0.21210  0.87770  0.67920  Biso   1.000  H
  N10      1.0000 0.00050  0.80130  0.07100  Biso   1.000  N
  N11      1.0000 0.20290  0.70720  0.16100  Biso   1.000  N
  N12      1.0000 0.00570  0.10340  0.33550  Biso   1.000  N
  C19      1.0000 0.05560  0.71010  0.03070  Biso   1.000  C
  H10      1.0000 0.02570  0.67620  0.97020  Biso   1.000  H
  C20      1.0000 0.15640  0.66260  0.07490  Biso   1.000  C
  H11      1.0000 0.19130  0.59870  0.04320  Biso   1.000  H
  C21      1.0000 0.14880  0.80100  0.20280  Biso   1.000  C
  C22      1.0000 0.15250  0.95100  0.34090  Biso   1.000  C
  C23      1.0000 0.04990  0.00370  0.29340  Biso   1.000  C
  C24      1.0000 0.91040  0.14470  0.29330  Biso   1.000  C
  H12      1.0000 0.78790  0.12230  0.17920  Biso   1.000  H
  N13      1.0000 0.80130  0.00050  0.92900  Biso   1.000  N
  N14      1.0000 0.70720  0.20290  0.83900  Biso   1.000  N
  N15      1.0000 0.10340  0.00570  0.66450  Biso   1.000  N
  C25      1.0000 0.71010  0.05560  0.96930  Biso   1.000  C
  H13      1.0000 0.67620  0.02570  0.02980  Biso   1.000  H
  C26      1.0000 0.66260  0.15640  0.92510  Biso   1.000  C
  H14      1.0000 0.59870  0.19130  0.95680  Biso   1.000  H
  C27      1.0000 0.80100  0.14880  0.79720  Biso   1.000  C
  C28      1.0000 0.95100  0.15250  0.65910  Biso   1.000  C
  C29      1.0000 0.00370  0.04990  0.70660  Biso   1.000  C
  C30      1.0000 0.14470  0.91040  0.70670  Biso   1.000  C
  H15      1.0000 0.12230  0.78790  0.82080  Biso   1.000  H
  N16      1.0000 0.19870  0.99950  0.42900  Biso   1.000  N
  N17      1.0000 0.29280  0.79710  0.33900  Biso   1.000  N
  N18      1.0000 0.89660  0.99430  0.16450  Biso   1.000  N
  C31      1.0000 0.28990  0.94440  0.46930  Biso   1.000  C
  H16      1.0000 0.32380  0.97430  0.52980  Biso   1.000  H
  C32      1.0000 0.33740  0.84360  0.42510  Biso   1.000  C
  H17      1.0000 0.40130  0.80870  0.45680  Biso   1.000  H
  C33      1.0000 0.19900  0.85120  0.29720  Biso   1.000  C
  C34      1.0000 0.04900  0.84750  0.15910  Biso   1.000  C
  C35      1.0000 0.99630  0.95010  0.20660  Biso   1.000  C
  C36      1.0000 0.85530  0.08960  0.20670  Biso   1.000  C
  H18      1.0000 0.87770  0.21210  0.32080  Biso   1.000  H
  N19      1.0000 0.50050  0.69870  0.17900  Biso   1.000  N
  N20      1.0000 0.70290  0.79280  0.08900  Biso   1.000  N
  N21      1.0000 0.50570  0.39660  0.91450  Biso   1.000  N
  C37      1.0000 0.55560  0.78990  0.21930  Biso   1.000  C
  H19      1.0000 0.52570  0.82380  0.27980  Biso   1.000  H
  C38      1.0000 0.65640  0.83740  0.17510  Biso   1.000  C
  H20      1.0000 0.69130  0.90130  0.20680  Biso   1.000  H
  C39      1.0000 0.64880  0.69900  0.04720  Biso   1.000  C
  C40      1.0000 0.65250  0.54900  0.90910  Biso   1.000  C
  C41      1.0000 0.54990  0.49630  0.95660  Biso   1.000  C
  C42      1.0000 0.41040  0.35530  0.95670  Biso   1.000  C
  H21      1.0000 0.28790  0.37770  0.07080  Biso   1.000  H
  N22      1.0000 0.49950  0.30130  0.67900  Biso   1.000  N
  N23      1.0000 0.29710  0.20720  0.58900  Biso   1.000  N
  N24      1.0000 0.49430  0.60340  0.41450  Biso   1.000  N
  C43      1.0000 0.44440  0.21010  0.71930  Biso   1.000  C
  H22      1.0000 0.47430  0.17620  0.77980  Biso   1.000  H
  C44      1.0000 0.34360  0.16260  0.67510  Biso   1.000  C
  H23      1.0000 0.30870  0.09870  0.70680  Biso   1.000  H
  C45      1.0000 0.35120  0.30100  0.54720  Biso   1.000  C
  C46      1.0000 0.34750  0.45100  0.40910  Biso   1.000  C
  C47      1.0000 0.45010  0.50370  0.45660  Biso   1.000  C
  C48      1.0000 0.58960  0.64470  0.45670  Biso   1.000  C
  H24      1.0000 0.71210  0.62230  0.57080  Biso   1.000  H
  Cu1      1.0000 0.64734  0.35266  0.75000  Biso   1.000  Cu
  Cu2      1.0000 0.35266  0.64734  0.25000  Biso   1.000  Cu
  Cu3      1.0000 0.14734  0.14734  0.50000  Biso   1.000  Cu
  Cu4      1.0000 0.85266  0.85266  0.00000  Biso   1.000  Cu
