data_image0
_cell_length_a       17.2999
_cell_length_b       18.0396
_cell_length_c       24.677
_cell_angle_alpha    90
_cell_angle_beta     90
_cell_angle_gamma    90

_symmetry_space_group_name_H-M    P 1
_symmetry_int_tables_number       1

loop_
  _symmetry_equiv_pos_as_xyz
  'x, y, z'

loop_
  _atom_site_label
  _atom_site_occupancy
  _atom_site_fract_x
  _atom_site_fract_y
  _atom_site_fract_z
  _atom_site_thermal_displace_type
  _atom_site_B_iso_or_equiv
  _atom_site_type_symbol
  V1       1.0000 0.83683  0.30552  0.90768  Biso   1.000  V
  V2       1.0000 0.90420  0.30175  0.02313  Biso   1.000  V
  V3       1.0000 0.68179  0.38637  0.88494  Biso   1.000  V
  V4       1.0000 0.68206  0.21670  0.88556  Biso   1.000  V
  V5       1.0000 0.33683  0.19448  0.59232  Biso   1.000  V
  V6       1.0000 0.40420  0.19825  0.47687  Biso   1.000  V
  V7       1.0000 0.18179  0.11363  0.61506  Biso   1.000  V
  V8       1.0000 0.18206  0.28330  0.61444  Biso   1.000  V
  V9       1.0000 0.66317  0.30552  0.09232  Biso   1.000  V
  V10      1.0000 0.59580  0.30175  0.97687  Biso   1.000  V
  V11      1.0000 0.81821  0.38637  0.11506  Biso   1.000  V
  V12      1.0000 0.81794  0.21670  0.11444  Biso   1.000  V
  V13      1.0000 0.16317  0.19448  0.40768  Biso   1.000  V
  V14      1.0000 0.09580  0.19825  0.52313  Biso   1.000  V
  V15      1.0000 0.31821  0.11363  0.38494  Biso   1.000  V
  V16      1.0000 0.31794  0.28330  0.38556  Biso   1.000  V
  V17      1.0000 0.16317  0.69448  0.09232  Biso   1.000  V
  V18      1.0000 0.09580  0.69825  0.97687  Biso   1.000  V
  V19      1.0000 0.31821  0.61363  0.11506  Biso   1.000  V
  V20      1.0000 0.31794  0.78330  0.11444  Biso   1.000  V
  V21      1.0000 0.66317  0.80552  0.40768  Biso   1.000  V
  V22      1.0000 0.59580  0.80175  0.52313  Biso   1.000  V
  V23      1.0000 0.81821  0.88637  0.38494  Biso   1.000  V
  V24      1.0000 0.81794  0.71670  0.38556  Biso   1.000  V
  V25      1.0000 0.33683  0.69448  0.90768  Biso   1.000  V
  V26      1.0000 0.40420  0.69825  0.02313  Biso   1.000  V
  V27      1.0000 0.18179  0.61363  0.88494  Biso   1.000  V
  V28      1.0000 0.18206  0.78330  0.88556  Biso   1.000  V
  V29      1.0000 0.83683  0.80552  0.59232  Biso   1.000  V
  V30      1.0000 0.90420  0.80175  0.47687  Biso   1.000  V
  V31      1.0000 0.68179  0.88637  0.61506  Biso   1.000  V
  V32      1.0000 0.68206  0.71670  0.61444  Biso   1.000  V
  V33      1.0000 0.75000  0.39299  0.00000  Biso   1.000  V
  V34      1.0000 0.75000  0.21193  0.00000  Biso   1.000  V
  V35      1.0000 0.25000  0.10701  0.50000  Biso   1.000  V
  V36      1.0000 0.25000  0.28807  0.50000  Biso   1.000  V
  V37      1.0000 0.25000  0.60701  0.00000  Biso   1.000  V
  V38      1.0000 0.25000  0.78807  0.00000  Biso   1.000  V
  V39      1.0000 0.75000  0.89299  0.50000  Biso   1.000  V
  V40      1.0000 0.75000  0.71193  0.50000  Biso   1.000  V
  Zn1      1.0000 0.69861  0.34922  0.66729  Biso   1.000  Zn
  Zn2      1.0000 0.85081  0.15052  0.83225  Biso   1.000  Zn
  Zn3      1.0000 0.90436  0.07078  0.70371  Biso   1.000  Zn
  Zn4      1.0000 0.19861  0.15078  0.83271  Biso   1.000  Zn
  Zn5      1.0000 0.35081  0.34948  0.66775  Biso   1.000  Zn
  Zn6      1.0000 0.40436  0.42922  0.79629  Biso   1.000  Zn
  Zn7      1.0000 0.80139  0.34922  0.33271  Biso   1.000  Zn
  Zn8      1.0000 0.64919  0.15052  0.16775  Biso   1.000  Zn
  Zn9      1.0000 0.59564  0.07078  0.29629  Biso   1.000  Zn
  Zn10     1.0000 0.30139  0.15078  0.16729  Biso   1.000  Zn
  Zn11     1.0000 0.14919  0.34948  0.33225  Biso   1.000  Zn
  Zn12     1.0000 0.09564  0.42922  0.20371  Biso   1.000  Zn
  Zn13     1.0000 0.30139  0.65078  0.33271  Biso   1.000  Zn
  Zn14     1.0000 0.14919  0.84948  0.16775  Biso   1.000  Zn
  Zn15     1.0000 0.09564  0.92922  0.29629  Biso   1.000  Zn
  Zn16     1.0000 0.80139  0.84922  0.16729  Biso   1.000  Zn
  Zn17     1.0000 0.64919  0.65052  0.33225  Biso   1.000  Zn
  Zn18     1.0000 0.59564  0.57078  0.20371  Biso   1.000  Zn
  Zn19     1.0000 0.19861  0.65078  0.66729  Biso   1.000  Zn
  Zn20     1.0000 0.35081  0.84948  0.83225  Biso   1.000  Zn
  Zn21     1.0000 0.40436  0.92922  0.70371  Biso   1.000  Zn
  Zn22     1.0000 0.69861  0.84922  0.83271  Biso   1.000  Zn
  Zn23     1.0000 0.85081  0.65052  0.66775  Biso   1.000  Zn
  Zn24     1.0000 0.90436  0.57078  0.79629  Biso   1.000  Zn
  H1       1.0000 0.74750  0.00890  0.87180  Biso   1.000  H
  H2       1.0000 0.74750  0.28250  0.77600  Biso   1.000  H
  H3       1.0000 0.79990  0.91800  0.73290  Biso   1.000  H
  H4       1.0000 0.09050  0.09540  0.73270  Biso   1.000  H
  H5       1.0000 0.80020  0.20030  0.63390  Biso   1.000  H
  H6       1.0000 0.02840  0.18980  0.86880  Biso   1.000  H
  H7       1.0000 0.98860  0.96050  0.62610  Biso   1.000  H
  H8       1.0000 0.09300  0.91880  0.74290  Biso   1.000  H
  H9       1.0000 0.17060  0.91400  0.70780  Biso   1.000  H
  H10      1.0000 0.12180  0.84050  0.72000  Biso   1.000  H
  H11      1.0000 0.07550  0.89600  0.58140  Biso   1.000  H
  H12      1.0000 0.09910  0.82220  0.61340  Biso   1.000  H
  H13      1.0000 0.15830  0.89030  0.61010  Biso   1.000  H
  H14      1.0000 0.24750  0.49110  0.62820  Biso   1.000  H
  H15      1.0000 0.24750  0.21750  0.72400  Biso   1.000  H
  H16      1.0000 0.29990  0.58200  0.76710  Biso   1.000  H
  H17      1.0000 0.59050  0.40460  0.76730  Biso   1.000  H
  H18      1.0000 0.30020  0.29970  0.86610  Biso   1.000  H
  H19      1.0000 0.52840  0.31020  0.63120  Biso   1.000  H
  H20      1.0000 0.48860  0.53950  0.87390  Biso   1.000  H
  H21      1.0000 0.59300  0.58120  0.75710  Biso   1.000  H
  H22      1.0000 0.67060  0.58600  0.79220  Biso   1.000  H
  H23      1.0000 0.62180  0.65950  0.78000  Biso   1.000  H
  H24      1.0000 0.57550  0.60400  0.91860  Biso   1.000  H
  H25      1.0000 0.59910  0.67780  0.88660  Biso   1.000  H
  H26      1.0000 0.65830  0.60970  0.88990  Biso   1.000  H
  H27      1.0000 0.75250  0.00890  0.12820  Biso   1.000  H
  H28      1.0000 0.75250  0.28250  0.22400  Biso   1.000  H
  H29      1.0000 0.70010  0.91800  0.26710  Biso   1.000  H
  H30      1.0000 0.40950  0.09540  0.26730  Biso   1.000  H
  H31      1.0000 0.69980  0.20030  0.36610  Biso   1.000  H
  H32      1.0000 0.47160  0.18980  0.13120  Biso   1.000  H
  H33      1.0000 0.51140  0.96050  0.37390  Biso   1.000  H
  H34      1.0000 0.40700  0.91880  0.25710  Biso   1.000  H
  H35      1.0000 0.32940  0.91400  0.29220  Biso   1.000  H
  H36      1.0000 0.37820  0.84050  0.28000  Biso   1.000  H
  H37      1.0000 0.42450  0.89600  0.41860  Biso   1.000  H
  H38      1.0000 0.40090  0.82220  0.38660  Biso   1.000  H
  H39      1.0000 0.34170  0.89030  0.38990  Biso   1.000  H
  H40      1.0000 0.25250  0.49110  0.37180  Biso   1.000  H
  H41      1.0000 0.25250  0.21750  0.27600  Biso   1.000  H
  H42      1.0000 0.20010  0.58200  0.23290  Biso   1.000  H
  H43      1.0000 0.90950  0.40460  0.23270  Biso   1.000  H
  H44      1.0000 0.19980  0.29970  0.13390  Biso   1.000  H
  H45      1.0000 0.97160  0.31020  0.36880  Biso   1.000  H
  H46      1.0000 0.01140  0.53950  0.12610  Biso   1.000  H
  H47      1.0000 0.90700  0.58120  0.24290  Biso   1.000  H
  H48      1.0000 0.82940  0.58600  0.20780  Biso   1.000  H
  H49      1.0000 0.87820  0.65950  0.22000  Biso   1.000  H
  H50      1.0000 0.92450  0.60400  0.08140  Biso   1.000  H
  H51      1.0000 0.90090  0.67780  0.11340  Biso   1.000  H
  H52      1.0000 0.84170  0.60970  0.11010  Biso   1.000  H
  H53      1.0000 0.25250  0.99110  0.12820  Biso   1.000  H
  H54      1.0000 0.25250  0.71750  0.22400  Biso   1.000  H
  H55      1.0000 0.20010  0.08200  0.26710  Biso   1.000  H
  H56      1.0000 0.90950  0.90460  0.26730  Biso   1.000  H
  H57      1.0000 0.19980  0.79970  0.36610  Biso   1.000  H
  H58      1.0000 0.97160  0.81020  0.13120  Biso   1.000  H
  H59      1.0000 0.01140  0.03950  0.37390  Biso   1.000  H
  H60      1.0000 0.90700  0.08120  0.25710  Biso   1.000  H
  H61      1.0000 0.82940  0.08600  0.29220  Biso   1.000  H
  H62      1.0000 0.87820  0.15950  0.28000  Biso   1.000  H
  H63      1.0000 0.92450  0.10400  0.41860  Biso   1.000  H
  H64      1.0000 0.90090  0.17780  0.38660  Biso   1.000  H
  H65      1.0000 0.84170  0.10970  0.38990  Biso   1.000  H
  H66      1.0000 0.75250  0.50890  0.37180  Biso   1.000  H
  H67      1.0000 0.75250  0.78250  0.27600  Biso   1.000  H
  H68      1.0000 0.70010  0.41800  0.23290  Biso   1.000  H
  H69      1.0000 0.40950  0.59540  0.23270  Biso   1.000  H
  H70      1.0000 0.69980  0.70030  0.13390  Biso   1.000  H
  H71      1.0000 0.47160  0.68980  0.36880  Biso   1.000  H
  H72      1.0000 0.51140  0.46050  0.12610  Biso   1.000  H
  H73      1.0000 0.40700  0.41880  0.24290  Biso   1.000  H
  H74      1.0000 0.32940  0.41400  0.20780  Biso   1.000  H
  H75      1.0000 0.37820  0.34050  0.22000  Biso   1.000  H
  H76      1.0000 0.42450  0.39600  0.08140  Biso   1.000  H
  H77      1.0000 0.40090  0.32220  0.11340  Biso   1.000  H
  H78      1.0000 0.34170  0.39030  0.11010  Biso   1.000  H
  H79      1.0000 0.24750  0.99110  0.87180  Biso   1.000  H
  H80      1.0000 0.24750  0.71750  0.77600  Biso   1.000  H
  H81      1.0000 0.29990  0.08200  0.73290  Biso   1.000  H
  H82      1.0000 0.59050  0.90460  0.73270  Biso   1.000  H
  H83      1.0000 0.30020  0.79970  0.63390  Biso   1.000  H
  H84      1.0000 0.52840  0.81020  0.86880  Biso   1.000  H
  H85      1.0000 0.48860  0.03950  0.62610  Biso   1.000  H
  H86      1.0000 0.59300  0.08120  0.74290  Biso   1.000  H
  H87      1.0000 0.67060  0.08600  0.70780  Biso   1.000  H
  H88      1.0000 0.62180  0.15950  0.72000  Biso   1.000  H
  H89      1.0000 0.57550  0.10400  0.58140  Biso   1.000  H
  H90      1.0000 0.59910  0.17780  0.61340  Biso   1.000  H
  H91      1.0000 0.65830  0.10970  0.61010  Biso   1.000  H
  H92      1.0000 0.74750  0.50890  0.62820  Biso   1.000  H
  H93      1.0000 0.74750  0.78250  0.72400  Biso   1.000  H
  H94      1.0000 0.79990  0.41800  0.76710  Biso   1.000  H
  H95      1.0000 0.09050  0.59540  0.76730  Biso   1.000  H
  H96      1.0000 0.80020  0.70030  0.86610  Biso   1.000  H
  H97      1.0000 0.02840  0.68980  0.63120  Biso   1.000  H
  H98      1.0000 0.98860  0.46050  0.87390  Biso   1.000  H
  H99      1.0000 0.09300  0.41880  0.75710  Biso   1.000  H
  H100     1.0000 0.17060  0.41400  0.79220  Biso   1.000  H
  H101     1.0000 0.12180  0.34050  0.78000  Biso   1.000  H
  H102     1.0000 0.07550  0.39600  0.91860  Biso   1.000  H
  H103     1.0000 0.09910  0.32220  0.88660  Biso   1.000  H
  H104     1.0000 0.15830  0.39030  0.88990  Biso   1.000  H
  C1       1.0000 0.76890  0.00050  0.83686  Biso   1.000  C
  C2       1.0000 0.76870  0.25190  0.74834  Biso   1.000  C
  C3       1.0000 0.79730  0.95170  0.76239  Biso   1.000  C
  C4       1.0000 0.06010  0.11530  0.76129  Biso   1.000  C
  C5       1.0000 0.79710  0.20770  0.67200  Biso   1.000  C
  C6       1.0000 0.02690  0.16610  0.83445  Biso   1.000  C
  C7       1.0000 0.01120  0.95010  0.66040  Biso   1.000  C
  C8       1.0000 0.11850  0.89380  0.71250  Biso   1.000  C
  C9       1.0000 0.10360  0.87630  0.61280  Biso   1.000  C
  C10      1.0000 0.26890  0.49950  0.66314  Biso   1.000  C
  C11      1.0000 0.26870  0.24810  0.75166  Biso   1.000  C
  C12      1.0000 0.29730  0.54830  0.73761  Biso   1.000  C
  C13      1.0000 0.56010  0.38470  0.73871  Biso   1.000  C
  C14      1.0000 0.29710  0.29230  0.82800  Biso   1.000  C
  C15      1.0000 0.52690  0.33390  0.66555  Biso   1.000  C
  C16      1.0000 0.51120  0.54990  0.83960  Biso   1.000  C
  C17      1.0000 0.61850  0.60620  0.78750  Biso   1.000  C
  C18      1.0000 0.60360  0.62370  0.88720  Biso   1.000  C
  C19      1.0000 0.73110  0.00050  0.16314  Biso   1.000  C
  C20      1.0000 0.73130  0.25190  0.25166  Biso   1.000  C
  C21      1.0000 0.70270  0.95170  0.23761  Biso   1.000  C
  C22      1.0000 0.43990  0.11530  0.23871  Biso   1.000  C
  C23      1.0000 0.70290  0.20770  0.32800  Biso   1.000  C
  C24      1.0000 0.47310  0.16610  0.16555  Biso   1.000  C
  C25      1.0000 0.48880  0.95010  0.33960  Biso   1.000  C
  C26      1.0000 0.38150  0.89380  0.28750  Biso   1.000  C
  C27      1.0000 0.39640  0.87630  0.38720  Biso   1.000  C
  C28      1.0000 0.23110  0.49950  0.33686  Biso   1.000  C
  C29      1.0000 0.23130  0.24810  0.24834  Biso   1.000  C
  C30      1.0000 0.20270  0.54830  0.26239  Biso   1.000  C
  C31      1.0000 0.93990  0.38470  0.26129  Biso   1.000  C
  C32      1.0000 0.20290  0.29230  0.17200  Biso   1.000  C
  C33      1.0000 0.97310  0.33390  0.33445  Biso   1.000  C
  C34      1.0000 0.98880  0.54990  0.16040  Biso   1.000  C
  C35      1.0000 0.88150  0.60620  0.21250  Biso   1.000  C
  C36      1.0000 0.89640  0.62370  0.11280  Biso   1.000  C
  C37      1.0000 0.23110  0.99950  0.16314  Biso   1.000  C
  C38      1.0000 0.23130  0.74810  0.25166  Biso   1.000  C
  C39      1.0000 0.20270  0.04830  0.23761  Biso   1.000  C
  C40      1.0000 0.93990  0.88470  0.23871  Biso   1.000  C
  C41      1.0000 0.20290  0.79230  0.32800  Biso   1.000  C
  C42      1.0000 0.97310  0.83390  0.16555  Biso   1.000  C
  C43      1.0000 0.98880  0.04990  0.33960  Biso   1.000  C
  C44      1.0000 0.88150  0.10620  0.28750  Biso   1.000  C
  C45      1.0000 0.89640  0.12370  0.38720  Biso   1.000  C
  C46      1.0000 0.73110  0.50050  0.33686  Biso   1.000  C
  C47      1.0000 0.73130  0.75190  0.24834  Biso   1.000  C
  C48      1.0000 0.70270  0.45170  0.26239  Biso   1.000  C
  C49      1.0000 0.43990  0.61530  0.26129  Biso   1.000  C
  C50      1.0000 0.70290  0.70770  0.17200  Biso   1.000  C
  C51      1.0000 0.47310  0.66610  0.33445  Biso   1.000  C
  C52      1.0000 0.48880  0.45010  0.16040  Biso   1.000  C
  C53      1.0000 0.38150  0.39380  0.21250  Biso   1.000  C
  C54      1.0000 0.39640  0.37630  0.11280  Biso   1.000  C
  C55      1.0000 0.26890  0.99950  0.83686  Biso   1.000  C
  C56      1.0000 0.26870  0.74810  0.74834  Biso   1.000  C
  C57      1.0000 0.29730  0.04830  0.76239  Biso   1.000  C
  C58      1.0000 0.56010  0.88470  0.76129  Biso   1.000  C
  C59      1.0000 0.29710  0.79230  0.67200  Biso   1.000  C
  C60      1.0000 0.52690  0.83390  0.83445  Biso   1.000  C
  C61      1.0000 0.51120  0.04990  0.66040  Biso   1.000  C
  C62      1.0000 0.61850  0.10620  0.71250  Biso   1.000  C
  C63      1.0000 0.60360  0.12370  0.61280  Biso   1.000  C
  C64      1.0000 0.76890  0.50050  0.66314  Biso   1.000  C
  C65      1.0000 0.76870  0.75190  0.75166  Biso   1.000  C
  C66      1.0000 0.79730  0.45170  0.73761  Biso   1.000  C
  C67      1.0000 0.06010  0.61530  0.73871  Biso   1.000  C
  C68      1.0000 0.79710  0.70770  0.82800  Biso   1.000  C
  C69      1.0000 0.02690  0.66610  0.66555  Biso   1.000  C
  C70      1.0000 0.01120  0.45010  0.83960  Biso   1.000  C
  C71      1.0000 0.11850  0.39380  0.78750  Biso   1.000  C
  C72      1.0000 0.10360  0.37630  0.88720  Biso   1.000  C
  N1       1.0000 0.75620  0.26265  0.69551  Biso   1.000  N
  N2       1.0000 0.75570  0.93900  0.80772  Biso   1.000  N
  N3       1.0000 0.81400  0.04732  0.81238  Biso   1.000  N
  N4       1.0000 0.96291  0.14900  0.80904  Biso   1.000  N
  N5       1.0000 0.83350  0.01520  0.76336  Biso   1.000  N
  N6       1.0000 0.83225  0.16556  0.70797  Biso   1.000  N
  N7       1.0000 0.81310  0.19480  0.75791  Biso   1.000  N
  N8       1.0000 0.98415  0.11584  0.76137  Biso   1.000  N
  N9       1.0000 0.09010  0.14650  0.80653  Biso   1.000  N
  N10      1.0000 0.07190  0.90610  0.66100  Biso   1.000  N
  N11      1.0000 0.25620  0.23735  0.80449  Biso   1.000  N
  N12      1.0000 0.25570  0.56100  0.69228  Biso   1.000  N
  N13      1.0000 0.31400  0.45268  0.68762  Biso   1.000  N
  N14      1.0000 0.46291  0.35100  0.69096  Biso   1.000  N
  N15      1.0000 0.33350  0.48480  0.73664  Biso   1.000  N
  N16      1.0000 0.33225  0.33444  0.79203  Biso   1.000  N
  N17      1.0000 0.31310  0.30520  0.74209  Biso   1.000  N
  N18      1.0000 0.48415  0.38416  0.73863  Biso   1.000  N
  N19      1.0000 0.59010  0.35350  0.69347  Biso   1.000  N
  N20      1.0000 0.57190  0.59390  0.83900  Biso   1.000  N
  N21      1.0000 0.74380  0.26265  0.30449  Biso   1.000  N
  N22      1.0000 0.74430  0.93900  0.19228  Biso   1.000  N
  N23      1.0000 0.68600  0.04732  0.18762  Biso   1.000  N
  N24      1.0000 0.53709  0.14900  0.19096  Biso   1.000  N
  N25      1.0000 0.66650  0.01520  0.23664  Biso   1.000  N
  N26      1.0000 0.66775  0.16556  0.29203  Biso   1.000  N
  N27      1.0000 0.68690  0.19480  0.24209  Biso   1.000  N
  N28      1.0000 0.51585  0.11584  0.23863  Biso   1.000  N
  N29      1.0000 0.40990  0.14650  0.19347  Biso   1.000  N
  N30      1.0000 0.42810  0.90610  0.33900  Biso   1.000  N
  N31      1.0000 0.24380  0.23735  0.19551  Biso   1.000  N
  N32      1.0000 0.24430  0.56100  0.30772  Biso   1.000  N
  N33      1.0000 0.18600  0.45268  0.31238  Biso   1.000  N
  N34      1.0000 0.03709  0.35100  0.30904  Biso   1.000  N
  N35      1.0000 0.16650  0.48480  0.26336  Biso   1.000  N
  N36      1.0000 0.16775  0.33444  0.20797  Biso   1.000  N
  N37      1.0000 0.18690  0.30520  0.25791  Biso   1.000  N
  N38      1.0000 0.01585  0.38416  0.26137  Biso   1.000  N
  N39      1.0000 0.90990  0.35350  0.30653  Biso   1.000  N
  N40      1.0000 0.92810  0.59390  0.16100  Biso   1.000  N
  N41      1.0000 0.24380  0.73735  0.30449  Biso   1.000  N
  N42      1.0000 0.24430  0.06100  0.19228  Biso   1.000  N
  N43      1.0000 0.18600  0.95268  0.18762  Biso   1.000  N
  N44      1.0000 0.03709  0.85100  0.19096  Biso   1.000  N
  N45      1.0000 0.16650  0.98480  0.23664  Biso   1.000  N
  N46      1.0000 0.16775  0.83444  0.29203  Biso   1.000  N
  N47      1.0000 0.18690  0.80520  0.24209  Biso   1.000  N
  N48      1.0000 0.01585  0.88416  0.23863  Biso   1.000  N
  N49      1.0000 0.90990  0.85350  0.19347  Biso   1.000  N
  N50      1.0000 0.92810  0.09390  0.33900  Biso   1.000  N
  N51      1.0000 0.74380  0.76265  0.19551  Biso   1.000  N
  N52      1.0000 0.74430  0.43900  0.30772  Biso   1.000  N
  N53      1.0000 0.68600  0.54732  0.31238  Biso   1.000  N
  N54      1.0000 0.53709  0.64900  0.30904  Biso   1.000  N
  N55      1.0000 0.66650  0.51520  0.26336  Biso   1.000  N
  N56      1.0000 0.66775  0.66556  0.20797  Biso   1.000  N
  N57      1.0000 0.68690  0.69480  0.25791  Biso   1.000  N
  N58      1.0000 0.51585  0.61584  0.26137  Biso   1.000  N
  N59      1.0000 0.40990  0.64650  0.30653  Biso   1.000  N
  N60      1.0000 0.42810  0.40610  0.16100  Biso   1.000  N
  N61      1.0000 0.25620  0.73735  0.69551  Biso   1.000  N
  N62      1.0000 0.25570  0.06100  0.80772  Biso   1.000  N
  N63      1.0000 0.31400  0.95268  0.81238  Biso   1.000  N
  N64      1.0000 0.46291  0.85100  0.80904  Biso   1.000  N
  N65      1.0000 0.33350  0.98480  0.76336  Biso   1.000  N
  N66      1.0000 0.33225  0.83444  0.70797  Biso   1.000  N
  N67      1.0000 0.31310  0.80520  0.75791  Biso   1.000  N
  N68      1.0000 0.48415  0.88416  0.76137  Biso   1.000  N
  N69      1.0000 0.59010  0.85350  0.80653  Biso   1.000  N
  N70      1.0000 0.57190  0.09390  0.66100  Biso   1.000  N
  N71      1.0000 0.75620  0.76265  0.80449  Biso   1.000  N
  N72      1.0000 0.75570  0.43900  0.69228  Biso   1.000  N
  N73      1.0000 0.81400  0.54732  0.68762  Biso   1.000  N
  N74      1.0000 0.96291  0.64900  0.69096  Biso   1.000  N
  N75      1.0000 0.83350  0.51520  0.73664  Biso   1.000  N
  N76      1.0000 0.83225  0.66556  0.79203  Biso   1.000  N
  N77      1.0000 0.81310  0.69480  0.74209  Biso   1.000  N
  N78      1.0000 0.98415  0.61584  0.73863  Biso   1.000  N
  N79      1.0000 0.09010  0.64650  0.69347  Biso   1.000  N
  N80      1.0000 0.07190  0.40610  0.83900  Biso   1.000  N
  O1       1.0000 0.72052  0.15513  0.94961  Biso   1.000  O
  O2       1.0000 0.85117  0.23420  0.97120  Biso   1.000  O
  O3       1.0000 0.72034  0.44884  0.94913  Biso   1.000  O
  O4       1.0000 0.66126  0.30154  0.84760  Biso   1.000  O
  O5       1.0000 0.85165  0.37103  0.97124  Biso   1.000  O
  O6       1.0000 0.90779  0.37597  0.07348  Biso   1.000  O
  O7       1.0000 0.72131  0.30227  0.94957  Biso   1.000  O
  O8       1.0000 0.90751  0.22719  0.07320  Biso   1.000  O
  O9       1.0000 0.78983  0.37736  0.86994  Biso   1.000  O
  O10      1.0000 0.92313  0.30260  0.88359  Biso   1.000  O
  O11      1.0000 0.79061  0.22664  0.87140  Biso   1.000  O
  O12      1.0000 0.65903  0.45030  0.84303  Biso   1.000  O
  O13      1.0000 0.96290  0.12840  0.63845  Biso   1.000  O
  O14      1.0000 0.99066  0.30125  0.99892  Biso   1.000  O
  O15      1.0000 0.98110  0.97890  0.70013  Biso   1.000  O
  O16      1.0000 0.83820  0.02430  0.64001  Biso   1.000  O
  O17      1.0000 0.66037  0.15108  0.84447  Biso   1.000  O
  O18      1.0000 0.69430  0.34670  0.58660  Biso   1.000  O
  O19      1.0000 0.22052  0.34487  0.55039  Biso   1.000  O
  O20      1.0000 0.35117  0.26580  0.52880  Biso   1.000  O
  O21      1.0000 0.22034  0.05116  0.55087  Biso   1.000  O
  O22      1.0000 0.16126  0.19846  0.65240  Biso   1.000  O
  O23      1.0000 0.35165  0.12897  0.52876  Biso   1.000  O
  O24      1.0000 0.40779  0.12403  0.42652  Biso   1.000  O
  O25      1.0000 0.22131  0.19773  0.55043  Biso   1.000  O
  O26      1.0000 0.40751  0.27281  0.42680  Biso   1.000  O
  O27      1.0000 0.28983  0.12264  0.63006  Biso   1.000  O
  O28      1.0000 0.42313  0.19740  0.61641  Biso   1.000  O
  O29      1.0000 0.29061  0.27336  0.62860  Biso   1.000  O
  O30      1.0000 0.15903  0.04970  0.65697  Biso   1.000  O
  O31      1.0000 0.46290  0.37160  0.86155  Biso   1.000  O
  O32      1.0000 0.49066  0.19875  0.50108  Biso   1.000  O
  O33      1.0000 0.48110  0.52110  0.79987  Biso   1.000  O
  O34      1.0000 0.33820  0.47570  0.85999  Biso   1.000  O
  O35      1.0000 0.16037  0.34892  0.65553  Biso   1.000  O
  O36      1.0000 0.19430  0.15330  0.91340  Biso   1.000  O
  O37      1.0000 0.77948  0.15513  0.05039  Biso   1.000  O
  O38      1.0000 0.64883  0.23420  0.02880  Biso   1.000  O
  O39      1.0000 0.77966  0.44884  0.05087  Biso   1.000  O
  O40      1.0000 0.83874  0.30154  0.15240  Biso   1.000  O
  O41      1.0000 0.64835  0.37103  0.02876  Biso   1.000  O
  O42      1.0000 0.59221  0.37597  0.92652  Biso   1.000  O
  O43      1.0000 0.77869  0.30227  0.05043  Biso   1.000  O
  O44      1.0000 0.59249  0.22719  0.92680  Biso   1.000  O
  O45      1.0000 0.71017  0.37736  0.13006  Biso   1.000  O
  O46      1.0000 0.57687  0.30260  0.11641  Biso   1.000  O
  O47      1.0000 0.70939  0.22664  0.12860  Biso   1.000  O
  O48      1.0000 0.84097  0.45030  0.15697  Biso   1.000  O
  O49      1.0000 0.53710  0.12840  0.36155  Biso   1.000  O
  O50      1.0000 0.50934  0.30125  0.00108  Biso   1.000  O
  O51      1.0000 0.51890  0.97890  0.29987  Biso   1.000  O
  O52      1.0000 0.66180  0.02430  0.35999  Biso   1.000  O
  O53      1.0000 0.83963  0.15108  0.15553  Biso   1.000  O
  O54      1.0000 0.80570  0.34670  0.41340  Biso   1.000  O
  O55      1.0000 0.27948  0.34487  0.44961  Biso   1.000  O
  O56      1.0000 0.14883  0.26580  0.47120  Biso   1.000  O
  O57      1.0000 0.27966  0.05116  0.44913  Biso   1.000  O
  O58      1.0000 0.33874  0.19846  0.34760  Biso   1.000  O
  O59      1.0000 0.14835  0.12897  0.47124  Biso   1.000  O
  O60      1.0000 0.09221  0.12403  0.57348  Biso   1.000  O
  O61      1.0000 0.27869  0.19773  0.44957  Biso   1.000  O
  O62      1.0000 0.09249  0.27281  0.57320  Biso   1.000  O
  O63      1.0000 0.21017  0.12264  0.36994  Biso   1.000  O
  O64      1.0000 0.07687  0.19740  0.38359  Biso   1.000  O
  O65      1.0000 0.20939  0.27336  0.37140  Biso   1.000  O
  O66      1.0000 0.34097  0.04970  0.34303  Biso   1.000  O
  O67      1.0000 0.03710  0.37160  0.13845  Biso   1.000  O
  O68      1.0000 0.00934  0.19875  0.49892  Biso   1.000  O
  O69      1.0000 0.01890  0.52110  0.20013  Biso   1.000  O
  O70      1.0000 0.16180  0.47570  0.14001  Biso   1.000  O
  O71      1.0000 0.33963  0.34892  0.34447  Biso   1.000  O
  O72      1.0000 0.30570  0.15330  0.08660  Biso   1.000  O
  O73      1.0000 0.27948  0.84487  0.05039  Biso   1.000  O
  O74      1.0000 0.14883  0.76580  0.02880  Biso   1.000  O
  O75      1.0000 0.27966  0.55116  0.05087  Biso   1.000  O
  O76      1.0000 0.33874  0.69846  0.15240  Biso   1.000  O
  O77      1.0000 0.14835  0.62897  0.02876  Biso   1.000  O
  O78      1.0000 0.09221  0.62403  0.92652  Biso   1.000  O
  O79      1.0000 0.27869  0.69773  0.05043  Biso   1.000  O
  O80      1.0000 0.09249  0.77281  0.92680  Biso   1.000  O
  O81      1.0000 0.21017  0.62264  0.13006  Biso   1.000  O
  O82      1.0000 0.07687  0.69740  0.11641  Biso   1.000  O
  O83      1.0000 0.20939  0.77336  0.12860  Biso   1.000  O
  O84      1.0000 0.34097  0.54970  0.15697  Biso   1.000  O
  O85      1.0000 0.03710  0.87160  0.36155  Biso   1.000  O
  O86      1.0000 0.00934  0.69875  0.00108  Biso   1.000  O
  O87      1.0000 0.01890  0.02110  0.29987  Biso   1.000  O
  O88      1.0000 0.16180  0.97570  0.35999  Biso   1.000  O
  O89      1.0000 0.33963  0.84892  0.15553  Biso   1.000  O
  O90      1.0000 0.30570  0.65330  0.41340  Biso   1.000  O
  O91      1.0000 0.77948  0.65513  0.44961  Biso   1.000  O
  O92      1.0000 0.64883  0.73420  0.47120  Biso   1.000  O
  O93      1.0000 0.77966  0.94884  0.44913  Biso   1.000  O
  O94      1.0000 0.83874  0.80154  0.34760  Biso   1.000  O
  O95      1.0000 0.64835  0.87103  0.47124  Biso   1.000  O
  O96      1.0000 0.59221  0.87597  0.57348  Biso   1.000  O
  O97      1.0000 0.77869  0.80227  0.44957  Biso   1.000  O
  O98      1.0000 0.59249  0.72719  0.57320  Biso   1.000  O
  O99      1.0000 0.71017  0.87736  0.36994  Biso   1.000  O
  O100     1.0000 0.57687  0.80260  0.38359  Biso   1.000  O
  O101     1.0000 0.70939  0.72664  0.37140  Biso   1.000  O
  O102     1.0000 0.84097  0.95030  0.34303  Biso   1.000  O
  O103     1.0000 0.53710  0.62840  0.13845  Biso   1.000  O
  O104     1.0000 0.50934  0.80125  0.49892  Biso   1.000  O
  O105     1.0000 0.51890  0.47890  0.20013  Biso   1.000  O
  O106     1.0000 0.66180  0.52430  0.14001  Biso   1.000  O
  O107     1.0000 0.83963  0.65108  0.34447  Biso   1.000  O
  O108     1.0000 0.80570  0.84670  0.08660  Biso   1.000  O
  O109     1.0000 0.22052  0.84487  0.94961  Biso   1.000  O
  O110     1.0000 0.35117  0.76580  0.97120  Biso   1.000  O
  O111     1.0000 0.22034  0.55116  0.94913  Biso   1.000  O
  O112     1.0000 0.16126  0.69846  0.84760  Biso   1.000  O
  O113     1.0000 0.35165  0.62897  0.97124  Biso   1.000  O
  O114     1.0000 0.40779  0.62403  0.07348  Biso   1.000  O
  O115     1.0000 0.22131  0.69773  0.94957  Biso   1.000  O
  O116     1.0000 0.40751  0.77281  0.07320  Biso   1.000  O
  O117     1.0000 0.28983  0.62264  0.86994  Biso   1.000  O
  O118     1.0000 0.42313  0.69740  0.88359  Biso   1.000  O
  O119     1.0000 0.29061  0.77336  0.87140  Biso   1.000  O
  O120     1.0000 0.15903  0.54970  0.84303  Biso   1.000  O
  O121     1.0000 0.46290  0.87160  0.63845  Biso   1.000  O
  O122     1.0000 0.49066  0.69875  0.99892  Biso   1.000  O
  O123     1.0000 0.48110  0.02110  0.70013  Biso   1.000  O
  O124     1.0000 0.33820  0.97570  0.64001  Biso   1.000  O
  O125     1.0000 0.16037  0.84892  0.84447  Biso   1.000  O
  O126     1.0000 0.19430  0.65330  0.58660  Biso   1.000  O
  O127     1.0000 0.72052  0.65513  0.55039  Biso   1.000  O
  O128     1.0000 0.85117  0.73420  0.52880  Biso   1.000  O
  O129     1.0000 0.72034  0.94884  0.55087  Biso   1.000  O
  O130     1.0000 0.66126  0.80154  0.65240  Biso   1.000  O
  O131     1.0000 0.85165  0.87103  0.52876  Biso   1.000  O
  O132     1.0000 0.90779  0.87597  0.42652  Biso   1.000  O
  O133     1.0000 0.72131  0.80227  0.55043  Biso   1.000  O
  O134     1.0000 0.90751  0.72719  0.42680  Biso   1.000  O
  O135     1.0000 0.78983  0.87736  0.63006  Biso   1.000  O
  O136     1.0000 0.92313  0.80260  0.61641  Biso   1.000  O
  O137     1.0000 0.79061  0.72664  0.62860  Biso   1.000  O
  O138     1.0000 0.65903  0.95030  0.65697  Biso   1.000  O
  O139     1.0000 0.96290  0.62840  0.86155  Biso   1.000  O
  O140     1.0000 0.99066  0.80125  0.50108  Biso   1.000  O
  O141     1.0000 0.98110  0.47890  0.79987  Biso   1.000  O
  O142     1.0000 0.83820  0.52430  0.85999  Biso   1.000  O
  O143     1.0000 0.66037  0.65108  0.65553  Biso   1.000  O
  O144     1.0000 0.69430  0.84670  0.91340  Biso   1.000  O
