data_image0
_cell_length_a       15.1129
_cell_length_b       12.4966
_cell_length_c       16.848
_cell_angle_alpha    90
_cell_angle_beta     90
_cell_angle_gamma    90

_symmetry_space_group_name_H-M    "P 1"
_symmetry_int_tables_number       1

loop_
  _symmetry_equiv_pos_as_xyz
  'x, y, z'

loop_
  _atom_site_label
  _atom_site_occupancy
  _atom_site_fract_x
  _atom_site_fract_y
  _atom_site_fract_z
  _atom_site_thermal_displace_type
  _atom_site_B_iso_or_equiv
  _atom_site_type_symbol
  Cd1      1.0000 0.10359  0.01264  0.42593  Biso   1.000  Cd
  O1       1.0000 0.20860  0.86510  0.45120  Biso   1.000  O
  O2       1.0000 0.20300  0.00680  0.52570  Biso   1.000  O
  O3       1.0000 0.48070  0.62430  0.50560  Biso   1.000  O
  O4       1.0000 0.49800  0.58470  0.63300  Biso   1.000  O
  O5       1.0000 0.40470  0.84880  0.83440  Biso   1.000  O
  O6       1.0000 0.32550  0.98720  0.79790  Biso   1.000  O
  C1       1.0000 0.23200  0.91580  0.51020  Biso   1.000  C
  C2       1.0000 0.29760  0.86710  0.56660  Biso   1.000  C
  C3       1.0000 0.34790  0.77920  0.54590  Biso   1.000  C
  H1       1.0000 0.34430  0.75230  0.49450  Biso   1.000  H
  C4       1.0000 0.46430  0.63970  0.57750  Biso   1.000  C
  C5       1.0000 0.40450  0.72960  0.60090  Biso   1.000  C
  C6       1.0000 0.40750  0.76900  0.67830  Biso   1.000  C
  H2       1.0000 0.44360  0.73600  0.71570  Biso   1.000  H
  C7       1.0000 0.36180  0.90060  0.78380  Biso   1.000  C
  C8       1.0000 0.35710  0.85720  0.70000  Biso   1.000  C
  C9       1.0000 0.30390  0.90690  0.64390  Biso   1.000  C
  H3       1.0000 0.27200  0.96770  0.65790  Biso   1.000  H
  Cd2      1.0000 0.39641  0.98736  0.92593  Biso   1.000  Cd
  O7       1.0000 0.29140  0.13490  0.95120  Biso   1.000  O
  O8       1.0000 0.29700  0.99320  0.02570  Biso   1.000  O
  O9       1.0000 0.01930  0.37570  0.00560  Biso   1.000  O
  O10      1.0000 0.00200  0.41530  0.13300  Biso   1.000  O
  O11      1.0000 0.09530  0.15120  0.33440  Biso   1.000  O
  O12      1.0000 0.17450  0.01280  0.29790  Biso   1.000  O
  C10      1.0000 0.26800  0.08420  0.01020  Biso   1.000  C
  C11      1.0000 0.20240  0.13290  0.06660  Biso   1.000  C
  C12      1.0000 0.15210  0.22080  0.04590  Biso   1.000  C
  H4       1.0000 0.15570  0.24770  0.99450  Biso   1.000  H
  C13      1.0000 0.03570  0.36030  0.07750  Biso   1.000  C
  C14      1.0000 0.09550  0.27040  0.10090  Biso   1.000  C
  C15      1.0000 0.09250  0.23100  0.17830  Biso   1.000  C
  H5       1.0000 0.05640  0.26400  0.21570  Biso   1.000  H
  C16      1.0000 0.13820  0.09940  0.28380  Biso   1.000  C
  C17      1.0000 0.14290  0.14280  0.20000  Biso   1.000  C
  C18      1.0000 0.19610  0.09310  0.14390  Biso   1.000  C
  H6       1.0000 0.22800  0.03230  0.15790  Biso   1.000  H
  Cd3      1.0000 0.89641  0.51264  0.07407  Biso   1.000  Cd
  O13      1.0000 0.79140  0.36510  0.04880  Biso   1.000  O
  O14      1.0000 0.79700  0.50680  0.97430  Biso   1.000  O
  O15      1.0000 0.51930  0.12430  0.99440  Biso   1.000  O
  O16      1.0000 0.50200  0.08470  0.86700  Biso   1.000  O
  O17      1.0000 0.59530  0.34880  0.66560  Biso   1.000  O
  O18      1.0000 0.67450  0.48720  0.70210  Biso   1.000  O
  C19      1.0000 0.76800  0.41580  0.98980  Biso   1.000  C
  C20      1.0000 0.70240  0.36710  0.93340  Biso   1.000  C
  C21      1.0000 0.65210  0.27920  0.95410  Biso   1.000  C
  H7       1.0000 0.65570  0.25230  0.00550  Biso   1.000  H
  C22      1.0000 0.53570  0.13970  0.92250  Biso   1.000  C
  C23      1.0000 0.59550  0.22960  0.89910  Biso   1.000  C
  C24      1.0000 0.59250  0.26900  0.82170  Biso   1.000  C
  H8       1.0000 0.55640  0.23600  0.78430  Biso   1.000  H
  C25      1.0000 0.63820  0.40060  0.71620  Biso   1.000  C
  C26      1.0000 0.64290  0.35720  0.80000  Biso   1.000  C
  C27      1.0000 0.69610  0.40690  0.85610  Biso   1.000  C
  H9       1.0000 0.72800  0.46770  0.84210  Biso   1.000  H
  Cd4      1.0000 0.60359  0.48736  0.57407  Biso   1.000  Cd
  O19      1.0000 0.70860  0.63490  0.54880  Biso   1.000  O
  O20      1.0000 0.70300  0.49320  0.47430  Biso   1.000  O
  O21      1.0000 0.98070  0.87570  0.49440  Biso   1.000  O
  O22      1.0000 0.99800  0.91530  0.36700  Biso   1.000  O
  O23      1.0000 0.90470  0.65120  0.16560  Biso   1.000  O
  O24      1.0000 0.82550  0.51280  0.20210  Biso   1.000  O
  C28      1.0000 0.73200  0.58420  0.48980  Biso   1.000  C
  C29      1.0000 0.79760  0.63290  0.43340  Biso   1.000  C
  C30      1.0000 0.84790  0.72080  0.45410  Biso   1.000  C
  H10      1.0000 0.84430  0.74770  0.50550  Biso   1.000  H
  C31      1.0000 0.96430  0.86030  0.42250  Biso   1.000  C
  C32      1.0000 0.90450  0.77040  0.39910  Biso   1.000  C
  C33      1.0000 0.90750  0.73100  0.32170  Biso   1.000  C
  H11      1.0000 0.94360  0.76400  0.28430  Biso   1.000  H
  C34      1.0000 0.86180  0.59940  0.21620  Biso   1.000  C
  C35      1.0000 0.85710  0.64280  0.30000  Biso   1.000  C
  C36      1.0000 0.80390  0.59310  0.35610  Biso   1.000  C
  H12      1.0000 0.77200  0.53230  0.34210  Biso   1.000  H
  Cd5      1.0000 0.89641  0.98736  0.57407  Biso   1.000  Cd
  O25      1.0000 0.79140  0.13490  0.54880  Biso   1.000  O
  O26      1.0000 0.79700  0.99320  0.47430  Biso   1.000  O
  O27      1.0000 0.51930  0.37570  0.49440  Biso   1.000  O
  O28      1.0000 0.50200  0.41530  0.36700  Biso   1.000  O
  O29      1.0000 0.59530  0.15120  0.16560  Biso   1.000  O
  O30      1.0000 0.67450  0.01280  0.20210  Biso   1.000  O
  C37      1.0000 0.76800  0.08420  0.48980  Biso   1.000  C
  C38      1.0000 0.70240  0.13290  0.43340  Biso   1.000  C
  C39      1.0000 0.65210  0.22080  0.45410  Biso   1.000  C
  H13      1.0000 0.65570  0.24770  0.50550  Biso   1.000  H
  C40      1.0000 0.53570  0.36030  0.42250  Biso   1.000  C
  C41      1.0000 0.59550  0.27040  0.39910  Biso   1.000  C
  C42      1.0000 0.59250  0.23100  0.32170  Biso   1.000  C
  H14      1.0000 0.55640  0.26400  0.28430  Biso   1.000  H
  C43      1.0000 0.63820  0.09940  0.21620  Biso   1.000  C
  C44      1.0000 0.64290  0.14280  0.30000  Biso   1.000  C
  C45      1.0000 0.69610  0.09310  0.35610  Biso   1.000  C
  H15      1.0000 0.72800  0.03230  0.34210  Biso   1.000  H
  Cd6      1.0000 0.60359  0.01264  0.07407  Biso   1.000  Cd
  O31      1.0000 0.70860  0.86510  0.04880  Biso   1.000  O
  O32      1.0000 0.70300  0.00680  0.97430  Biso   1.000  O
  O33      1.0000 0.98070  0.62430  0.99440  Biso   1.000  O
  O34      1.0000 0.99800  0.58470  0.86700  Biso   1.000  O
  O35      1.0000 0.90470  0.84880  0.66560  Biso   1.000  O
  O36      1.0000 0.82550  0.98720  0.70210  Biso   1.000  O
  C46      1.0000 0.73200  0.91580  0.98980  Biso   1.000  C
  C47      1.0000 0.79760  0.86710  0.93340  Biso   1.000  C
  C48      1.0000 0.84790  0.77920  0.95410  Biso   1.000  C
  H16      1.0000 0.84430  0.75230  0.00550  Biso   1.000  H
  C49      1.0000 0.96430  0.63970  0.92250  Biso   1.000  C
  C50      1.0000 0.90450  0.72960  0.89910  Biso   1.000  C
  C51      1.0000 0.90750  0.76900  0.82170  Biso   1.000  C
  H17      1.0000 0.94360  0.73600  0.78430  Biso   1.000  H
  C52      1.0000 0.86180  0.90060  0.71620  Biso   1.000  C
  C53      1.0000 0.85710  0.85720  0.80000  Biso   1.000  C
  C54      1.0000 0.80390  0.90690  0.85610  Biso   1.000  C
  H18      1.0000 0.77200  0.96770  0.84210  Biso   1.000  H
  Cd7      1.0000 0.10359  0.48736  0.92593  Biso   1.000  Cd
  O37      1.0000 0.20860  0.63490  0.95120  Biso   1.000  O
  O38      1.0000 0.20300  0.49320  0.02570  Biso   1.000  O
  O39      1.0000 0.48070  0.87570  0.00560  Biso   1.000  O
  O40      1.0000 0.49800  0.91530  0.13300  Biso   1.000  O
  O41      1.0000 0.40470  0.65120  0.33440  Biso   1.000  O
  O42      1.0000 0.32550  0.51280  0.29790  Biso   1.000  O
  C55      1.0000 0.23200  0.58420  0.01020  Biso   1.000  C
  C56      1.0000 0.29760  0.63290  0.06660  Biso   1.000  C
  C57      1.0000 0.34790  0.72080  0.04590  Biso   1.000  C
  H19      1.0000 0.34430  0.74770  0.99450  Biso   1.000  H
  C58      1.0000 0.46430  0.86030  0.07750  Biso   1.000  C
  C59      1.0000 0.40450  0.77040  0.10090  Biso   1.000  C
  C60      1.0000 0.40750  0.73100  0.17830  Biso   1.000  C
  H20      1.0000 0.44360  0.76400  0.21570  Biso   1.000  H
  C61      1.0000 0.36180  0.59940  0.28380  Biso   1.000  C
  C62      1.0000 0.35710  0.64280  0.20000  Biso   1.000  C
  C63      1.0000 0.30390  0.59310  0.14390  Biso   1.000  C
  H21      1.0000 0.27200  0.53230  0.15790  Biso   1.000  H
  Cd8      1.0000 0.39641  0.51264  0.42593  Biso   1.000  Cd
  O43      1.0000 0.29140  0.36510  0.45120  Biso   1.000  O
  O44      1.0000 0.29700  0.50680  0.52570  Biso   1.000  O
  O45      1.0000 0.01930  0.12430  0.50560  Biso   1.000  O
  O46      1.0000 0.00200  0.08470  0.63300  Biso   1.000  O
  O47      1.0000 0.09530  0.34880  0.83440  Biso   1.000  O
  O48      1.0000 0.17450  0.48720  0.79790  Biso   1.000  O
  C64      1.0000 0.26800  0.41580  0.51020  Biso   1.000  C
  C65      1.0000 0.20240  0.36710  0.56660  Biso   1.000  C
  C66      1.0000 0.15210  0.27920  0.54590  Biso   1.000  C
  H22      1.0000 0.15570  0.25230  0.49450  Biso   1.000  H
  C67      1.0000 0.03570  0.13970  0.57750  Biso   1.000  C
  C68      1.0000 0.09550  0.22960  0.60090  Biso   1.000  C
  C69      1.0000 0.09250  0.26900  0.67830  Biso   1.000  C
  H23      1.0000 0.05640  0.23600  0.71570  Biso   1.000  H
  C70      1.0000 0.13820  0.40060  0.78380  Biso   1.000  C
  C71      1.0000 0.14290  0.35720  0.70000  Biso   1.000  C
  C72      1.0000 0.19610  0.40690  0.64390  Biso   1.000  C
  H24      1.0000 0.22800  0.46770  0.65790  Biso   1.000  H
