data_image0
_cell_length_a       10.8111
_cell_length_b       10.8475
_cell_length_c       14.021
_cell_angle_alpha    87.531
_cell_angle_beta     89.039
_cell_angle_gamma    85.997

_symmetry_space_group_name_H-M    P 1
_symmetry_int_tables_number       1

loop_
  _symmetry_equiv_pos_as_xyz
  'x, y, z'

loop_
  _atom_site_label
  _atom_site_occupancy
  _atom_site_fract_x
  _atom_site_fract_y
  _atom_site_fract_z
  _atom_site_thermal_displace_type
  _atom_site_B_iso_or_equiv
  _atom_site_type_symbol
  Cu1      1.0000 0.77571  0.65211  0.38626  Biso   1.000  Cu
  Cu2      1.0000 0.77908  0.66322  0.19738  Biso   1.000  Cu
  H1       1.0000 0.76930  0.25480  0.43440  Biso   1.000  H
  H2       1.0000 0.76450  0.04300  0.43290  Biso   1.000  H
  H3       1.0000 0.78450  0.05870  0.14730  Biso   1.000  H
  H4       1.0000 0.78870  0.27180  0.14790  Biso   1.000  H
  H5       1.0000 0.38170  0.63980  0.43570  Biso   1.000  H
  H6       1.0000 0.16810  0.63340  0.43540  Biso   1.000  H
  H7       1.0000 0.17330  0.67530  0.14770  Biso   1.000  H
  H8       1.0000 0.38610  0.68100  0.14870  Biso   1.000  H
  H9       1.0000 0.59540  0.66260  0.55890  Biso   1.000  H
  H10      1.0000 0.59090  0.66990  0.72220  Biso   1.000  H
  H11      1.0000 0.96270  0.66050  0.71480  Biso   1.000  H
  H12      1.0000 0.95590  0.65540  0.55300  Biso   1.000  H
  H13      1.0000 0.94720  0.58890  0.02780  Biso   1.000  H
  H14      1.0000 0.95160  0.58450  0.86450  Biso   1.000  H
  H15      1.0000 0.61250  0.75990  0.86420  Biso   1.000  H
  H16      1.0000 0.61710  0.75470  0.02740  Biso   1.000  H
  C1       1.0000 0.78010  0.42420  0.29260  Biso   1.000  C
  C2       1.0000 0.54340  0.66330  0.29249  Biso   1.000  C
  C3       1.0000 0.77210  0.89110  0.28960  Biso   1.000  C
  C4       1.0000 0.01110  0.65170  0.29101  Biso   1.000  C
  C5       1.0000 0.77640  0.28590  0.29160  Biso   1.000  C
  C6       1.0000 0.77120  0.21570  0.37580  Biso   1.000  C
  C7       1.0000 0.76880  0.08930  0.37490  Biso   1.000  C
  C8       1.0000 0.77240  0.02980  0.29010  Biso   1.000  C
  C9       1.0000 0.78050  0.09860  0.20560  Biso   1.000  C
  C10      1.0000 0.78280  0.22570  0.20590  Biso   1.000  C
  C11      1.0000 0.40550  0.66140  0.29206  Biso   1.000  C
  C12      1.0000 0.33930  0.64710  0.37750  Biso   1.000  C
  C13      1.0000 0.21220  0.64350  0.37760  Biso   1.000  C
  C14      1.0000 0.14890  0.65510  0.29089  Biso   1.000  C
  C15      1.0000 0.21530  0.66850  0.20600  Biso   1.000  C
  C16      1.0000 0.34210  0.67170  0.20660  Biso   1.000  C
  C17      1.0000 0.67090  0.66220  0.59120  Biso   1.000  C
  C18      1.0000 0.66740  0.66630  0.68920  Biso   1.000  C
  C19      1.0000 0.77690  0.66520  0.73913  Biso   1.000  C
  C20      1.0000 0.88560  0.66100  0.68470  Biso   1.000  C
  C21      1.0000 0.88090  0.65780  0.58790  Biso   1.000  C
  C22      1.0000 0.87700  0.62140  0.99400  Biso   1.000  C
  C23      1.0000 0.88080  0.61850  0.89620  Biso   1.000  C
  C24      1.0000 0.77770  0.66700  0.84450  Biso   1.000  C
  C25      1.0000 0.68140  0.72100  0.89600  Biso   1.000  C
  C26      1.0000 0.68540  0.71840  0.99390  Biso   1.000  C
  N1       1.0000 0.77560  0.65780  0.54001  Biso   1.000  N
  N2       1.0000 0.78000  0.66740  0.04380  Biso   1.000  N
  O1       1.0000 0.78220  0.47137  0.37188  Biso   1.000  O
  O2       1.0000 0.78050  0.48162  0.21319  Biso   1.000  O
  O3       1.0000 0.59585  0.65590  0.37240  Biso   1.000  O
  O4       1.0000 0.59867  0.67110  0.21306  Biso   1.000  O
  O5       1.0000 0.76810  0.83414  0.36859  Biso   1.000  O
  O6       1.0000 0.77530  0.84310  0.21015  Biso   1.000  O
  O7       1.0000 0.95592  0.64880  0.37061  Biso   1.000  O
  O8       1.0000 0.95955  0.65300  0.21133  Biso   1.000  O
  Cu3      1.0000 0.22429  0.34789  0.61374  Biso   1.000  Cu
  Cu4      1.0000 0.22092  0.33678  0.80262  Biso   1.000  Cu
  H17      1.0000 0.23070  0.74520  0.56560  Biso   1.000  H
  H18      1.0000 0.23550  0.95700  0.56710  Biso   1.000  H
  H19      1.0000 0.21550  0.94130  0.85270  Biso   1.000  H
  H20      1.0000 0.21130  0.72820  0.85210  Biso   1.000  H
  H21      1.0000 0.61830  0.36020  0.56430  Biso   1.000  H
  H22      1.0000 0.83190  0.36660  0.56460  Biso   1.000  H
  H23      1.0000 0.82670  0.32470  0.85230  Biso   1.000  H
  H24      1.0000 0.61390  0.31900  0.85130  Biso   1.000  H
  H25      1.0000 0.40460  0.33740  0.44110  Biso   1.000  H
  H26      1.0000 0.40910  0.33010  0.27780  Biso   1.000  H
  H27      1.0000 0.03730  0.33950  0.28520  Biso   1.000  H
  H28      1.0000 0.04410  0.34460  0.44700  Biso   1.000  H
  H29      1.0000 0.05280  0.41110  0.97220  Biso   1.000  H
  H30      1.0000 0.04840  0.41550  0.13550  Biso   1.000  H
  H31      1.0000 0.38750  0.24010  0.13580  Biso   1.000  H
  H32      1.0000 0.38290  0.24530  0.97260  Biso   1.000  H
  C27      1.0000 0.21990  0.57580  0.70740  Biso   1.000  C
  C28      1.0000 0.45660  0.33670  0.70751  Biso   1.000  C
  C29      1.0000 0.22790  0.10890  0.71040  Biso   1.000  C
  C30      1.0000 0.98890  0.34830  0.70899  Biso   1.000  C
  C31      1.0000 0.22360  0.71410  0.70840  Biso   1.000  C
  C32      1.0000 0.22880  0.78430  0.62420  Biso   1.000  C
  C33      1.0000 0.23120  0.91070  0.62510  Biso   1.000  C
  C34      1.0000 0.22760  0.97020  0.70990  Biso   1.000  C
  C35      1.0000 0.21950  0.90140  0.79440  Biso   1.000  C
  C36      1.0000 0.21720  0.77430  0.79410  Biso   1.000  C
  C37      1.0000 0.59450  0.33860  0.70794  Biso   1.000  C
  C38      1.0000 0.66070  0.35290  0.62250  Biso   1.000  C
  C39      1.0000 0.78780  0.35650  0.62240  Biso   1.000  C
  C40      1.0000 0.85110  0.34490  0.70911  Biso   1.000  C
  C41      1.0000 0.78470  0.33150  0.79400  Biso   1.000  C
  C42      1.0000 0.65790  0.32830  0.79340  Biso   1.000  C
  C43      1.0000 0.32910  0.33780  0.40880  Biso   1.000  C
  C44      1.0000 0.33260  0.33370  0.31080  Biso   1.000  C
  C45      1.0000 0.22310  0.33480  0.26087  Biso   1.000  C
  C46      1.0000 0.11440  0.33900  0.31530  Biso   1.000  C
  C47      1.0000 0.11910  0.34220  0.41210  Biso   1.000  C
  C48      1.0000 0.12300  0.37860  0.00600  Biso   1.000  C
  C49      1.0000 0.11920  0.38150  0.10380  Biso   1.000  C
  C50      1.0000 0.22230  0.33300  0.15550  Biso   1.000  C
  C51      1.0000 0.31860  0.27900  0.10400  Biso   1.000  C
  C52      1.0000 0.31460  0.28160  0.00610  Biso   1.000  C
  N3       1.0000 0.22440  0.34220  0.45999  Biso   1.000  N
  N4       1.0000 0.22000  0.33260  0.95620  Biso   1.000  N
  O9       1.0000 0.21780  0.52863  0.62812  Biso   1.000  O
  O10      1.0000 0.21950  0.51838  0.78681  Biso   1.000  O
  O11      1.0000 0.40415  0.34410  0.62760  Biso   1.000  O
  O12      1.0000 0.40133  0.32890  0.78694  Biso   1.000  O
  O13      1.0000 0.23190  0.16586  0.63141  Biso   1.000  O
  O14      1.0000 0.22470  0.15690  0.78985  Biso   1.000  O
  O15      1.0000 0.04408  0.35120  0.62939  Biso   1.000  O
  O16      1.0000 0.04045  0.34700  0.78867  Biso   1.000  O
