data_image0
_cell_length_a       10.806
_cell_length_b       10.834
_cell_length_c       16.27
_cell_angle_alpha    90.492
_cell_angle_beta     97.154
_cell_angle_gamma    90.855

_symmetry_space_group_name_H-M    P 1
_symmetry_int_tables_number       1

loop_
  _symmetry_equiv_pos_as_xyz
  'x, y, z'

loop_
  _atom_site_label
  _atom_site_occupancy
  _atom_site_fract_x
  _atom_site_fract_y
  _atom_site_fract_z
  _atom_site_thermal_displace_type
  _atom_site_B_iso_or_equiv
  _atom_site_type_symbol
  Cu1      1.0000 0.31628  0.84051  0.77723  Biso   1.000  Cu
  Cu2      1.0000 0.28423  0.83782  0.61278  Biso   1.000  Cu
  H1       1.0000 0.50330  0.88940  0.93520  Biso   1.000  H
  H2       1.0000 0.51580  0.88590  0.07740  Biso   1.000  H
  H3       1.0000 0.16610  0.75390  0.05450  Biso   1.000  H
  H4       1.0000 0.16670  0.75190  0.91380  Biso   1.000  H
  H5       1.0000 0.66770  0.83650  0.57100  Biso   1.000  H
  H6       1.0000 0.88000  0.83320  0.56840  Biso   1.000  H
  H7       1.0000 0.71840  0.84470  0.82010  Biso   1.000  H
  H8       1.0000 0.93230  0.84340  0.81840  Biso   1.000  H
  H9       1.0000 0.27340  0.22910  0.57310  Biso   1.000  H
  H10      1.0000 0.17170  0.80770  0.18630  Biso   1.000  H
  H11      1.0000 0.31660  0.45080  0.81980  Biso   1.000  H
  H12      1.0000 0.31690  0.23660  0.82160  Biso   1.000  H
  H13      1.0000 0.44540  0.84400  0.33490  Biso   1.000  H
  H14      1.0000 0.42330  0.84590  0.20350  Biso   1.000  H
  H15      1.0000 0.27720  0.44200  0.57210  Biso   1.000  H
  H16      1.0000 0.08450  0.83020  0.45560  Biso   1.000  H
  H17      1.0000 0.07170  0.82140  0.31370  Biso   1.000  H
  H18      1.0000 0.44750  0.85130  0.47560  Biso   1.000  H
  C1       1.0000 0.43260  0.86430  0.95950  Biso   1.000  C
  C2       1.0000 0.44040  0.86340  0.04510  Biso   1.000  C
  C3       1.0000 0.33860  0.82990  0.08300  Biso   1.000  C
  C4       1.0000 0.23590  0.78480  0.03170  Biso   1.000  C
  C5       1.0000 0.23620  0.78540  0.94750  Biso   1.000  C
  C6       1.0000 0.72170  0.83790  0.62100  Biso   1.000  C
  C7       1.0000 0.67280  0.84140  0.69600  Biso   1.000  C
  C8       1.0000 0.84780  0.83630  0.61940  Biso   1.000  C
  C9       1.0000 0.30080  0.60510  0.69450  Biso   1.000  C
  C10      1.0000 0.29890  0.46770  0.69500  Biso   1.000  C
  C11      1.0000 0.75140  0.84300  0.76930  Biso   1.000  C
  C12      1.0000 0.92880  0.83920  0.69300  Biso   1.000  C
  C13      1.0000 0.87870  0.84210  0.76820  Biso   1.000  C
  C14      1.0000 0.06610  0.83700  0.69210  Biso   1.000  C
  C15      1.0000 0.28360  0.27340  0.62350  Biso   1.000  C
  C16      1.0000 0.29640  0.21110  0.69680  Biso   1.000  C
  C17      1.0000 0.25080  0.82210  0.21620  Biso   1.000  C
  C18      1.0000 0.30930  0.40590  0.76970  Biso   1.000  C
  C19      1.0000 0.29930  0.07230  0.69770  Biso   1.000  C
  C20      1.0000 0.53360  0.84230  0.69720  Biso   1.000  C
  C21      1.0000 0.30880  0.27810  0.77080  Biso   1.000  C
  C22      1.0000 0.36990  0.83980  0.35790  Biso   1.000  C
  C23      1.0000 0.34400  0.83370  0.17330  Biso   1.000  C
  C24      1.0000 0.28540  0.40070  0.62300  Biso   1.000  C
  C25      1.0000 0.15840  0.83170  0.43070  Biso   1.000  C
  C26      1.0000 0.15040  0.82660  0.34560  Biso   1.000  C
  C27      1.0000 0.25730  0.82930  0.30680  Biso   1.000  C
  C28      1.0000 0.37030  0.84400  0.44210  Biso   1.000  C
  N1       1.0000 0.26740  0.83840  0.47900  Biso   1.000  N
  N2       1.0000 0.33190  0.83190  0.91080  Biso   1.000  N
  O1       1.0000 0.10550  0.83190  0.62239  Biso   1.000  O
  O2       1.0000 0.31170  0.65970  0.76327  Biso   1.000  O
  O3       1.0000 0.28980  0.65590  0.62514  Biso   1.000  O
  O4       1.0000 0.31660  0.02130  0.76738  Biso   1.000  O
  O5       1.0000 0.13360  0.84080  0.76099  Biso   1.000  O
  O6       1.0000 0.28360  0.01790  0.62917  Biso   1.000  O
  O7       1.0000 0.49470  0.84260  0.76682  Biso   1.000  O
  O8       1.0000 0.46700  0.84340  0.62837  Biso   1.000  O
  Cu3      1.0000 0.68372  0.15949  0.22277  Biso   1.000  Cu
  Cu4      1.0000 0.71577  0.16218  0.38722  Biso   1.000  Cu
  H19      1.0000 0.49670  0.11060  0.06480  Biso   1.000  H
  H20      1.0000 0.48420  0.11410  0.92260  Biso   1.000  H
  H21      1.0000 0.83390  0.24610  0.94550  Biso   1.000  H
  H22      1.0000 0.83330  0.24810  0.08620  Biso   1.000  H
  H23      1.0000 0.33230  0.16350  0.42900  Biso   1.000  H
  H24      1.0000 0.12000  0.16680  0.43160  Biso   1.000  H
  H25      1.0000 0.28160  0.15530  0.17990  Biso   1.000  H
  H26      1.0000 0.06770  0.15660  0.18160  Biso   1.000  H
  H27      1.0000 0.72660  0.77090  0.42690  Biso   1.000  H
  H28      1.0000 0.82830  0.19230  0.81370  Biso   1.000  H
  H29      1.0000 0.68340  0.54920  0.18020  Biso   1.000  H
  H30      1.0000 0.68310  0.76340  0.17840  Biso   1.000  H
  H31      1.0000 0.55460  0.15600  0.66510  Biso   1.000  H
  H32      1.0000 0.57670  0.15410  0.79650  Biso   1.000  H
  H33      1.0000 0.72280  0.55800  0.42790  Biso   1.000  H
  H34      1.0000 0.91550  0.16980  0.54440  Biso   1.000  H
  H35      1.0000 0.92830  0.17860  0.68630  Biso   1.000  H
  H36      1.0000 0.55250  0.14870  0.52440  Biso   1.000  H
  C29      1.0000 0.56740  0.13570  0.04050  Biso   1.000  C
  C30      1.0000 0.55960  0.13660  0.95490  Biso   1.000  C
  C31      1.0000 0.66140  0.17010  0.91700  Biso   1.000  C
  C32      1.0000 0.76410  0.21520  0.96830  Biso   1.000  C
  C33      1.0000 0.76380  0.21460  0.05250  Biso   1.000  C
  C34      1.0000 0.27830  0.16210  0.37900  Biso   1.000  C
  C35      1.0000 0.32720  0.15860  0.30400  Biso   1.000  C
  C36      1.0000 0.15220  0.16370  0.38060  Biso   1.000  C
  C37      1.0000 0.69920  0.39490  0.30550  Biso   1.000  C
  C38      1.0000 0.70110  0.53230  0.30500  Biso   1.000  C
  C39      1.0000 0.24860  0.15700  0.23070  Biso   1.000  C
  C40      1.0000 0.07120  0.16080  0.30700  Biso   1.000  C
  C41      1.0000 0.12130  0.15790  0.23180  Biso   1.000  C
  C42      1.0000 0.93390  0.16300  0.30790  Biso   1.000  C
  C43      1.0000 0.71640  0.72660  0.37650  Biso   1.000  C
  C44      1.0000 0.70360  0.78890  0.30320  Biso   1.000  C
  C45      1.0000 0.74920  0.17790  0.78380  Biso   1.000  C
  C46      1.0000 0.69070  0.59410  0.23030  Biso   1.000  C
  C47      1.0000 0.70070  0.92770  0.30230  Biso   1.000  C
  C48      1.0000 0.46640  0.15770  0.30280  Biso   1.000  C
  C49      1.0000 0.69120  0.72190  0.22920  Biso   1.000  C
  C50      1.0000 0.63010  0.16020  0.64210  Biso   1.000  C
  C51      1.0000 0.65600  0.16630  0.82670  Biso   1.000  C
  C52      1.0000 0.71460  0.59930  0.37700  Biso   1.000  C
  C53      1.0000 0.84160  0.16830  0.56930  Biso   1.000  C
  C54      1.0000 0.84960  0.17340  0.65440  Biso   1.000  C
  C55      1.0000 0.74270  0.17070  0.69320  Biso   1.000  C
  C56      1.0000 0.62970  0.15600  0.55790  Biso   1.000  C
  N3       1.0000 0.73260  0.16160  0.52100  Biso   1.000  N
  N4       1.0000 0.66810  0.16810  0.08920  Biso   1.000  N
  O9       1.0000 0.89450  0.16810  0.37761  Biso   1.000  O
  O10      1.0000 0.68830  0.34030  0.23673  Biso   1.000  O
  O11      1.0000 0.71020  0.34410  0.37486  Biso   1.000  O
  O12      1.0000 0.68340  0.97870  0.23262  Biso   1.000  O
  O13      1.0000 0.86640  0.15920  0.23901  Biso   1.000  O
  O14      1.0000 0.71640  0.98210  0.37083  Biso   1.000  O
  O15      1.0000 0.50530  0.15740  0.23318  Biso   1.000  O
  O16      1.0000 0.53300  0.15660  0.37163  Biso   1.000  O
