data_image0
_cell_length_a       10.8195
_cell_length_b       14.004
_cell_length_c       21.682
_cell_angle_alpha    87.57
_cell_angle_beta     86.557
_cell_angle_gamma    88.083

_symmetry_space_group_name_H-M    P 1
_symmetry_int_tables_number       1

loop_
  _symmetry_equiv_pos_as_xyz
  'x, y, z'

loop_
  _atom_site_label
  _atom_site_occupancy
  _atom_site_fract_x
  _atom_site_fract_y
  _atom_site_fract_z
  _atom_site_thermal_displace_type
  _atom_site_B_iso_or_equiv
  _atom_site_type_symbol
  Cu1      1.0000 0.22874  0.30490  0.66777  Biso   1.000  Cu
  Cu2      1.0000 0.23700  0.11567  0.67291  Biso   1.000  Cu
  Cu3      1.0000 0.19832  0.30278  0.16879  Biso   1.000  Cu
  Cu4      1.0000 0.20715  0.11335  0.17392  Biso   1.000  Cu
  H1       1.0000 0.20560  0.35380  0.86360  Biso   1.000  H
  H2       1.0000 0.19310  0.35410  0.97010  Biso   1.000  H
  H3       1.0000 0.24600  0.06810  0.97760  Biso   1.000  H
  H4       1.0000 0.25560  0.06950  0.87090  Biso   1.000  H
  H5       1.0000 0.84590  0.06740  0.68120  Biso   1.000  H
  H6       1.0000 0.63240  0.06540  0.67710  Biso   1.000  H
  H7       1.0000 0.61860  0.35210  0.65960  Biso   1.000  H
  H8       1.0000 0.83220  0.35560  0.66560  Biso   1.000  H
  H9       1.0000 0.25920  0.06990  0.47520  Biso   1.000  H
  H10      1.0000 0.24430  0.06940  0.37080  Biso   1.000  H
  H11      1.0000 0.16880  0.35340  0.36570  Biso   1.000  H
  H12      1.0000 0.17890  0.35350  0.47220  Biso   1.000  H
  H13      1.0000 0.81640  0.06330  0.18200  Biso   1.000  H
  H14      1.0000 0.60150  0.06190  0.18320  Biso   1.000  H
  H15      1.0000 0.58870  0.35070  0.15960  Biso   1.000  H
  H16      1.0000 0.80360  0.35140  0.16190  Biso   1.000  H
  H17      1.0000 0.38290  0.47200  0.61680  Biso   1.000  H
  H18      1.0000 0.39030  0.63470  0.61340  Biso   1.000  H
  H19      1.0000 0.07270  0.63950  0.71710  Biso   1.000  H
  H20      1.0000 0.07380  0.47660  0.71510  Biso   1.000  H
  H21      1.0000 0.41870  0.94010  0.66440  Biso   1.000  H
  H22      1.0000 0.42010  0.77690  0.66170  Biso   1.000  H
  H23      1.0000 0.04900  0.79000  0.67160  Biso   1.000  H
  H24      1.0000 0.05700  0.95200  0.67520  Biso   1.000  H
  H25      1.0000 0.38740  0.93820  0.16720  Biso   1.000  H
  H26      1.0000 0.39010  0.77480  0.16190  Biso   1.000  H
  H27      1.0000 0.02020  0.78840  0.16740  Biso   1.000  H
  H28      1.0000 0.02900  0.95020  0.16940  Biso   1.000  H
  H29      1.0000 0.35730  0.47000  0.11500  Biso   1.000  H
  H30      1.0000 0.36830  0.63260  0.11640  Biso   1.000  H
  H31      1.0000 0.03400  0.63970  0.20720  Biso   1.000  H
  H32      1.0000 0.03820  0.47550  0.20830  Biso   1.000  H
  C1       1.0000 0.23360  0.21080  0.78683  Biso   1.000  C
  C2       1.0000 0.99840  0.21130  0.67424  Biso   1.000  C
  C3       1.0000 0.22960  0.21260  0.55375  Biso   1.000  C
  C4       1.0000 0.46630  0.20880  0.66700  Biso   1.000  C
  C5       1.0000 0.20080  0.21050  0.28817  Biso   1.000  C
  C6       1.0000 0.96870  0.20880  0.17293  Biso   1.000  C
  C7       1.0000 0.21270  0.20990  0.05386  Biso   1.000  C
  C8       1.0000 0.43610  0.20440  0.16906  Biso   1.000  C
  C9       1.0000 0.23200  0.21160  0.85651  Biso   1.000  C
  C10      1.0000 0.21360  0.29580  0.88660  Biso   1.000  C
  C11      1.0000 0.20690  0.29600  0.95020  Biso   1.000  C
  C12      1.0000 0.22040  0.21150  0.98538  Biso   1.000  C
  C13      1.0000 0.23800  0.12640  0.95480  Biso   1.000  C
  C14      1.0000 0.24360  0.12750  0.89110  Biso   1.000  C
  C15      1.0000 0.86120  0.21110  0.67293  Biso   1.000  C
  C16      1.0000 0.80010  0.12530  0.67690  Biso   1.000  C
  C17      1.0000 0.67290  0.12390  0.67460  Biso   1.000  C
  C18      1.0000 0.60550  0.20850  0.66867  Biso   1.000  C
  C19      1.0000 0.66500  0.29460  0.66450  Biso   1.000  C
  C20      1.0000 0.79240  0.29680  0.66740  Biso   1.000  C
  C21      1.0000 0.22050  0.21300  0.48470  Biso   1.000  C
  C22      1.0000 0.24030  0.12720  0.45310  Biso   1.000  C
  C23      1.0000 0.23230  0.12720  0.39120  Biso   1.000  C
  C24      1.0000 0.20650  0.21070  0.35686  Biso   1.000  C
  C25      1.0000 0.18660  0.29610  0.38800  Biso   1.000  C
  C26      1.0000 0.19320  0.29620  0.45150  Biso   1.000  C
  C27      1.0000 0.83070  0.20790  0.17162  Biso   1.000  C
  C28      1.0000 0.77020  0.12110  0.17780  Biso   1.000  C
  C29      1.0000 0.64240  0.12010  0.17780  Biso   1.000  C
  C30      1.0000 0.57440  0.20570  0.16977  Biso   1.000  C
  C31      1.0000 0.63460  0.29290  0.16410  Biso   1.000  C
  C32      1.0000 0.76270  0.29310  0.16530  Biso   1.000  C
  C33      1.0000 0.31800  0.50670  0.63720  Biso   1.000  C
  C34      1.0000 0.32380  0.60430  0.63520  Biso   1.000  C
  C35      1.0000 0.23260  0.65700  0.66500  Biso   1.000  C
  C36      1.0000 0.13790  0.60670  0.69550  Biso   1.000  C
  C37      1.0000 0.13940  0.50940  0.69430  Biso   1.000  C
  C38      1.0000 0.34270  0.90920  0.66620  Biso   1.000  C
  C39      1.0000 0.34410  0.81140  0.66440  Biso   1.000  C
  C40      1.0000 0.23460  0.76350  0.66650  Biso   1.000  C
  C41      1.0000 0.12620  0.81910  0.67040  Biso   1.000  C
  C42      1.0000 0.13170  0.91580  0.67240  Biso   1.000  C
  C43      1.0000 0.31170  0.90700  0.16750  Biso   1.000  C
  C44      1.0000 0.31380  0.80900  0.16420  Biso   1.000  C
  C45      1.0000 0.20540  0.76070  0.16422  Biso   1.000  C
  C46      1.0000 0.09760  0.81700  0.16700  Biso   1.000  C
  C47      1.0000 0.10350  0.91370  0.16910  Biso   1.000  C
  C48      1.0000 0.29280  0.50480  0.13560  Biso   1.000  C
  C49      1.0000 0.29900  0.60200  0.13540  Biso   1.000  C
  C50      1.0000 0.20280  0.65550  0.16330  Biso   1.000  C
  C51      1.0000 0.10320  0.60640  0.18940  Biso   1.000  C
  C52      1.0000 0.10610  0.50770  0.18920  Biso   1.000  C
  N1       1.0000 0.22910  0.45890  0.66527  Biso   1.000  N
  N2       1.0000 0.23860  0.96210  0.67054  Biso   1.000  N
  N3       1.0000 0.20800  0.95880  0.17089  Biso   1.000  N
  N4       1.0000 0.19740  0.45620  0.16424  Biso   1.000  N
  O1       1.0000 0.23140  0.29010  0.75828  Biso   1.000  O
  O2       1.0000 0.23410  0.13100  0.76269  Biso   1.000  O
  O3       1.0000 0.04820  0.29250  0.67427  Biso   1.000  O
  O4       1.0000 0.05660  0.13230  0.67606  Biso   1.000  O
  O5       1.0000 0.22590  0.29280  0.57820  Biso   1.000  O
  O6       1.0000 0.24030  0.13350  0.58211  Biso   1.000  O
  O7       1.0000 0.40990  0.28720  0.66262  Biso   1.000  O
  O8       1.0000 0.41610  0.12830  0.66919  Biso   1.000  O
  O9       1.0000 0.19680  0.29050  0.25941  Biso   1.000  O
  O10      1.0000 0.20020  0.13120  0.26422  Biso   1.000  O
  O11      1.0000 0.01770  0.28830  0.17253  Biso   1.000  O
  O12      1.0000 0.02660  0.12950  0.17470  Biso   1.000  O
  O13      1.0000 0.20320  0.29020  0.07892  Biso   1.000  O
  O14      1.0000 0.21710  0.13170  0.08300  Biso   1.000  O
  O15      1.0000 0.37890  0.28450  0.16591  Biso   1.000  O
  O16      1.0000 0.38580  0.12530  0.17309  Biso   1.000  O
  Cu5      1.0000 0.77126  0.69510  0.33223  Biso   1.000  Cu
  Cu6      1.0000 0.76300  0.88433  0.32709  Biso   1.000  Cu
  Cu7      1.0000 0.80168  0.69722  0.83121  Biso   1.000  Cu
  Cu8      1.0000 0.79285  0.88665  0.82608  Biso   1.000  Cu
  H33      1.0000 0.79440  0.64620  0.13640  Biso   1.000  H
  H34      1.0000 0.80690  0.64590  0.02990  Biso   1.000  H
  H35      1.0000 0.75400  0.93190  0.02240  Biso   1.000  H
  H36      1.0000 0.74440  0.93050  0.12910  Biso   1.000  H
  H37      1.0000 0.15410  0.93260  0.31880  Biso   1.000  H
  H38      1.0000 0.36760  0.93460  0.32290  Biso   1.000  H
  H39      1.0000 0.38140  0.64790  0.34040  Biso   1.000  H
  H40      1.0000 0.16780  0.64440  0.33440  Biso   1.000  H
  H41      1.0000 0.74080  0.93010  0.52480  Biso   1.000  H
  H42      1.0000 0.75570  0.93060  0.62920  Biso   1.000  H
  H43      1.0000 0.83120  0.64660  0.63430  Biso   1.000  H
  H44      1.0000 0.82110  0.64650  0.52780  Biso   1.000  H
  H45      1.0000 0.18360  0.93670  0.81800  Biso   1.000  H
  H46      1.0000 0.39850  0.93810  0.81680  Biso   1.000  H
  H47      1.0000 0.41130  0.64930  0.84040  Biso   1.000  H
  H48      1.0000 0.19640  0.64860  0.83810  Biso   1.000  H
  H49      1.0000 0.61710  0.52800  0.38320  Biso   1.000  H
  H50      1.0000 0.60970  0.36530  0.38660  Biso   1.000  H
  H51      1.0000 0.92730  0.36050  0.28290  Biso   1.000  H
  H52      1.0000 0.92620  0.52340  0.28490  Biso   1.000  H
  H53      1.0000 0.58130  0.05990  0.33560  Biso   1.000  H
  H54      1.0000 0.57990  0.22310  0.33830  Biso   1.000  H
  H55      1.0000 0.95100  0.21000  0.32840  Biso   1.000  H
  H56      1.0000 0.94300  0.04800  0.32480  Biso   1.000  H
  H57      1.0000 0.61260  0.06180  0.83280  Biso   1.000  H
  H58      1.0000 0.60990  0.22520  0.83810  Biso   1.000  H
  H59      1.0000 0.97980  0.21160  0.83260  Biso   1.000  H
  H60      1.0000 0.97100  0.04980  0.83060  Biso   1.000  H
  H61      1.0000 0.64270  0.53000  0.88500  Biso   1.000  H
  H62      1.0000 0.63170  0.36740  0.88360  Biso   1.000  H
  H63      1.0000 0.96600  0.36030  0.79280  Biso   1.000  H
  H64      1.0000 0.96180  0.52450  0.79170  Biso   1.000  H
  C53      1.0000 0.76640  0.78920  0.21317  Biso   1.000  C
  C54      1.0000 0.00160  0.78870  0.32576  Biso   1.000  C
  C55      1.0000 0.77040  0.78740  0.44625  Biso   1.000  C
  C56      1.0000 0.53370  0.79120  0.33300  Biso   1.000  C
  C57      1.0000 0.79920  0.78950  0.71183  Biso   1.000  C
  C58      1.0000 0.03130  0.79120  0.82707  Biso   1.000  C
  C59      1.0000 0.78730  0.79010  0.94614  Biso   1.000  C
  C60      1.0000 0.56390  0.79560  0.83094  Biso   1.000  C
  C61      1.0000 0.76800  0.78840  0.14349  Biso   1.000  C
  C62      1.0000 0.78640  0.70420  0.11340  Biso   1.000  C
  C63      1.0000 0.79310  0.70400  0.04980  Biso   1.000  C
  C64      1.0000 0.77960  0.78850  0.01462  Biso   1.000  C
  C65      1.0000 0.76200  0.87360  0.04520  Biso   1.000  C
  C66      1.0000 0.75640  0.87250  0.10890  Biso   1.000  C
  C67      1.0000 0.13880  0.78890  0.32707  Biso   1.000  C
  C68      1.0000 0.19990  0.87470  0.32310  Biso   1.000  C
  C69      1.0000 0.32710  0.87610  0.32540  Biso   1.000  C
  C70      1.0000 0.39450  0.79150  0.33133  Biso   1.000  C
  C71      1.0000 0.33500  0.70540  0.33550  Biso   1.000  C
  C72      1.0000 0.20760  0.70320  0.33260  Biso   1.000  C
  C73      1.0000 0.77950  0.78700  0.51530  Biso   1.000  C
  C74      1.0000 0.75970  0.87280  0.54690  Biso   1.000  C
  C75      1.0000 0.76770  0.87280  0.60880  Biso   1.000  C
  C76      1.0000 0.79350  0.78930  0.64314  Biso   1.000  C
  C77      1.0000 0.81340  0.70390  0.61200  Biso   1.000  C
  C78      1.0000 0.80680  0.70380  0.54850  Biso   1.000  C
  C79      1.0000 0.16930  0.79210  0.82838  Biso   1.000  C
  C80      1.0000 0.22980  0.87890  0.82220  Biso   1.000  C
  C81      1.0000 0.35760  0.87990  0.82220  Biso   1.000  C
  C82      1.0000 0.42560  0.79430  0.83023  Biso   1.000  C
  C83      1.0000 0.36540  0.70710  0.83590  Biso   1.000  C
  C84      1.0000 0.23730  0.70690  0.83470  Biso   1.000  C
  C85      1.0000 0.68200  0.49330  0.36280  Biso   1.000  C
  C86      1.0000 0.67620  0.39570  0.36480  Biso   1.000  C
  C87      1.0000 0.76740  0.34300  0.33500  Biso   1.000  C
  C88      1.0000 0.86210  0.39330  0.30450  Biso   1.000  C
  C89      1.0000 0.86060  0.49060  0.30570  Biso   1.000  C
  C90      1.0000 0.65730  0.09080  0.33380  Biso   1.000  C
  C91      1.0000 0.65590  0.18860  0.33560  Biso   1.000  C
  C92      1.0000 0.76540  0.23650  0.33350  Biso   1.000  C
  C93      1.0000 0.87380  0.18090  0.32960  Biso   1.000  C
  C94      1.0000 0.86830  0.08420  0.32760  Biso   1.000  C
  C95      1.0000 0.68830  0.09300  0.83250  Biso   1.000  C
  C96      1.0000 0.68620  0.19100  0.83580  Biso   1.000  C
  C97      1.0000 0.79460  0.23930  0.83578  Biso   1.000  C
  C98      1.0000 0.90240  0.18300  0.83300  Biso   1.000  C
  C99      1.0000 0.89650  0.08630  0.83090  Biso   1.000  C
  C100     1.0000 0.70720  0.49520  0.86440  Biso   1.000  C
  C101     1.0000 0.70100  0.39800  0.86460  Biso   1.000  C
  C102     1.0000 0.79720  0.34450  0.83670  Biso   1.000  C
  C103     1.0000 0.89680  0.39360  0.81060  Biso   1.000  C
  C104     1.0000 0.89390  0.49230  0.81080  Biso   1.000  C
  N5       1.0000 0.77090  0.54110  0.33473  Biso   1.000  N
  N6       1.0000 0.76140  0.03790  0.32946  Biso   1.000  N
  N7       1.0000 0.79200  0.04120  0.82911  Biso   1.000  N
  N8       1.0000 0.80260  0.54380  0.83576  Biso   1.000  N
  O17      1.0000 0.76860  0.70990  0.24172  Biso   1.000  O
  O18      1.0000 0.76590  0.86900  0.23731  Biso   1.000  O
  O19      1.0000 0.95180  0.70750  0.32573  Biso   1.000  O
  O20      1.0000 0.94340  0.86770  0.32394  Biso   1.000  O
  O21      1.0000 0.77410  0.70720  0.42180  Biso   1.000  O
  O22      1.0000 0.75970  0.86650  0.41789  Biso   1.000  O
  O23      1.0000 0.59010  0.71280  0.33738  Biso   1.000  O
  O24      1.0000 0.58390  0.87170  0.33081  Biso   1.000  O
  O25      1.0000 0.80320  0.70950  0.74059  Biso   1.000  O
  O26      1.0000 0.79980  0.86880  0.73578  Biso   1.000  O
  O27      1.0000 0.98230  0.71170  0.82747  Biso   1.000  O
  O28      1.0000 0.97340  0.87050  0.82530  Biso   1.000  O
  O29      1.0000 0.79680  0.70980  0.92108  Biso   1.000  O
  O30      1.0000 0.78290  0.86830  0.91700  Biso   1.000  O
  O31      1.0000 0.62110  0.71550  0.83409  Biso   1.000  O
  O32      1.0000 0.61420  0.87470  0.82691  Biso   1.000  O
