data_image0
_cell_length_a       10.8044
_cell_length_b       14.053
_cell_length_c       21.678
_cell_angle_alpha    89.878
_cell_angle_beta     83.363
_cell_angle_gamma    88.981

_symmetry_space_group_name_H-M    P 1
_symmetry_int_tables_number       1

loop_
  _symmetry_equiv_pos_as_xyz
  'x, y, z'

loop_
  _atom_site_label
  _atom_site_occupancy
  _atom_site_fract_x
  _atom_site_fract_y
  _atom_site_fract_z
  _atom_site_thermal_displace_type
  _atom_site_B_iso_or_equiv
  _atom_site_type_symbol
  Cu1      1.0000 0.71846  0.29889  0.67165  Biso   1.000  Cu
  Cu2      1.0000 0.72322  0.10993  0.67164  Biso   1.000  Cu
  Cu3      1.0000 0.73297  0.29646  0.17047  Biso   1.000  Cu
  Cu4      1.0000 0.73731  0.10729  0.17126  Biso   1.000  Cu
  H1       1.0000 0.77230  0.34390  0.86380  Biso   1.000  H
  H2       1.0000 0.78640  0.34300  0.96990  Biso   1.000  H
  H3       1.0000 0.68070  0.07180  0.97930  Biso   1.000  H
  H4       1.0000 0.66870  0.07150  0.87410  Biso   1.000  H
  H5       1.0000 0.32690  0.05950  0.68650  Biso   1.000  H
  H6       1.0000 0.11320  0.06010  0.68550  Biso   1.000  H
  H7       1.0000 0.11450  0.34380  0.65590  Biso   1.000  H
  H8       1.0000 0.32800  0.34390  0.65860  Biso   1.000  H
  H9       1.0000 0.79780  0.07640  0.47150  Biso   1.000  H
  H10      1.0000 0.78870  0.07310  0.36620  Biso   1.000  H
  H11      1.0000 0.68490  0.34760  0.36970  Biso   1.000  H
  H12      1.0000 0.68450  0.34770  0.47700  Biso   1.000  H
  H13      1.0000 0.34110  0.05630  0.18890  Biso   1.000  H
  H14      1.0000 0.12960  0.05480  0.18290  Biso   1.000  H
  H15      1.0000 0.12900  0.33760  0.15140  Biso   1.000  H
  H16      1.0000 0.34120  0.33950  0.15570  Biso   1.000  H
  H17      1.0000 0.90580  0.93710  0.66280  Biso   1.000  H
  H18      1.0000 0.91180  0.77360  0.66280  Biso   1.000  H
  H19      1.0000 0.53790  0.77900  0.66930  Biso   1.000  H
  H20      1.0000 0.54420  0.94200  0.67150  Biso   1.000  H
  H21      1.0000 0.89300  0.45940  0.11940  Biso   1.000  H
  H22      1.0000 0.90250  0.62240  0.11610  Biso   1.000  H
  H23      1.0000 0.56950  0.63250  0.22140  Biso   1.000  H
  H24      1.0000 0.57430  0.46860  0.22240  Biso   1.000  H
  H25      1.0000 0.55750  0.93970  0.17480  Biso   1.000  H
  H26      1.0000 0.55140  0.77660  0.17400  Biso   1.000  H
  H27      1.0000 0.92570  0.77070  0.15890  Biso   1.000  H
  H28      1.0000 0.91960  0.93450  0.16100  Biso   1.000  H
  H29      1.0000 0.57480  0.46860  0.62470  Biso   1.000  H
  H30      1.0000 0.57420  0.63140  0.61900  Biso   1.000  H
  H31      1.0000 0.86900  0.62820  0.71760  Biso   1.000  H
  H32      1.0000 0.85690  0.46520  0.72090  Biso   1.000  H
  C1       1.0000 0.71280  0.20650  0.78883  Biso   1.000  C
  C2       1.0000 0.48690  0.20160  0.67432  Biso   1.000  C
  C3       1.0000 0.73420  0.21040  0.55425  Biso   1.000  C
  C4       1.0000 0.95430  0.20190  0.66857  Biso   1.000  C
  C5       1.0000 0.72930  0.20580  0.28786  Biso   1.000  C
  C6       1.0000 0.50050  0.20040  0.17544  Biso   1.000  C
  C7       1.0000 0.74070  0.20710  0.05361  Biso   1.000  C
  C8       1.0000 0.96940  0.19600  0.16573  Biso   1.000  C
  C9       1.0000 0.71970  0.20720  0.85755  Biso   1.000  C
  C10      1.0000 0.75420  0.28820  0.88696  Biso   1.000  C
  C11      1.0000 0.76200  0.28760  0.95062  Biso   1.000  C
  C12      1.0000 0.73510  0.20860  0.98548  Biso   1.000  C
  C13      1.0000 0.69980  0.12720  0.95601  Biso   1.000  C
  C14      1.0000 0.69260  0.12720  0.89322  Biso   1.000  C
  C15      1.0000 0.34900  0.20120  0.67234  Biso   1.000  C
  C16      1.0000 0.28400  0.11690  0.68043  Biso   1.000  C
  C17      1.0000 0.15700  0.11720  0.67952  Biso   1.000  C
  C18      1.0000 0.09260  0.20210  0.66981  Biso   1.000  C
  C19      1.0000 0.15750  0.28650  0.66209  Biso   1.000  C
  C20      1.0000 0.28450  0.28650  0.66354  Biso   1.000  C
  C21      1.0000 0.73610  0.21130  0.48521  Biso   1.000  C
  C22      1.0000 0.77100  0.13100  0.45138  Biso   1.000  C
  C23      1.0000 0.76710  0.12960  0.38827  Biso   1.000  C
  C24      1.0000 0.73260  0.20870  0.35674  Biso   1.000  C
  C25      1.0000 0.70460  0.29130  0.39024  Biso   1.000  C
  C26      1.0000 0.70540  0.29140  0.45447  Biso   1.000  C
  C27      1.0000 0.36340  0.19850  0.17292  Biso   1.000  C
  C28      1.0000 0.29840  0.11310  0.18111  Biso   1.000  C
  C29      1.0000 0.17260  0.11230  0.17780  Biso   1.000  C
  C30      1.0000 0.10790  0.19630  0.16695  Biso   1.000  C
  C31      1.0000 0.17210  0.28080  0.15884  Biso   1.000  C
  C32      1.0000 0.29840  0.28190  0.16157  Biso   1.000  C
  C33      1.0000 0.83030  0.90440  0.66466  Biso   1.000  C
  C34      1.0000 0.83480  0.80620  0.66435  Biso   1.000  C
  C35      1.0000 0.72470  0.75580  0.66636  Biso   1.000  C
  C36      1.0000 0.61490  0.80930  0.66847  Biso   1.000  C
  C37      1.0000 0.61970  0.90720  0.66940  Biso   1.000  C
  C38      1.0000 0.82730  0.49520  0.14079  Biso   1.000  C
  C39      1.0000 0.83350  0.59290  0.13818  Biso   1.000  C
  C40      1.0000 0.73690  0.64760  0.16844  Biso   1.000  C
  C41      1.0000 0.63760  0.59890  0.20038  Biso   1.000  C
  C42      1.0000 0.64120  0.50080  0.20057  Biso   1.000  C
  C43      1.0000 0.63310  0.90490  0.17162  Biso   1.000  C
  C44      1.0000 0.62870  0.80680  0.17130  Biso   1.000  C
  C45      1.0000 0.73710  0.75320  0.16701  Biso   1.000  C
  C46      1.0000 0.84860  0.80360  0.16250  Biso   1.000  C
  C47      1.0000 0.84410  0.90170  0.16346  Biso   1.000  C
  C48      1.0000 0.63510  0.50190  0.64350  Biso   1.000  C
  C49      1.0000 0.63400  0.59930  0.63990  Biso   1.000  C
  C50      1.0000 0.72330  0.65080  0.66775  Biso   1.000  C
  C51      1.0000 0.80730  0.59760  0.69810  Biso   1.000  C
  C52      1.0000 0.80000  0.49980  0.69950  Biso   1.000  C
  N1       1.0000 0.72460  0.95524  0.66749  Biso   1.000  N
  N2       1.0000 0.73510  0.44931  0.17132  Biso   1.000  N
  N3       1.0000 0.73830  0.95232  0.16771  Biso   1.000  N
  N4       1.0000 0.71700  0.45228  0.67214  Biso   1.000  N
  O1       1.0000 0.72030  0.28564  0.76179  Biso   1.000  O
  O2       1.0000 0.70021  0.12729  0.76380  Biso   1.000  O
  O3       1.0000 0.53635  0.28073  0.68051  Biso   1.000  O
  O4       1.0000 0.54342  0.12198  0.67016  Biso   1.000  O
  O5       1.0000 0.71886  0.28962  0.58157  Biso   1.000  O
  O6       1.0000 0.74690  0.13116  0.58017  Biso   1.000  O
  O7       1.0000 0.90066  0.28110  0.66225  Biso   1.000  O
  O8       1.0000 0.90141  0.12246  0.67383  Biso   1.000  O
  O9       1.0000 0.71561  0.28464  0.26114  Biso   1.000  O
  O10      1.0000 0.73970  0.12626  0.26207  Biso   1.000  O
  O11      1.0000 0.55240  0.27963  0.17153  Biso   1.000  O
  O12      1.0000 0.55595  0.12097  0.18122  Biso   1.000  O
  O13      1.0000 0.74970  0.28660  0.07971  Biso   1.000  O
  O14      1.0000 0.73500  0.12780  0.08057  Biso   1.000  O
  O15      1.0000 0.91385  0.27580  0.16937  Biso   1.000  O
  O16      1.0000 0.91793  0.11654  0.16210  Biso   1.000  O
  Cu5      1.0000 0.28154  0.70111  0.32835  Biso   1.000  Cu
  Cu6      1.0000 0.27678  0.89007  0.32836  Biso   1.000  Cu
  Cu7      1.0000 0.26703  0.70354  0.82953  Biso   1.000  Cu
  Cu8      1.0000 0.26269  0.89271  0.82874  Biso   1.000  Cu
  H33      1.0000 0.22770  0.65610  0.13620  Biso   1.000  H
  H34      1.0000 0.21360  0.65700  0.03010  Biso   1.000  H
  H35      1.0000 0.31930  0.92820  0.02070  Biso   1.000  H
  H36      1.0000 0.33130  0.92850  0.12590  Biso   1.000  H
  H37      1.0000 0.67310  0.94050  0.31350  Biso   1.000  H
  H38      1.0000 0.88680  0.93990  0.31450  Biso   1.000  H
  H39      1.0000 0.88550  0.65620  0.34410  Biso   1.000  H
  H40      1.0000 0.67200  0.65610  0.34140  Biso   1.000  H
  H41      1.0000 0.20220  0.92360  0.52850  Biso   1.000  H
  H42      1.0000 0.21130  0.92690  0.63380  Biso   1.000  H
  H43      1.0000 0.31510  0.65240  0.63030  Biso   1.000  H
  H44      1.0000 0.31550  0.65230  0.52300  Biso   1.000  H
  H45      1.0000 0.65890  0.94370  0.81110  Biso   1.000  H
  H46      1.0000 0.87040  0.94520  0.81710  Biso   1.000  H
  H47      1.0000 0.87100  0.66240  0.84860  Biso   1.000  H
  H48      1.0000 0.65880  0.66050  0.84430  Biso   1.000  H
  H49      1.0000 0.09420  0.06290  0.33720  Biso   1.000  H
  H50      1.0000 0.08820  0.22640  0.33720  Biso   1.000  H
  H51      1.0000 0.46210  0.22100  0.33070  Biso   1.000  H
  H52      1.0000 0.45580  0.05800  0.32850  Biso   1.000  H
  H53      1.0000 0.10700  0.54060  0.88060  Biso   1.000  H
  H54      1.0000 0.09750  0.37760  0.88390  Biso   1.000  H
  H55      1.0000 0.43050  0.36750  0.77860  Biso   1.000  H
  H56      1.0000 0.42570  0.53140  0.77760  Biso   1.000  H
  H57      1.0000 0.44250  0.06030  0.82520  Biso   1.000  H
  H58      1.0000 0.44860  0.22340  0.82600  Biso   1.000  H
  H59      1.0000 0.07430  0.22930  0.84110  Biso   1.000  H
  H60      1.0000 0.08040  0.06550  0.83900  Biso   1.000  H
  H61      1.0000 0.42520  0.53140  0.37530  Biso   1.000  H
  H62      1.0000 0.42580  0.36860  0.38100  Biso   1.000  H
  H63      1.0000 0.13100  0.37180  0.28240  Biso   1.000  H
  H64      1.0000 0.14310  0.53480  0.27910  Biso   1.000  H
  C53      1.0000 0.28720  0.79350  0.21117  Biso   1.000  C
  C54      1.0000 0.51310  0.79840  0.32568  Biso   1.000  C
  C55      1.0000 0.26580  0.78960  0.44575  Biso   1.000  C
  C56      1.0000 0.04570  0.79810  0.33143  Biso   1.000  C
  C57      1.0000 0.27070  0.79420  0.71214  Biso   1.000  C
  C58      1.0000 0.49950  0.79960  0.82456  Biso   1.000  C
  C59      1.0000 0.25930  0.79290  0.94639  Biso   1.000  C
  C60      1.0000 0.03060  0.80400  0.83427  Biso   1.000  C
  C61      1.0000 0.28030  0.79280  0.14245  Biso   1.000  C
  C62      1.0000 0.24580  0.71180  0.11304  Biso   1.000  C
  C63      1.0000 0.23800  0.71240  0.04938  Biso   1.000  C
  C64      1.0000 0.26490  0.79140  0.01452  Biso   1.000  C
  C65      1.0000 0.30020  0.87280  0.04399  Biso   1.000  C
  C66      1.0000 0.30740  0.87280  0.10678  Biso   1.000  C
  C67      1.0000 0.65100  0.79880  0.32766  Biso   1.000  C
  C68      1.0000 0.71600  0.88310  0.31957  Biso   1.000  C
  C69      1.0000 0.84300  0.88280  0.32048  Biso   1.000  C
  C70      1.0000 0.90740  0.79790  0.33019  Biso   1.000  C
  C71      1.0000 0.84250  0.71350  0.33791  Biso   1.000  C
  C72      1.0000 0.71550  0.71350  0.33646  Biso   1.000  C
  C73      1.0000 0.26390  0.78870  0.51479  Biso   1.000  C
  C74      1.0000 0.22900  0.86900  0.54862  Biso   1.000  C
  C75      1.0000 0.23290  0.87040  0.61173  Biso   1.000  C
  C76      1.0000 0.26740  0.79130  0.64326  Biso   1.000  C
  C77      1.0000 0.29540  0.70870  0.60976  Biso   1.000  C
  C78      1.0000 0.29460  0.70860  0.54553  Biso   1.000  C
  C79      1.0000 0.63660  0.80150  0.82708  Biso   1.000  C
  C80      1.0000 0.70160  0.88690  0.81889  Biso   1.000  C
  C81      1.0000 0.82740  0.88770  0.82220  Biso   1.000  C
  C82      1.0000 0.89210  0.80370  0.83305  Biso   1.000  C
  C83      1.0000 0.82790  0.71920  0.84116  Biso   1.000  C
  C84      1.0000 0.70160  0.71810  0.83843  Biso   1.000  C
  C85      1.0000 0.16970  0.09560  0.33534  Biso   1.000  C
  C86      1.0000 0.16520  0.19380  0.33565  Biso   1.000  C
  C87      1.0000 0.27530  0.24420  0.33364  Biso   1.000  C
  C88      1.0000 0.38510  0.19070  0.33153  Biso   1.000  C
  C89      1.0000 0.38030  0.09280  0.33060  Biso   1.000  C
  C90      1.0000 0.17270  0.50480  0.85921  Biso   1.000  C
  C91      1.0000 0.16650  0.40710  0.86182  Biso   1.000  C
  C92      1.0000 0.26310  0.35240  0.83156  Biso   1.000  C
  C93      1.0000 0.36240  0.40110  0.79962  Biso   1.000  C
  C94      1.0000 0.35880  0.49920  0.79943  Biso   1.000  C
  C95      1.0000 0.36690  0.09510  0.82838  Biso   1.000  C
  C96      1.0000 0.37130  0.19320  0.82870  Biso   1.000  C
  C97      1.0000 0.26290  0.24680  0.83299  Biso   1.000  C
  C98      1.0000 0.15140  0.19640  0.83750  Biso   1.000  C
  C99      1.0000 0.15590  0.09830  0.83654  Biso   1.000  C
  C100     1.0000 0.36490  0.49810  0.35650  Biso   1.000  C
  C101     1.0000 0.36600  0.40070  0.36010  Biso   1.000  C
  C102     1.0000 0.27670  0.34920  0.33225  Biso   1.000  C
  C103     1.0000 0.19270  0.40240  0.30190  Biso   1.000  C
  C104     1.0000 0.20000  0.50020  0.30050  Biso   1.000  C
  N5       1.0000 0.27540  0.04476  0.33251  Biso   1.000  N
  N6       1.0000 0.26490  0.55069  0.82868  Biso   1.000  N
  N7       1.0000 0.26170  0.04768  0.83229  Biso   1.000  N
  N8       1.0000 0.28300  0.54772  0.32786  Biso   1.000  N
  O17      1.0000 0.27970  0.71436  0.23821  Biso   1.000  O
  O18      1.0000 0.29979  0.87271  0.23620  Biso   1.000  O
  O19      1.0000 0.46365  0.71927  0.31949  Biso   1.000  O
  O20      1.0000 0.45658  0.87802  0.32984  Biso   1.000  O
  O21      1.0000 0.28114  0.71038  0.41843  Biso   1.000  O
  O22      1.0000 0.25310  0.86884  0.41983  Biso   1.000  O
  O23      1.0000 0.09934  0.71890  0.33775  Biso   1.000  O
  O24      1.0000 0.09859  0.87754  0.32617  Biso   1.000  O
  O25      1.0000 0.28439  0.71536  0.73886  Biso   1.000  O
  O26      1.0000 0.26030  0.87374  0.73793  Biso   1.000  O
  O27      1.0000 0.44760  0.72037  0.82847  Biso   1.000  O
  O28      1.0000 0.44405  0.87903  0.81878  Biso   1.000  O
  O29      1.0000 0.25030  0.71340  0.92029  Biso   1.000  O
  O30      1.0000 0.26500  0.87220  0.91943  Biso   1.000  O
  O31      1.0000 0.08615  0.72420  0.83063  Biso   1.000  O
  O32      1.0000 0.08207  0.88346  0.83790  Biso   1.000  O
