data_image0
_cell_length_a       7.179
_cell_length_b       14.634
_cell_length_c       22.134
_cell_angle_alpha    90
_cell_angle_beta     91.121
_cell_angle_gamma    90

_symmetry_space_group_name_H-M    P 1
_symmetry_int_tables_number       1

loop_
  _symmetry_equiv_pos_as_xyz
  'x, y, z'

loop_
  _atom_site_label
  _atom_site_occupancy
  _atom_site_fract_x
  _atom_site_fract_y
  _atom_site_fract_z
  _atom_site_thermal_displace_type
  _atom_site_B_iso_or_equiv
  _atom_site_type_symbol
  Co1      1.0000 0.75210  0.52840  0.76213  Biso   1.000  Co
  Co2      1.0000 0.74790  0.02840  0.73787  Biso   1.000  Co
  Co3      1.0000 0.24790  0.47160  0.23787  Biso   1.000  Co
  Co4      1.0000 0.25210  0.97160  0.26213  Biso   1.000  Co
  Co5      1.0000 0.50000  0.50000  0.50000  Biso   1.000  Co
  Co6      1.0000 0.00000  0.00000  0.00000  Biso   1.000  Co
  H1       1.0000 0.67650  0.48610  0.62870  Biso   1.000  H
  H2       1.0000 0.79210  0.71980  0.70000  Biso   1.000  H
  H3       1.0000 0.74860  0.79150  0.60650  Biso   1.000  H
  H4       1.0000 0.62080  0.70410  0.52830  Biso   1.000  H
  H5       1.0000 0.82350  0.98610  0.87130  Biso   1.000  H
  H6       1.0000 0.70790  0.21980  0.80000  Biso   1.000  H
  H7       1.0000 0.75140  0.29150  0.89350  Biso   1.000  H
  H8       1.0000 0.87920  0.20410  0.97170  Biso   1.000  H
  H9       1.0000 0.32350  0.51390  0.37130  Biso   1.000  H
  H10      1.0000 0.20790  0.28020  0.30000  Biso   1.000  H
  H11      1.0000 0.25140  0.20850  0.39350  Biso   1.000  H
  H12      1.0000 0.37920  0.29590  0.47170  Biso   1.000  H
  H13      1.0000 0.17650  0.01390  0.12870  Biso   1.000  H
  H14      1.0000 0.29210  0.78020  0.20000  Biso   1.000  H
  H15      1.0000 0.24860  0.70850  0.10650  Biso   1.000  H
  H16      1.0000 0.12080  0.79590  0.02830  Biso   1.000  H
  W1       1.0000 0.24022  0.28497  0.67749  Biso   1.000  W
  W2       1.0000 0.25978  0.78497  0.82251  Biso   1.000  W
  W3       1.0000 0.75978  0.71503  0.32251  Biso   1.000  W
  W4       1.0000 0.74022  0.21503  0.17749  Biso   1.000  W
  C1       1.0000 0.45000  0.37490  0.71340  Biso   1.000  C
  C2       1.0000 0.32600  0.37800  0.60820  Biso   1.000  C
  C3       1.0000 0.27300  0.20210  0.59830  Biso   1.000  C
  C4       1.0000 0.45600  0.18760  0.69720  Biso   1.000  C
  C5       1.0000 0.24800  0.26760  0.77310  Biso   1.000  C
  C6       1.0000 0.07400  0.39460  0.71180  Biso   1.000  C
  C7       1.0000 0.99500  0.29830  0.62560  Biso   1.000  C
  C8       1.0000 0.06000  0.17130  0.69900  Biso   1.000  C
  C9       1.0000 0.68100  0.55080  0.62570  Biso   1.000  C
  C10      1.0000 0.73800  0.68570  0.66770  Biso   1.000  C
  C11      1.0000 0.71700  0.72900  0.61240  Biso   1.000  C
  C12      1.0000 0.65800  0.67600  0.56530  Biso   1.000  C
  C13      1.0000 0.05000  0.87490  0.78660  Biso   1.000  C
  C14      1.0000 0.17400  0.87800  0.89180  Biso   1.000  C
  C15      1.0000 0.22700  0.70210  0.90170  Biso   1.000  C
  C16      1.0000 0.04400  0.68760  0.80280  Biso   1.000  C
  C17      1.0000 0.25200  0.76760  0.72690  Biso   1.000  C
  C18      1.0000 0.42600  0.89460  0.78820  Biso   1.000  C
  C19      1.0000 0.50500  0.79830  0.87440  Biso   1.000  C
  C20      1.0000 0.44000  0.67130  0.80100  Biso   1.000  C
  C21      1.0000 0.81900  0.05080  0.87430  Biso   1.000  C
  C22      1.0000 0.76200  0.18570  0.83230  Biso   1.000  C
  C23      1.0000 0.78300  0.22900  0.88760  Biso   1.000  C
  C24      1.0000 0.84200  0.17600  0.93470  Biso   1.000  C
  C25      1.0000 0.55000  0.62510  0.28660  Biso   1.000  C
  C26      1.0000 0.67400  0.62200  0.39180  Biso   1.000  C
  C27      1.0000 0.72700  0.79790  0.40170  Biso   1.000  C
  C28      1.0000 0.54400  0.81240  0.30280  Biso   1.000  C
  C29      1.0000 0.75200  0.73240  0.22690  Biso   1.000  C
  C30      1.0000 0.92600  0.60540  0.28820  Biso   1.000  C
  C31      1.0000 0.00500  0.70170  0.37440  Biso   1.000  C
  C32      1.0000 0.94000  0.82870  0.30100  Biso   1.000  C
  C33      1.0000 0.31900  0.44920  0.37430  Biso   1.000  C
  C34      1.0000 0.26200  0.31430  0.33230  Biso   1.000  C
  C35      1.0000 0.28300  0.27100  0.38760  Biso   1.000  C
  C36      1.0000 0.34200  0.32400  0.43470  Biso   1.000  C
  C37      1.0000 0.95000  0.12510  0.21340  Biso   1.000  C
  C38      1.0000 0.82600  0.12200  0.10820  Biso   1.000  C
  C39      1.0000 0.77300  0.29790  0.09830  Biso   1.000  C
  C40      1.0000 0.95600  0.31240  0.19720  Biso   1.000  C
  C41      1.0000 0.74800  0.23240  0.27310  Biso   1.000  C
  C42      1.0000 0.57400  0.10540  0.21180  Biso   1.000  C
  C43      1.0000 0.49500  0.20170  0.12560  Biso   1.000  C
  C44      1.0000 0.56000  0.32870  0.19900  Biso   1.000  C
  C45      1.0000 0.18100  0.94920  0.12570  Biso   1.000  C
  C46      1.0000 0.23800  0.81430  0.16770  Biso   1.000  C
  C47      1.0000 0.21700  0.77100  0.11240  Biso   1.000  C
  C48      1.0000 0.15800  0.82400  0.06530  Biso   1.000  C
  N1       1.0000 0.55700  0.42900  0.73150  Biso   1.000  N
  N2       1.0000 0.38200  0.42120  0.56930  Biso   1.000  N
  N3       1.0000 0.28300  0.16250  0.55380  Biso   1.000  N
  N4       1.0000 0.56200  0.13060  0.70840  Biso   1.000  N
  N5       1.0000 0.25200  0.25440  0.82480  Biso   1.000  N
  N6       1.0000 0.97900  0.44820  0.72960  Biso   1.000  N
  N7       1.0000 0.85900  0.31200  0.59210  Biso   1.000  N
  N8       1.0000 0.96300  0.11080  0.70880  Biso   1.000  N
  N9       1.0000 0.63600  0.58460  0.57110  Biso   1.000  N
  N10      1.0000 0.72700  0.59430  0.67400  Biso   1.000  N
  N11      1.0000 0.94300  0.92900  0.76850  Biso   1.000  N
  N12      1.0000 0.11800  0.92120  0.93070  Biso   1.000  N
  N13      1.0000 0.21700  0.66250  0.94620  Biso   1.000  N
  N14      1.0000 0.93800  0.63060  0.79160  Biso   1.000  N
  N15      1.0000 0.24800  0.75440  0.67520  Biso   1.000  N
  N16      1.0000 0.52100  0.94820  0.77040  Biso   1.000  N
  N17      1.0000 0.64100  0.81200  0.90790  Biso   1.000  N
  N18      1.0000 0.53700  0.61080  0.79120  Biso   1.000  N
  N19      1.0000 0.86400  0.08460  0.92890  Biso   1.000  N
  N20      1.0000 0.77300  0.09430  0.82600  Biso   1.000  N
  N21      1.0000 0.44300  0.57100  0.26850  Biso   1.000  N
  N22      1.0000 0.61800  0.57880  0.43070  Biso   1.000  N
  N23      1.0000 0.71700  0.83750  0.44620  Biso   1.000  N
  N24      1.0000 0.43800  0.86940  0.29160  Biso   1.000  N
  N25      1.0000 0.74800  0.74560  0.17520  Biso   1.000  N
  N26      1.0000 0.02100  0.55180  0.27040  Biso   1.000  N
  N27      1.0000 0.14100  0.68800  0.40790  Biso   1.000  N
  N28      1.0000 0.03700  0.88920  0.29120  Biso   1.000  N
  N29      1.0000 0.36400  0.41540  0.42890  Biso   1.000  N
  N30      1.0000 0.27300  0.40570  0.32600  Biso   1.000  N
  N31      1.0000 0.05700  0.07100  0.23150  Biso   1.000  N
  N32      1.0000 0.88200  0.07880  0.06930  Biso   1.000  N
  N33      1.0000 0.78300  0.33750  0.05380  Biso   1.000  N
  N34      1.0000 0.06200  0.36940  0.20840  Biso   1.000  N
  N35      1.0000 0.75200  0.24560  0.32480  Biso   1.000  N
  N36      1.0000 0.47900  0.05180  0.22960  Biso   1.000  N
  N37      1.0000 0.35900  0.18800  0.09210  Biso   1.000  N
  N38      1.0000 0.46300  0.38920  0.20880  Biso   1.000  N
  N39      1.0000 0.13600  0.91540  0.07110  Biso   1.000  N
  N40      1.0000 0.22700  0.90570  0.17400  Biso   1.000  N
  O1       1.0000 0.76900  0.46340  0.84550  Biso   1.000  O
  O2       1.0000 0.72100  0.41090  0.49950  Biso   1.000  O
  O3       1.0000 0.73100  0.96340  0.65450  Biso   1.000  O
  O4       1.0000 0.77900  0.91090  0.00050  Biso   1.000  O
  O5       1.0000 0.23100  0.53660  0.15450  Biso   1.000  O
  O6       1.0000 0.27900  0.58910  0.50050  Biso   1.000  O
  O7       1.0000 0.26900  0.03660  0.34550  Biso   1.000  O
  O8       1.0000 0.22100  0.08910  0.99950  Biso   1.000  O
