data_image0
_cell_length_a       19.936
_cell_length_b       10.251
_cell_length_c       17.91
_cell_angle_alpha    90
_cell_angle_beta     94.734
_cell_angle_gamma    90

_symmetry_space_group_name_H-M    "P 1"
_symmetry_int_tables_number       1

loop_
  _symmetry_equiv_pos_as_xyz
  'x, y, z'

loop_
  _atom_site_label
  _atom_site_occupancy
  _atom_site_fract_x
  _atom_site_fract_y
  _atom_site_fract_z
  _atom_site_thermal_displace_type
  _atom_site_B_iso_or_equiv
  _atom_site_type_symbol
  Co1      1.0000 0.85554  0.25313  0.93508  Biso   1.000  Co
  Co2      1.0000 0.75209  0.45256  0.83525  Biso   1.000  Co
  O1       1.0000 0.77057  0.25610  0.98789  Biso   1.000  O
  O2       1.0000 0.69552  0.36530  0.91091  Biso   1.000  O
  O3       1.0000 0.70467  0.11280  0.23735  Biso   1.000  O
  O4       1.0000 0.59436  0.11660  0.25543  Biso   1.000  O
  O5       1.0000 0.48205  0.35560  0.03765  Biso   1.000  O
  O6       1.0000 0.41492  0.45580  0.14499  Biso   1.000  O
  O7       1.0000 0.31088  0.38370  0.15873  Biso   1.000  O
  O8       1.0000 0.90395  0.12060  0.00233  Biso   1.000  O
  O9       1.0000 0.83788  0.03270  0.91195  Biso   1.000  O
  O10      1.0000 0.81129  0.55050  0.91540  Biso   1.000  O
  O11      1.0000 0.89248  0.42600  0.97355  Biso   1.000  O
  O12      1.0000 0.03797  0.75180  0.12392  Biso   1.000  O
  O13      1.0000 0.17173  0.69120  0.17075  Biso   1.000  O
  O14      1.0000 0.16099  0.51780  0.24049  Biso   1.000  O
  C1       1.0000 0.71398  0.30620  0.97030  Biso   1.000  C
  C2       1.0000 0.66187  0.29160  0.02730  Biso   1.000  C
  C3       1.0000 0.59636  0.33450  0.00790  Biso   1.000  C
  H1       1.0000 0.58550  0.37590  0.96230  Biso   1.000  H
  C4       1.0000 0.54762  0.31420  0.05790  Biso   1.000  C
  C5       1.0000 0.56315  0.25390  0.12630  Biso   1.000  C
  H2       1.0000 0.52990  0.24160  0.15900  Biso   1.000  H
  C6       1.0000 0.62873  0.21160  0.14600  Biso   1.000  C
  C7       1.0000 0.67840  0.23000  0.09530  Biso   1.000  C
  H3       1.0000 0.72210  0.20090  0.10730  Biso   1.000  H
  C8       1.0000 0.64421  0.14050  0.21900  Biso   1.000  C
  C9       1.0000 0.43423  0.25790  0.03590  Biso   1.000  C
  C10      1.0000 0.44270  0.14710  0.99280  Biso   1.000  C
  H4       1.0000 0.48230  0.13600  0.96950  Biso   1.000  H
  C11      1.0000 0.39290  0.05380  0.98460  Biso   1.000  C
  H5       1.0000 0.39980  0.97840  0.95730  Biso   1.000  H
  C12      1.0000 0.33280  0.07130  0.01650  Biso   1.000  C
  H6       1.0000 0.29850  0.00990  0.00930  Biso   1.000  H
  C13      1.0000 0.32424  0.18110  0.05940  Biso   1.000  C
  H7       1.0000 0.28350  0.19370  0.08020  Biso   1.000  H
  C14      1.0000 0.37536  0.27400  0.07220  Biso   1.000  C
  C15      1.0000 0.36532  0.37970  0.12820  Biso   1.000  C
  C16      1.0000 0.87883  0.02030  0.96770  Biso   1.000  C
  C17      1.0000 0.90295  0.88990  0.99600  Biso   1.000  C
  C18      1.0000 0.95606  0.88220  0.05070  Biso   1.000  C
  H8       1.0000 0.97560  0.95750  0.07170  Biso   1.000  H
  C19      1.0000 0.97956  0.76020  0.07380  Biso   1.000  C
  C20      1.0000 0.95113  0.64620  0.04490  Biso   1.000  C
  H9       1.0000 0.96780  0.56540  0.06120  Biso   1.000  H
  C21      1.0000 0.89708  0.65470  0.99090  Biso   1.000  C
  C22      1.0000 0.87384  0.77620  0.96620  Biso   1.000  C
  H10      1.0000 0.83830  0.78150  0.92930  Biso   1.000  H
  C23      1.0000 0.86415  0.53450  0.95710  Biso   1.000  C
  C24      1.0000 0.02929  0.75040  0.20060  Biso   1.000  C
  C25      1.0000 0.97593  0.81210  0.23050  Biso   1.000  C
  H11      1.0000 0.94430  0.85740  0.19940  Biso   1.000  H
  C26      1.0000 0.96995  0.80590  0.30710  Biso   1.000  C
  H12      1.0000 0.93380  0.84660  0.32700  Biso   1.000  H
  C27      1.0000 0.01670  0.74030  0.35430  Biso   1.000  C
  H13      1.0000 0.01220  0.73700  0.40550  Biso   1.000  H
  C28      1.0000 0.07138  0.67840  0.32370  Biso   1.000  C
  H14      1.0000 0.10310  0.63360  0.35490  Biso   1.000  H
  C29      1.0000 0.07813  0.68420  0.24690  Biso   1.000  C
  C30      1.0000 0.13912  0.62450  0.21780  Biso   1.000  C
  H15      1.0000 0.41600  0.50600  0.18400  Biso   1.000  H
  Co3      1.0000 0.14446  0.75313  0.56492  Biso   1.000  Co
  Co4      1.0000 0.24791  0.95256  0.66475  Biso   1.000  Co
  O15      1.0000 0.22943  0.75610  0.51211  Biso   1.000  O
  O16      1.0000 0.30448  0.86530  0.58909  Biso   1.000  O
  O17      1.0000 0.29533  0.61280  0.26265  Biso   1.000  O
  O18      1.0000 0.40564  0.61660  0.24457  Biso   1.000  O
  O19      1.0000 0.51795  0.85560  0.46235  Biso   1.000  O
  O20      1.0000 0.58508  0.95580  0.35501  Biso   1.000  O
  O21      1.0000 0.68912  0.88370  0.34127  Biso   1.000  O
  O22      1.0000 0.09605  0.62060  0.49767  Biso   1.000  O
  O23      1.0000 0.16212  0.53270  0.58805  Biso   1.000  O
  O24      1.0000 0.18871  0.05050  0.58460  Biso   1.000  O
  O25      1.0000 0.10752  0.92600  0.52645  Biso   1.000  O
  O26      1.0000 0.96203  0.25180  0.37608  Biso   1.000  O
  O27      1.0000 0.82827  0.19120  0.32925  Biso   1.000  O
  O28      1.0000 0.83901  0.01780  0.25951  Biso   1.000  O
  C31      1.0000 0.28602  0.80620  0.52970  Biso   1.000  C
  C32      1.0000 0.33813  0.79160  0.47270  Biso   1.000  C
  C33      1.0000 0.40364  0.83450  0.49210  Biso   1.000  C
  H16      1.0000 0.41450  0.87590  0.53770  Biso   1.000  H
  C34      1.0000 0.45238  0.81420  0.44210  Biso   1.000  C
  C35      1.0000 0.43685  0.75390  0.37370  Biso   1.000  C
  H17      1.0000 0.47010  0.74160  0.34100  Biso   1.000  H
  C36      1.0000 0.37127  0.71160  0.35400  Biso   1.000  C
  C37      1.0000 0.32160  0.73000  0.40470  Biso   1.000  C
  H18      1.0000 0.27790  0.70090  0.39270  Biso   1.000  H
  C38      1.0000 0.35579  0.64050  0.28100  Biso   1.000  C
  C39      1.0000 0.56577  0.75790  0.46410  Biso   1.000  C
  C40      1.0000 0.55730  0.64710  0.50720  Biso   1.000  C
  H19      1.0000 0.51770  0.63600  0.53050  Biso   1.000  H
  C41      1.0000 0.60710  0.55380  0.51540  Biso   1.000  C
  H20      1.0000 0.60020  0.47840  0.54270  Biso   1.000  H
  C42      1.0000 0.66720  0.57130  0.48350  Biso   1.000  C
  H21      1.0000 0.70150  0.50990  0.49070  Biso   1.000  H
  C43      1.0000 0.67576  0.68110  0.44060  Biso   1.000  C
  H22      1.0000 0.71650  0.69370  0.41980  Biso   1.000  H
  C44      1.0000 0.62464  0.77400  0.42780  Biso   1.000  C
  C45      1.0000 0.63468  0.87970  0.37180  Biso   1.000  C
  C46      1.0000 0.12117  0.52030  0.53230  Biso   1.000  C
  C47      1.0000 0.09705  0.38990  0.50400  Biso   1.000  C
  C48      1.0000 0.04394  0.38220  0.44930  Biso   1.000  C
  H23      1.0000 0.02440  0.45750  0.42830  Biso   1.000  H
  C49      1.0000 0.02044  0.26020  0.42620  Biso   1.000  C
  C50      1.0000 0.04887  0.14620  0.45510  Biso   1.000  C
  H24      1.0000 0.03220  0.06540  0.43880  Biso   1.000  H
  C51      1.0000 0.10292  0.15470  0.50910  Biso   1.000  C
  C52      1.0000 0.12616  0.27620  0.53380  Biso   1.000  C
  H25      1.0000 0.16170  0.28150  0.57070  Biso   1.000  H
  C53      1.0000 0.13585  0.03450  0.54290  Biso   1.000  C
  C54      1.0000 0.97071  0.25040  0.29940  Biso   1.000  C
  C55      1.0000 0.02407  0.31210  0.26950  Biso   1.000  C
  H26      1.0000 0.05570  0.35740  0.30060  Biso   1.000  H
  C56      1.0000 0.03005  0.30590  0.19290  Biso   1.000  C
  H27      1.0000 0.06620  0.34660  0.17300  Biso   1.000  H
  C57      1.0000 0.98330  0.24030  0.14570  Biso   1.000  C
  H28      1.0000 0.98780  0.23700  0.09450  Biso   1.000  H
  C58      1.0000 0.92862  0.17840  0.17630  Biso   1.000  C
  H29      1.0000 0.89690  0.13360  0.14510  Biso   1.000  H
  C59      1.0000 0.92187  0.18420  0.25310  Biso   1.000  C
  C60      1.0000 0.86088  0.12450  0.28220  Biso   1.000  C
  H30      1.0000 0.58400  0.00600  0.31600  Biso   1.000  H
  Co5      1.0000 0.14446  0.74687  0.06492  Biso   1.000  Co
  Co6      1.0000 0.24791  0.54744  0.16475  Biso   1.000  Co
  O29      1.0000 0.22943  0.74390  0.01211  Biso   1.000  O
  O30      1.0000 0.30448  0.63470  0.08909  Biso   1.000  O
  O31      1.0000 0.29533  0.88720  0.76265  Biso   1.000  O
  O32      1.0000 0.40564  0.88340  0.74457  Biso   1.000  O
  O33      1.0000 0.51795  0.64440  0.96235  Biso   1.000  O
  O34      1.0000 0.58508  0.54420  0.85501  Biso   1.000  O
  O35      1.0000 0.68912  0.61630  0.84127  Biso   1.000  O
  O36      1.0000 0.09605  0.87940  0.99767  Biso   1.000  O
  O37      1.0000 0.16212  0.96730  0.08805  Biso   1.000  O
  O38      1.0000 0.18871  0.44950  0.08460  Biso   1.000  O
  O39      1.0000 0.10752  0.57400  0.02645  Biso   1.000  O
  O40      1.0000 0.96203  0.24820  0.87608  Biso   1.000  O
  O41      1.0000 0.82827  0.30880  0.82925  Biso   1.000  O
  O42      1.0000 0.83901  0.48220  0.75951  Biso   1.000  O
  C61      1.0000 0.28602  0.69380  0.02970  Biso   1.000  C
  C62      1.0000 0.33813  0.70840  0.97270  Biso   1.000  C
  C63      1.0000 0.40364  0.66550  0.99210  Biso   1.000  C
  H31      1.0000 0.41450  0.62410  0.03770  Biso   1.000  H
  C64      1.0000 0.45238  0.68580  0.94210  Biso   1.000  C
  C65      1.0000 0.43685  0.74610  0.87370  Biso   1.000  C
  H32      1.0000 0.47010  0.75840  0.84100  Biso   1.000  H
  C66      1.0000 0.37127  0.78840  0.85400  Biso   1.000  C
  C67      1.0000 0.32160  0.77000  0.90470  Biso   1.000  C
  H33      1.0000 0.27790  0.79910  0.89270  Biso   1.000  H
  C68      1.0000 0.35579  0.85950  0.78100  Biso   1.000  C
  C69      1.0000 0.56577  0.74210  0.96410  Biso   1.000  C
  C70      1.0000 0.55730  0.85290  0.00720  Biso   1.000  C
  H34      1.0000 0.51770  0.86400  0.03050  Biso   1.000  H
  C71      1.0000 0.60710  0.94620  0.01540  Biso   1.000  C
  H35      1.0000 0.60020  0.02160  0.04270  Biso   1.000  H
  C72      1.0000 0.66720  0.92870  0.98350  Biso   1.000  C
  H36      1.0000 0.70150  0.99010  0.99070  Biso   1.000  H
  C73      1.0000 0.67576  0.81890  0.94060  Biso   1.000  C
  H37      1.0000 0.71650  0.80630  0.91980  Biso   1.000  H
  C74      1.0000 0.62464  0.72600  0.92780  Biso   1.000  C
  C75      1.0000 0.63468  0.62030  0.87180  Biso   1.000  C
  C76      1.0000 0.12117  0.97970  0.03230  Biso   1.000  C
  C77      1.0000 0.09705  0.11010  0.00400  Biso   1.000  C
  C78      1.0000 0.04394  0.11780  0.94930  Biso   1.000  C
  H38      1.0000 0.02440  0.04250  0.92830  Biso   1.000  H
  C79      1.0000 0.02044  0.23980  0.92620  Biso   1.000  C
  C80      1.0000 0.04887  0.35380  0.95510  Biso   1.000  C
  H39      1.0000 0.03220  0.43460  0.93880  Biso   1.000  H
  C81      1.0000 0.10292  0.34530  0.00910  Biso   1.000  C
  C82      1.0000 0.12616  0.22380  0.03380  Biso   1.000  C
  H40      1.0000 0.16170  0.21850  0.07070  Biso   1.000  H
  C83      1.0000 0.13585  0.46550  0.04290  Biso   1.000  C
  C84      1.0000 0.97071  0.24960  0.79940  Biso   1.000  C
  C85      1.0000 0.02407  0.18790  0.76950  Biso   1.000  C
  H41      1.0000 0.05570  0.14260  0.80060  Biso   1.000  H
  C86      1.0000 0.03005  0.19410  0.69290  Biso   1.000  C
  H42      1.0000 0.06620  0.15340  0.67300  Biso   1.000  H
  C87      1.0000 0.98330  0.25970  0.64570  Biso   1.000  C
  H43      1.0000 0.98780  0.26300  0.59450  Biso   1.000  H
  C88      1.0000 0.92862  0.32160  0.67630  Biso   1.000  C
  H44      1.0000 0.89690  0.36640  0.64510  Biso   1.000  H
  C89      1.0000 0.92187  0.31580  0.75310  Biso   1.000  C
  C90      1.0000 0.86088  0.37550  0.78220  Biso   1.000  C
  H45      1.0000 0.58400  0.49400  0.81600  Biso   1.000  H
  Co7      1.0000 0.85554  0.24687  0.43508  Biso   1.000  Co
  Co8      1.0000 0.75209  0.04744  0.33525  Biso   1.000  Co
  O43      1.0000 0.77057  0.24390  0.48789  Biso   1.000  O
  O44      1.0000 0.69552  0.13470  0.41091  Biso   1.000  O
  O45      1.0000 0.70467  0.38720  0.73735  Biso   1.000  O
  O46      1.0000 0.59436  0.38340  0.75543  Biso   1.000  O
  O47      1.0000 0.48205  0.14440  0.53765  Biso   1.000  O
  O48      1.0000 0.41492  0.04420  0.64499  Biso   1.000  O
  O49      1.0000 0.31088  0.11630  0.65873  Biso   1.000  O
  O50      1.0000 0.90395  0.37940  0.50233  Biso   1.000  O
  O51      1.0000 0.83788  0.46730  0.41195  Biso   1.000  O
  O52      1.0000 0.81129  0.94950  0.41540  Biso   1.000  O
  O53      1.0000 0.89248  0.07400  0.47355  Biso   1.000  O
  O54      1.0000 0.03797  0.74820  0.62392  Biso   1.000  O
  O55      1.0000 0.17173  0.80880  0.67075  Biso   1.000  O
  O56      1.0000 0.16099  0.98220  0.74049  Biso   1.000  O
  C91      1.0000 0.71398  0.19380  0.47030  Biso   1.000  C
  C92      1.0000 0.66187  0.20840  0.52730  Biso   1.000  C
  C93      1.0000 0.59636  0.16550  0.50790  Biso   1.000  C
  H46      1.0000 0.58550  0.12410  0.46230  Biso   1.000  H
  C94      1.0000 0.54762  0.18580  0.55790  Biso   1.000  C
  C95      1.0000 0.56315  0.24610  0.62630  Biso   1.000  C
  H47      1.0000 0.52990  0.25840  0.65900  Biso   1.000  H
  C96      1.0000 0.62873  0.28840  0.64600  Biso   1.000  C
  C97      1.0000 0.67840  0.27000  0.59530  Biso   1.000  C
  H48      1.0000 0.72210  0.29910  0.60730  Biso   1.000  H
  C98      1.0000 0.64421  0.35950  0.71900  Biso   1.000  C
  C99      1.0000 0.43423  0.24210  0.53590  Biso   1.000  C
  C100     1.0000 0.44270  0.35290  0.49280  Biso   1.000  C
  H49      1.0000 0.48230  0.36400  0.46950  Biso   1.000  H
  C101     1.0000 0.39290  0.44620  0.48460  Biso   1.000  C
  H50      1.0000 0.39980  0.52160  0.45730  Biso   1.000  H
  C102     1.0000 0.33280  0.42870  0.51650  Biso   1.000  C
  H51      1.0000 0.29850  0.49010  0.50930  Biso   1.000  H
  C103     1.0000 0.32424  0.31890  0.55940  Biso   1.000  C
  H52      1.0000 0.28350  0.30630  0.58020  Biso   1.000  H
  C104     1.0000 0.37536  0.22600  0.57220  Biso   1.000  C
  C105     1.0000 0.36532  0.12030  0.62820  Biso   1.000  C
  C106     1.0000 0.87883  0.47970  0.46770  Biso   1.000  C
  C107     1.0000 0.90295  0.61010  0.49600  Biso   1.000  C
  C108     1.0000 0.95606  0.61780  0.55070  Biso   1.000  C
  H53      1.0000 0.97560  0.54250  0.57170  Biso   1.000  H
  C109     1.0000 0.97956  0.73980  0.57380  Biso   1.000  C
  C110     1.0000 0.95113  0.85380  0.54490  Biso   1.000  C
  H54      1.0000 0.96780  0.93460  0.56120  Biso   1.000  H
  C111     1.0000 0.89708  0.84530  0.49090  Biso   1.000  C
  C112     1.0000 0.87384  0.72380  0.46620  Biso   1.000  C
  H55      1.0000 0.83830  0.71850  0.42930  Biso   1.000  H
  C113     1.0000 0.86415  0.96550  0.45710  Biso   1.000  C
  C114     1.0000 0.02929  0.74960  0.70060  Biso   1.000  C
  C115     1.0000 0.97593  0.68790  0.73050  Biso   1.000  C
  H56      1.0000 0.94430  0.64260  0.69940  Biso   1.000  H
  C116     1.0000 0.96995  0.69410  0.80710  Biso   1.000  C
  H57      1.0000 0.93380  0.65340  0.82700  Biso   1.000  H
  C117     1.0000 0.01670  0.75970  0.85430  Biso   1.000  C
  H58      1.0000 0.01220  0.76300  0.90550  Biso   1.000  H
  C118     1.0000 0.07138  0.82160  0.82370  Biso   1.000  C
  H59      1.0000 0.10310  0.86640  0.85490  Biso   1.000  H
  C119     1.0000 0.07813  0.81580  0.74690  Biso   1.000  C
  C120     1.0000 0.13912  0.87550  0.71780  Biso   1.000  C
  H60      1.0000 0.41600  0.99400  0.68400  Biso   1.000  H
