data_image0
_cell_length_a       10.8658
_cell_length_b       16.605
_cell_length_c       10.3926
_cell_angle_alpha    90
_cell_angle_beta     103.965
_cell_angle_gamma    90

_symmetry_space_group_name_H-M    "P 1"
_symmetry_int_tables_number       1

loop_
  _symmetry_equiv_pos_as_xyz
  'x, y, z'

loop_
  _atom_site_label
  _atom_site_occupancy
  _atom_site_fract_x
  _atom_site_fract_y
  _atom_site_fract_z
  _atom_site_thermal_displace_type
  _atom_site_B_iso_or_equiv
  _atom_site_type_symbol
  Zn1      1.0000 0.05502  0.16658  0.40351  Biso   1.000  Zn
  Zn2      1.0000 0.13487  0.83531  0.31690  Biso   1.000  Zn
  P1       1.0000 0.21256  0.00579  0.45550  Biso   1.000  P
  P2       1.0000 0.13789  0.22292  0.69260  Biso   1.000  P
  P3       1.0000 0.79138  0.26003  0.90951  Biso   1.000  P
  O1       1.0000 0.22010  0.93640  0.36680  Biso   1.000  O
  O2       1.0000 0.09330  0.05410  0.40950  Biso   1.000  O
  O3       1.0000 0.22580  0.97760  0.60170  Biso   1.000  O
  H1       1.0000 0.19470  0.93260  0.60180  Biso   1.000  H
  O4       1.0000 0.04790  0.15720  0.71540  Biso   1.000  O
  O5       1.0000 0.14370  0.23140  0.54840  Biso   1.000  O
  O6       1.0000 0.10290  0.30600  0.74030  Biso   1.000  O
  O7       1.0000 0.87170  0.33150  0.88090  Biso   1.000  O
  O8       1.0000 0.79400  0.25350  0.05520  Biso   1.000  O
  O9       1.0000 0.83590  0.18080  0.85980  Biso   1.000  O
  C1       1.0000 0.34980  0.06870  0.46890  Biso   1.000  C
  H2       1.0000 0.33760  0.11710  0.51660  Biso   1.000  H
  H3       1.0000 0.35310  0.08500  0.38020  Biso   1.000  H
  C2       1.0000 0.47820  0.03310  0.53670  Biso   1.000  C
  H4       1.0000 0.47400  0.01320  0.62330  Biso   1.000  H
  H5       1.0000 0.54100  0.07580  0.55050  Biso   1.000  H
  C3       1.0000 0.29440  0.19480  0.78510  Biso   1.000  C
  H6       1.0000 0.29800  0.19950  0.87900  Biso   1.000  H
  H7       1.0000 0.30870  0.13880  0.76700  Biso   1.000  H
  C4       1.0000 0.40030  0.24480  0.75440  Biso   1.000  C
  H8       1.0000 0.38320  0.30130  0.76640  Biso   1.000  H
  H9       1.0000 0.40120  0.23690  0.66210  Biso   1.000  H
  C5       1.0000 0.63370  0.28030  0.81650  Biso   1.000  C
  H10      1.0000 0.63270  0.27820  0.72300  Biso   1.000  H
  H11      1.0000 0.61200  0.33480  0.83600  Biso   1.000  H
  C6       1.0000 0.53090  0.22400  0.84100  Biso   1.000  C
  H12      1.0000 0.55200  0.16900  0.82300  Biso   1.000  H
  H13      1.0000 0.52850  0.22710  0.93350  Biso   1.000  H
  Zn3      1.0000 0.94498  0.66658  0.09649  Biso   1.000  Zn
  Zn4      1.0000 0.86513  0.33531  0.18310  Biso   1.000  Zn
  P4       1.0000 0.78744  0.50579  0.04450  Biso   1.000  P
  P5       1.0000 0.86211  0.72292  0.80740  Biso   1.000  P
  P6       1.0000 0.20862  0.76003  0.59049  Biso   1.000  P
  O10      1.0000 0.77990  0.43640  0.13320  Biso   1.000  O
  O11      1.0000 0.90670  0.55410  0.09050  Biso   1.000  O
  O12      1.0000 0.77420  0.47760  0.89830  Biso   1.000  O
  H14      1.0000 0.80530  0.43260  0.89820  Biso   1.000  H
  O13      1.0000 0.95210  0.65720  0.78460  Biso   1.000  O
  O14      1.0000 0.85630  0.73140  0.95160  Biso   1.000  O
  O15      1.0000 0.89710  0.80600  0.75970  Biso   1.000  O
  O16      1.0000 0.12830  0.83150  0.61910  Biso   1.000  O
  O17      1.0000 0.20600  0.75350  0.44480  Biso   1.000  O
  O18      1.0000 0.16410  0.68080  0.64020  Biso   1.000  O
  C7       1.0000 0.65020  0.56870  0.03110  Biso   1.000  C
  H15      1.0000 0.66240  0.61710  0.98340  Biso   1.000  H
  H16      1.0000 0.64690  0.58500  0.11980  Biso   1.000  H
  C8       1.0000 0.52180  0.53310  0.96330  Biso   1.000  C
  H17      1.0000 0.52600  0.51320  0.87670  Biso   1.000  H
  H18      1.0000 0.45900  0.57580  0.94950  Biso   1.000  H
  C9       1.0000 0.70560  0.69480  0.71490  Biso   1.000  C
  H19      1.0000 0.70200  0.69950  0.62100  Biso   1.000  H
  H20      1.0000 0.69130  0.63880  0.73300  Biso   1.000  H
  C10      1.0000 0.59970  0.74480  0.74560  Biso   1.000  C
  H21      1.0000 0.61680  0.80130  0.73360  Biso   1.000  H
  H22      1.0000 0.59880  0.73690  0.83790  Biso   1.000  H
  C11      1.0000 0.36630  0.78030  0.68350  Biso   1.000  C
  H23      1.0000 0.36730  0.77820  0.77700  Biso   1.000  H
  H24      1.0000 0.38800  0.83480  0.66400  Biso   1.000  H
  C12      1.0000 0.46910  0.72400  0.65900  Biso   1.000  C
  H25      1.0000 0.44800  0.66900  0.67700  Biso   1.000  H
  H26      1.0000 0.47150  0.72710  0.56650  Biso   1.000  H
  Zn5      1.0000 0.94498  0.83342  0.59649  Biso   1.000  Zn
  Zn6      1.0000 0.86513  0.16469  0.68310  Biso   1.000  Zn
  P7       1.0000 0.78744  0.99421  0.54450  Biso   1.000  P
  P8       1.0000 0.86211  0.77708  0.30740  Biso   1.000  P
  P9       1.0000 0.20862  0.73997  0.09049  Biso   1.000  P
  O19      1.0000 0.77990  0.06360  0.63320  Biso   1.000  O
  O20      1.0000 0.90670  0.94590  0.59050  Biso   1.000  O
  O21      1.0000 0.77420  0.02240  0.39830  Biso   1.000  O
  H27      1.0000 0.80530  0.06740  0.39820  Biso   1.000  H
  O22      1.0000 0.95210  0.84280  0.28460  Biso   1.000  O
  O23      1.0000 0.85630  0.76860  0.45160  Biso   1.000  O
  O24      1.0000 0.89710  0.69400  0.25970  Biso   1.000  O
  O25      1.0000 0.12830  0.66850  0.11910  Biso   1.000  O
  O26      1.0000 0.20600  0.74650  0.94480  Biso   1.000  O
  O27      1.0000 0.16410  0.81920  0.14020  Biso   1.000  O
  C13      1.0000 0.65020  0.93130  0.53110  Biso   1.000  C
  H28      1.0000 0.66240  0.88290  0.48340  Biso   1.000  H
  H29      1.0000 0.64690  0.91500  0.61980  Biso   1.000  H
  C14      1.0000 0.52180  0.96690  0.46330  Biso   1.000  C
  H30      1.0000 0.52600  0.98680  0.37670  Biso   1.000  H
  H31      1.0000 0.45900  0.92420  0.44950  Biso   1.000  H
  C15      1.0000 0.70560  0.80520  0.21490  Biso   1.000  C
  H32      1.0000 0.70200  0.80050  0.12100  Biso   1.000  H
  H33      1.0000 0.69130  0.86120  0.23300  Biso   1.000  H
  C16      1.0000 0.59970  0.75520  0.24560  Biso   1.000  C
  H34      1.0000 0.61680  0.69870  0.23360  Biso   1.000  H
  H35      1.0000 0.59880  0.76310  0.33790  Biso   1.000  H
  C17      1.0000 0.36630  0.71970  0.18350  Biso   1.000  C
  H36      1.0000 0.36730  0.72180  0.27700  Biso   1.000  H
  H37      1.0000 0.38800  0.66520  0.16400  Biso   1.000  H
  C18      1.0000 0.46910  0.77600  0.15900  Biso   1.000  C
  H38      1.0000 0.44800  0.83100  0.17700  Biso   1.000  H
  H39      1.0000 0.47150  0.77290  0.06650  Biso   1.000  H
  Zn7      1.0000 0.05502  0.33342  0.90351  Biso   1.000  Zn
  Zn8      1.0000 0.13487  0.66469  0.81690  Biso   1.000  Zn
  P10      1.0000 0.21256  0.49421  0.95550  Biso   1.000  P
  P11      1.0000 0.13789  0.27708  0.19260  Biso   1.000  P
  P12      1.0000 0.79138  0.23997  0.40951  Biso   1.000  P
  O28      1.0000 0.22010  0.56360  0.86680  Biso   1.000  O
  O29      1.0000 0.09330  0.44590  0.90950  Biso   1.000  O
  O30      1.0000 0.22580  0.52240  0.10170  Biso   1.000  O
  H40      1.0000 0.19470  0.56740  0.10180  Biso   1.000  H
  O31      1.0000 0.04790  0.34280  0.21540  Biso   1.000  O
  O32      1.0000 0.14370  0.26860  0.04840  Biso   1.000  O
  O33      1.0000 0.10290  0.19400  0.24030  Biso   1.000  O
  O34      1.0000 0.87170  0.16850  0.38090  Biso   1.000  O
  O35      1.0000 0.79400  0.24650  0.55520  Biso   1.000  O
  O36      1.0000 0.83590  0.31920  0.35980  Biso   1.000  O
  C19      1.0000 0.34980  0.43130  0.96890  Biso   1.000  C
  H41      1.0000 0.33760  0.38290  0.01660  Biso   1.000  H
  H42      1.0000 0.35310  0.41500  0.88020  Biso   1.000  H
  C20      1.0000 0.47820  0.46690  0.03670  Biso   1.000  C
  H43      1.0000 0.47400  0.48680  0.12330  Biso   1.000  H
  H44      1.0000 0.54100  0.42420  0.05050  Biso   1.000  H
  C21      1.0000 0.29440  0.30520  0.28510  Biso   1.000  C
  H45      1.0000 0.29800  0.30050  0.37900  Biso   1.000  H
  H46      1.0000 0.30870  0.36120  0.26700  Biso   1.000  H
  C22      1.0000 0.40030  0.25520  0.25440  Biso   1.000  C
  H47      1.0000 0.38320  0.19870  0.26640  Biso   1.000  H
  H48      1.0000 0.40120  0.26310  0.16210  Biso   1.000  H
  C23      1.0000 0.63370  0.21970  0.31650  Biso   1.000  C
  H49      1.0000 0.63270  0.22180  0.22300  Biso   1.000  H
  H50      1.0000 0.61200  0.16520  0.33600  Biso   1.000  H
  C24      1.0000 0.53090  0.27600  0.34100  Biso   1.000  C
  H51      1.0000 0.55200  0.33100  0.32300  Biso   1.000  H
  H52      1.0000 0.52850  0.27290  0.43350  Biso   1.000  H
