data_image0
_cell_length_a       4.7094
_cell_length_b       11.2824
_cell_length_c       20.2467
_cell_angle_alpha    90
_cell_angle_beta     90
_cell_angle_gamma    98.827

_symmetry_space_group_name_H-M    P 1
_symmetry_int_tables_number       1

loop_
  _symmetry_equiv_pos_as_xyz
  'x, y, z'

loop_
  _atom_site_label
  _atom_site_occupancy
  _atom_site_fract_x
  _atom_site_fract_y
  _atom_site_fract_z
  _atom_site_thermal_displace_type
  _atom_site_B_iso_or_equiv
  _atom_site_type_symbol
  Cu1      1.0000 0.32420  0.44490  0.66250  Biso   1.000  Cu
  Cu2      1.0000 0.67580  0.05510  0.16250  Biso   1.000  Cu
  Cu3      1.0000 0.67580  0.55510  0.33750  Biso   1.000  Cu
  Cu4      1.0000 0.32420  0.94490  0.83750  Biso   1.000  Cu
  H1       1.0000 0.28000  0.41700  0.90950  Biso   1.000  H
  H2       1.0000 0.47600  0.50500  0.81130  Biso   1.000  H
  H3       1.0000 0.53900  0.32000  0.55080  Biso   1.000  H
  H4       1.0000 0.32300  0.64500  0.55990  Biso   1.000  H
  H5       1.0000 0.72000  0.08300  0.40950  Biso   1.000  H
  H6       1.0000 0.52400  0.99500  0.31130  Biso   1.000  H
  H7       1.0000 0.46100  0.18000  0.05080  Biso   1.000  H
  H8       1.0000 0.67700  0.85500  0.05990  Biso   1.000  H
  H9       1.0000 0.72000  0.58300  0.09050  Biso   1.000  H
  H10      1.0000 0.52400  0.49500  0.18870  Biso   1.000  H
  H11      1.0000 0.46100  0.68000  0.44920  Biso   1.000  H
  H12      1.0000 0.67700  0.35500  0.44010  Biso   1.000  H
  H13      1.0000 0.28000  0.91700  0.59050  Biso   1.000  H
  H14      1.0000 0.47600  0.00500  0.68870  Biso   1.000  H
  H15      1.0000 0.53900  0.82000  0.94920  Biso   1.000  H
  H16      1.0000 0.32300  0.14500  0.94010  Biso   1.000  H
  C1       1.0000 0.08800  0.27370  0.75300  Biso   1.000  C
  C2       1.0000 0.98300  0.22050  0.81090  Biso   1.000  C
  C3       1.0000 0.24300  0.37300  0.86790  Biso   1.000  C
  C4       1.0000 0.35400  0.42900  0.81110  Biso   1.000  C
  C5       1.0000 0.02000  0.22170  0.68410  Biso   1.000  C
  C6       1.0000 0.78400  0.10520  0.81850  Biso   1.000  C
  C7       1.0000 0.51600  0.39640  0.53100  Biso   1.000  C
  C8       1.0000 0.39200  0.58200  0.53560  Biso   1.000  C
  C9       1.0000 0.91200  0.22630  0.25300  Biso   1.000  C
  C10      1.0000 0.01700  0.27950  0.31090  Biso   1.000  C
  C11      1.0000 0.75700  0.12700  0.36790  Biso   1.000  C
  C12      1.0000 0.64600  0.07100  0.31110  Biso   1.000  C
  C13      1.0000 0.98000  0.27830  0.18410  Biso   1.000  C
  C14      1.0000 0.21600  0.39480  0.31850  Biso   1.000  C
  C15      1.0000 0.48400  0.10360  0.03100  Biso   1.000  C
  C16      1.0000 0.60800  0.91800  0.03560  Biso   1.000  C
  C17      1.0000 0.91200  0.72630  0.24700  Biso   1.000  C
  C18      1.0000 0.01700  0.77950  0.18910  Biso   1.000  C
  C19      1.0000 0.75700  0.62700  0.13210  Biso   1.000  C
  C20      1.0000 0.64600  0.57100  0.18890  Biso   1.000  C
  C21      1.0000 0.98000  0.77830  0.31590  Biso   1.000  C
  C22      1.0000 0.21600  0.89480  0.18150  Biso   1.000  C
  C23      1.0000 0.48400  0.60360  0.46900  Biso   1.000  C
  C24      1.0000 0.60800  0.41800  0.46440  Biso   1.000  C
  C25      1.0000 0.08800  0.77370  0.74700  Biso   1.000  C
  C26      1.0000 0.98300  0.72050  0.68910  Biso   1.000  C
  C27      1.0000 0.24300  0.87300  0.63210  Biso   1.000  C
  C28      1.0000 0.35400  0.92900  0.68890  Biso   1.000  C
  C29      1.0000 0.02000  0.72170  0.81590  Biso   1.000  C
  C30      1.0000 0.78400  0.60520  0.68150  Biso   1.000  C
  C31      1.0000 0.51600  0.89640  0.96900  Biso   1.000  C
  C32      1.0000 0.39200  0.08200  0.96440  Biso   1.000  C
  N1       1.0000 0.26800  0.37740  0.75310  Biso   1.000  N
  N2       1.0000 0.08000  0.26800  0.86800  Biso   1.000  N
  N3       1.0000 0.42600  0.48070  0.56590  Biso   1.000  N
  N4       1.0000 0.73200  0.12260  0.25310  Biso   1.000  N
  N5       1.0000 0.92000  0.23200  0.36800  Biso   1.000  N
  N6       1.0000 0.57400  0.01930  0.06590  Biso   1.000  N
  N7       1.0000 0.73200  0.62260  0.24690  Biso   1.000  N
  N8       1.0000 0.92000  0.73200  0.13200  Biso   1.000  N
  N9       1.0000 0.57400  0.51930  0.43410  Biso   1.000  N
  N10      1.0000 0.26800  0.87740  0.74690  Biso   1.000  N
  N11      1.0000 0.08000  0.76800  0.63200  Biso   1.000  N
  N12      1.0000 0.42600  0.98070  0.93410  Biso   1.000  N
  O1       1.0000 0.14900  0.28160  0.63920  Biso   1.000  O
  O2       1.0000 0.87300  0.12360  0.67860  Biso   1.000  O
  O3       1.0000 0.52500  0.10800  0.80750  Biso   1.000  O
  O4       1.0000 0.88400  0.01360  0.83140  Biso   1.000  O
  O5       1.0000 0.85100  0.21840  0.13920  Biso   1.000  O
  O6       1.0000 0.12700  0.37640  0.17860  Biso   1.000  O
  O7       1.0000 0.47500  0.39200  0.30750  Biso   1.000  O
  O8       1.0000 0.11600  0.48640  0.33140  Biso   1.000  O
  O9       1.0000 0.85100  0.71840  0.36080  Biso   1.000  O
  O10      1.0000 0.12700  0.87640  0.32140  Biso   1.000  O
  O11      1.0000 0.47500  0.89200  0.19250  Biso   1.000  O
  O12      1.0000 0.11600  0.98640  0.16860  Biso   1.000  O
  O13      1.0000 0.14900  0.78160  0.86080  Biso   1.000  O
  O14      1.0000 0.87300  0.62360  0.82140  Biso   1.000  O
  O15      1.0000 0.52500  0.60800  0.69250  Biso   1.000  O
  O16      1.0000 0.88400  0.51360  0.66860  Biso   1.000  O
