data_image0
_cell_length_a       22.093
_cell_length_b       13.904
_cell_length_c       14.23
_cell_angle_alpha    90
_cell_angle_beta     98.431
_cell_angle_gamma    90

_symmetry_space_group_name_H-M    "P 1"
_symmetry_int_tables_number       1

loop_
  _symmetry_equiv_pos_as_xyz
  'x, y, z'

loop_
  _atom_site_label
  _atom_site_occupancy
  _atom_site_fract_x
  _atom_site_fract_y
  _atom_site_fract_z
  _atom_site_thermal_displace_type
  _atom_site_B_iso_or_equiv
  _atom_site_type_symbol
  Ga1      1.0000 0.41649  0.59588  0.49217  Biso   1.000  Ga
  Ga2      1.0000 0.33742  0.70145  0.08604  Biso   1.000  Ga
  Ga3      1.0000 0.25552  0.61060  0.43993  Biso   1.000  Ga
  Ga4      1.0000 0.33987  0.39777  0.30601  Biso   1.000  Ga
  P1       1.0000 0.44220  0.38044  0.48348  Biso   1.000  P
  P2       1.0000 0.26344  0.89052  0.05925  Biso   1.000  P
  P3       1.0000 0.34371  0.61853  0.29360  Biso   1.000  P
  P4       1.0000 0.32839  0.71385  0.60949  Biso   1.000  P
  F1       1.0000 0.33218  0.53482  0.46955  Biso   1.000  F
  O1       1.0000 0.27130  0.66090  0.56170  Biso   1.000  O
  O2       1.0000 0.28570  0.99420  0.06900  Biso   1.000  O
  O3       1.0000 0.38581  0.68510  0.56850  Biso   1.000  O
  O4       1.0000 0.22416  0.86160  0.13440  Biso   1.000  O
  O5       1.0000 0.40329  0.62110  0.36310  Biso   1.000  O
  O6       1.0000 0.44238  0.47600  0.53640  Biso   1.000  O
  O7       1.0000 0.32838  0.51680  0.25440  Biso   1.000  O
  O8       1.0000 0.35423  0.68410  0.21140  Biso   1.000  O
  O9       1.0000 0.22850  0.87190  0.95950  Biso   1.000  O
  O10      1.0000 0.32175  0.82980  0.07250  Biso   1.000  O
  O11      1.0000 0.40443  0.30550  0.52860  Biso   1.000  O
  O12      1.0000 0.28954  0.65830  0.33780  Biso   1.000  O
  O13      1.0000 0.41419  0.39160  0.37880  Biso   1.000  O
  O14      1.0000 0.32024  0.82280  0.59500  Biso   1.000  O
  O15      1.0000 0.50646  0.34180  0.48760  Biso   1.000  O
  O16      1.0000 0.33800  0.69440  0.71610  Biso   1.000  O
  Ga5      1.0000 0.91649  0.09588  0.49217  Biso   1.000  Ga
  Ga6      1.0000 0.83742  0.20145  0.08604  Biso   1.000  Ga
  Ga7      1.0000 0.75552  0.11060  0.43993  Biso   1.000  Ga
  Ga8      1.0000 0.83987  0.89777  0.30601  Biso   1.000  Ga
  P5       1.0000 0.94220  0.88044  0.48348  Biso   1.000  P
  P6       1.0000 0.76344  0.39052  0.05925  Biso   1.000  P
  P7       1.0000 0.84371  0.11853  0.29360  Biso   1.000  P
  P8       1.0000 0.82839  0.21385  0.60949  Biso   1.000  P
  F2       1.0000 0.83218  0.03482  0.46955  Biso   1.000  F
  O17      1.0000 0.77130  0.16090  0.56170  Biso   1.000  O
  O18      1.0000 0.78570  0.49420  0.06900  Biso   1.000  O
  O19      1.0000 0.88581  0.18510  0.56850  Biso   1.000  O
  O20      1.0000 0.72416  0.36160  0.13440  Biso   1.000  O
  O21      1.0000 0.90329  0.12110  0.36310  Biso   1.000  O
  O22      1.0000 0.94238  0.97600  0.53640  Biso   1.000  O
  O23      1.0000 0.82838  0.01680  0.25440  Biso   1.000  O
  O24      1.0000 0.85423  0.18410  0.21140  Biso   1.000  O
  O25      1.0000 0.72850  0.37190  0.95950  Biso   1.000  O
  O26      1.0000 0.82175  0.32980  0.07250  Biso   1.000  O
  O27      1.0000 0.90443  0.80550  0.52860  Biso   1.000  O
  O28      1.0000 0.78954  0.15830  0.33780  Biso   1.000  O
  O29      1.0000 0.91419  0.89160  0.37880  Biso   1.000  O
  O30      1.0000 0.82024  0.32280  0.59500  Biso   1.000  O
  O31      1.0000 0.00646  0.84180  0.48760  Biso   1.000  O
  O32      1.0000 0.83800  0.19440  0.71610  Biso   1.000  O
  Ga9      1.0000 0.58351  0.59588  0.00783  Biso   1.000  Ga
  Ga10     1.0000 0.66258  0.70145  0.41396  Biso   1.000  Ga
  Ga11     1.0000 0.74448  0.61060  0.06007  Biso   1.000  Ga
  Ga12     1.0000 0.66013  0.39777  0.19399  Biso   1.000  Ga
  P9       1.0000 0.55780  0.38044  0.01652  Biso   1.000  P
  P10      1.0000 0.73656  0.89052  0.44075  Biso   1.000  P
  P11      1.0000 0.65629  0.61853  0.20640  Biso   1.000  P
  P12      1.0000 0.67161  0.71385  0.89051  Biso   1.000  P
  F3       1.0000 0.66782  0.53482  0.03045  Biso   1.000  F
  O33      1.0000 0.72870  0.66090  0.93830  Biso   1.000  O
  O34      1.0000 0.71430  0.99420  0.43100  Biso   1.000  O
  O35      1.0000 0.61419  0.68510  0.93150  Biso   1.000  O
  O36      1.0000 0.77584  0.86160  0.36560  Biso   1.000  O
  O37      1.0000 0.59671  0.62110  0.13690  Biso   1.000  O
  O38      1.0000 0.55762  0.47600  0.96360  Biso   1.000  O
  O39      1.0000 0.67162  0.51680  0.24560  Biso   1.000  O
  O40      1.0000 0.64577  0.68410  0.28860  Biso   1.000  O
  O41      1.0000 0.77150  0.87190  0.54050  Biso   1.000  O
  O42      1.0000 0.67825  0.82980  0.42750  Biso   1.000  O
  O43      1.0000 0.59557  0.30550  0.97140  Biso   1.000  O
  O44      1.0000 0.71046  0.65830  0.16220  Biso   1.000  O
  O45      1.0000 0.58581  0.39160  0.12120  Biso   1.000  O
  O46      1.0000 0.67976  0.82280  0.90500  Biso   1.000  O
  O47      1.0000 0.49354  0.34180  0.01240  Biso   1.000  O
  O48      1.0000 0.66200  0.69440  0.78390  Biso   1.000  O
  Ga13     1.0000 0.08351  0.09588  0.00783  Biso   1.000  Ga
  Ga14     1.0000 0.16258  0.20145  0.41396  Biso   1.000  Ga
  Ga15     1.0000 0.24448  0.11060  0.06007  Biso   1.000  Ga
  Ga16     1.0000 0.16013  0.89777  0.19399  Biso   1.000  Ga
  P13      1.0000 0.05780  0.88044  0.01652  Biso   1.000  P
  P14      1.0000 0.23656  0.39052  0.44075  Biso   1.000  P
  P15      1.0000 0.15629  0.11853  0.20640  Biso   1.000  P
  P16      1.0000 0.17161  0.21385  0.89051  Biso   1.000  P
  F4       1.0000 0.16782  0.03482  0.03045  Biso   1.000  F
  O49      1.0000 0.22870  0.16090  0.93830  Biso   1.000  O
  O50      1.0000 0.21430  0.49420  0.43100  Biso   1.000  O
  O51      1.0000 0.11419  0.18510  0.93150  Biso   1.000  O
  O52      1.0000 0.27584  0.36160  0.36560  Biso   1.000  O
  O53      1.0000 0.09671  0.12110  0.13690  Biso   1.000  O
  O54      1.0000 0.05762  0.97600  0.96360  Biso   1.000  O
  O55      1.0000 0.17162  0.01680  0.24560  Biso   1.000  O
  O56      1.0000 0.14577  0.18410  0.28860  Biso   1.000  O
  O57      1.0000 0.27150  0.37190  0.54050  Biso   1.000  O
  O58      1.0000 0.17825  0.32980  0.42750  Biso   1.000  O
  O59      1.0000 0.09557  0.80550  0.97140  Biso   1.000  O
  O60      1.0000 0.21046  0.15830  0.16220  Biso   1.000  O
  O61      1.0000 0.08581  0.89160  0.12120  Biso   1.000  O
  O62      1.0000 0.17976  0.32280  0.90500  Biso   1.000  O
  O63      1.0000 0.99354  0.84180  0.01240  Biso   1.000  O
  O64      1.0000 0.16200  0.19440  0.78390  Biso   1.000  O
  Ga17     1.0000 0.58351  0.40412  0.50783  Biso   1.000  Ga
  Ga18     1.0000 0.66258  0.29855  0.91396  Biso   1.000  Ga
  Ga19     1.0000 0.74448  0.38940  0.56007  Biso   1.000  Ga
  Ga20     1.0000 0.66013  0.60223  0.69399  Biso   1.000  Ga
  P17      1.0000 0.55780  0.61956  0.51652  Biso   1.000  P
  P18      1.0000 0.73656  0.10948  0.94075  Biso   1.000  P
  P19      1.0000 0.65629  0.38147  0.70640  Biso   1.000  P
  P20      1.0000 0.67161  0.28615  0.39051  Biso   1.000  P
  F5       1.0000 0.66782  0.46518  0.53045  Biso   1.000  F
  O65      1.0000 0.72870  0.33910  0.43830  Biso   1.000  O
  O66      1.0000 0.71430  0.00580  0.93100  Biso   1.000  O
  O67      1.0000 0.61419  0.31490  0.43150  Biso   1.000  O
  O68      1.0000 0.77584  0.13840  0.86560  Biso   1.000  O
  O69      1.0000 0.59671  0.37890  0.63690  Biso   1.000  O
  O70      1.0000 0.55762  0.52400  0.46360  Biso   1.000  O
  O71      1.0000 0.67162  0.48320  0.74560  Biso   1.000  O
  O72      1.0000 0.64577  0.31590  0.78860  Biso   1.000  O
  O73      1.0000 0.77150  0.12810  0.04050  Biso   1.000  O
  O74      1.0000 0.67825  0.17020  0.92750  Biso   1.000  O
  O75      1.0000 0.59557  0.69450  0.47140  Biso   1.000  O
  O76      1.0000 0.71046  0.34170  0.66220  Biso   1.000  O
  O77      1.0000 0.58581  0.60840  0.62120  Biso   1.000  O
  O78      1.0000 0.67976  0.17720  0.40500  Biso   1.000  O
  O79      1.0000 0.49354  0.65820  0.51240  Biso   1.000  O
  O80      1.0000 0.66200  0.30560  0.28390  Biso   1.000  O
  Ga21     1.0000 0.08351  0.90412  0.50783  Biso   1.000  Ga
  Ga22     1.0000 0.16258  0.79855  0.91396  Biso   1.000  Ga
  Ga23     1.0000 0.24448  0.88940  0.56007  Biso   1.000  Ga
  Ga24     1.0000 0.16013  0.10223  0.69399  Biso   1.000  Ga
  P21      1.0000 0.05780  0.11956  0.51652  Biso   1.000  P
  P22      1.0000 0.23656  0.60948  0.94075  Biso   1.000  P
  P23      1.0000 0.15629  0.88147  0.70640  Biso   1.000  P
  P24      1.0000 0.17161  0.78615  0.39051  Biso   1.000  P
  F6       1.0000 0.16782  0.96518  0.53045  Biso   1.000  F
  O81      1.0000 0.22870  0.83910  0.43830  Biso   1.000  O
  O82      1.0000 0.21430  0.50580  0.93100  Biso   1.000  O
  O83      1.0000 0.11419  0.81490  0.43150  Biso   1.000  O
  O84      1.0000 0.27584  0.63840  0.86560  Biso   1.000  O
  O85      1.0000 0.09671  0.87890  0.63690  Biso   1.000  O
  O86      1.0000 0.05762  0.02400  0.46360  Biso   1.000  O
  O87      1.0000 0.17162  0.98320  0.74560  Biso   1.000  O
  O88      1.0000 0.14577  0.81590  0.78860  Biso   1.000  O
  O89      1.0000 0.27150  0.62810  0.04050  Biso   1.000  O
  O90      1.0000 0.17825  0.67020  0.92750  Biso   1.000  O
  O91      1.0000 0.09557  0.19450  0.47140  Biso   1.000  O
  O92      1.0000 0.21046  0.84170  0.66220  Biso   1.000  O
  O93      1.0000 0.08581  0.10840  0.62120  Biso   1.000  O
  O94      1.0000 0.17976  0.67720  0.40500  Biso   1.000  O
  O95      1.0000 0.99354  0.15820  0.51240  Biso   1.000  O
  O96      1.0000 0.16200  0.80560  0.28390  Biso   1.000  O
  Ga25     1.0000 0.41649  0.40412  0.99217  Biso   1.000  Ga
  Ga26     1.0000 0.33742  0.29855  0.58604  Biso   1.000  Ga
  Ga27     1.0000 0.25552  0.38940  0.93993  Biso   1.000  Ga
  Ga28     1.0000 0.33987  0.60223  0.80601  Biso   1.000  Ga
  P25      1.0000 0.44220  0.61956  0.98348  Biso   1.000  P
  P26      1.0000 0.26344  0.10948  0.55925  Biso   1.000  P
  P27      1.0000 0.34371  0.38147  0.79360  Biso   1.000  P
  P28      1.0000 0.32839  0.28615  0.10949  Biso   1.000  P
  F7       1.0000 0.33218  0.46518  0.96955  Biso   1.000  F
  O97      1.0000 0.27130  0.33910  0.06170  Biso   1.000  O
  O98      1.0000 0.28570  0.00580  0.56900  Biso   1.000  O
  O99      1.0000 0.38581  0.31490  0.06850  Biso   1.000  O
  O100     1.0000 0.22416  0.13840  0.63440  Biso   1.000  O
  O101     1.0000 0.40329  0.37890  0.86310  Biso   1.000  O
  O102     1.0000 0.44238  0.52400  0.03640  Biso   1.000  O
  O103     1.0000 0.32838  0.48320  0.75440  Biso   1.000  O
  O104     1.0000 0.35423  0.31590  0.71140  Biso   1.000  O
  O105     1.0000 0.22850  0.12810  0.45950  Biso   1.000  O
  O106     1.0000 0.32175  0.17020  0.57250  Biso   1.000  O
  O107     1.0000 0.40443  0.69450  0.02860  Biso   1.000  O
  O108     1.0000 0.28954  0.34170  0.83780  Biso   1.000  O
  O109     1.0000 0.41419  0.60840  0.87880  Biso   1.000  O
  O110     1.0000 0.32024  0.17720  0.09500  Biso   1.000  O
  O111     1.0000 0.50646  0.65820  0.98760  Biso   1.000  O
  O112     1.0000 0.33800  0.30560  0.21610  Biso   1.000  O
  Ga29     1.0000 0.91649  0.90412  0.99217  Biso   1.000  Ga
  Ga30     1.0000 0.83742  0.79855  0.58604  Biso   1.000  Ga
  Ga31     1.0000 0.75552  0.88940  0.93993  Biso   1.000  Ga
  Ga32     1.0000 0.83987  0.10223  0.80601  Biso   1.000  Ga
  P29      1.0000 0.94220  0.11956  0.98348  Biso   1.000  P
  P30      1.0000 0.76344  0.60948  0.55925  Biso   1.000  P
  P31      1.0000 0.84371  0.88147  0.79360  Biso   1.000  P
  P32      1.0000 0.82839  0.78615  0.10949  Biso   1.000  P
  F8       1.0000 0.83218  0.96518  0.96955  Biso   1.000  F
  O113     1.0000 0.77130  0.83910  0.06170  Biso   1.000  O
  O114     1.0000 0.78570  0.50580  0.56900  Biso   1.000  O
  O115     1.0000 0.88581  0.81490  0.06850  Biso   1.000  O
  O116     1.0000 0.72416  0.63840  0.63440  Biso   1.000  O
  O117     1.0000 0.90329  0.87890  0.86310  Biso   1.000  O
  O118     1.0000 0.94238  0.02400  0.03640  Biso   1.000  O
  O119     1.0000 0.82838  0.98320  0.75440  Biso   1.000  O
  O120     1.0000 0.85423  0.81590  0.71140  Biso   1.000  O
  O121     1.0000 0.72850  0.62810  0.45950  Biso   1.000  O
  O122     1.0000 0.82175  0.67020  0.57250  Biso   1.000  O
  O123     1.0000 0.90443  0.19450  0.02860  Biso   1.000  O
  O124     1.0000 0.78954  0.84170  0.83780  Biso   1.000  O
  O125     1.0000 0.91419  0.10840  0.87880  Biso   1.000  O
  O126     1.0000 0.82024  0.67720  0.09500  Biso   1.000  O
  O127     1.0000 0.00646  0.15820  0.98760  Biso   1.000  O
  O128     1.0000 0.83800  0.80560  0.21610  Biso   1.000  O
