data_image0
_cell_length_a       20.487
_cell_length_b       20.487
_cell_length_c       20.487
_cell_angle_alpha    90
_cell_angle_beta     90
_cell_angle_gamma    90

_symmetry_space_group_name_H-M    P 1
_symmetry_int_tables_number       1

loop_
  _symmetry_equiv_pos_as_xyz
  'x, y, z'

loop_
  _atom_site_label
  _atom_site_occupancy
  _atom_site_fract_x
  _atom_site_fract_y
  _atom_site_fract_z
  _atom_site_thermal_displace_type
  _atom_site_B_iso_or_equiv
  _atom_site_type_symbol
  Cd1      1.0000 0.12500  0.62500  0.87500  Biso   1.000  Cd
  Cd2      1.0000 0.37500  0.37500  0.37500  Biso   1.000  Cd
  Cd3      1.0000 0.87500  0.12500  0.62500  Biso   1.000  Cd
  Cd4      1.0000 0.62500  0.87500  0.12500  Biso   1.000  Cd
  Cd5      1.0000 0.02422  0.52422  0.97578  Biso   1.000  Cd
  Cd6      1.0000 0.47578  0.47578  0.47578  Biso   1.000  Cd
  Cd7      1.0000 0.97578  0.02422  0.52422  Biso   1.000  Cd
  Cd8      1.0000 0.52422  0.97578  0.02422  Biso   1.000  Cd
  Cd9      1.0000 0.27422  0.27422  0.27422  Biso   1.000  Cd
  Cd10     1.0000 0.22578  0.72578  0.77422  Biso   1.000  Cd
  Cd11     1.0000 0.77422  0.22578  0.72578  Biso   1.000  Cd
  Cd12     1.0000 0.72578  0.77422  0.22578  Biso   1.000  Cd
  H1       1.0000 0.07500  0.35990  0.80200  Biso   1.000  H
  H2       1.0000 0.26430  0.45570  0.72290  Biso   1.000  H
  H3       1.0000 0.20840  0.50350  0.80900  Biso   1.000  H
  H4       1.0000 0.42500  0.64010  0.30200  Biso   1.000  H
  H5       1.0000 0.23570  0.54430  0.22290  Biso   1.000  H
  H6       1.0000 0.29160  0.49650  0.30900  Biso   1.000  H
  H7       1.0000 0.92500  0.85990  0.69800  Biso   1.000  H
  H8       1.0000 0.73570  0.95570  0.77710  Biso   1.000  H
  H9       1.0000 0.79160  0.00350  0.69100  Biso   1.000  H
  H10      1.0000 0.57500  0.14010  0.19800  Biso   1.000  H
  H11      1.0000 0.76430  0.04430  0.27710  Biso   1.000  H
  H12      1.0000 0.70840  0.99650  0.19100  Biso   1.000  H
  H13      1.0000 0.80200  0.07500  0.35990  Biso   1.000  H
  H14      1.0000 0.72290  0.26430  0.45570  Biso   1.000  H
  H15      1.0000 0.80900  0.20840  0.50350  Biso   1.000  H
  H16      1.0000 0.30200  0.42500  0.64010  Biso   1.000  H
  H17      1.0000 0.22290  0.23570  0.54430  Biso   1.000  H
  H18      1.0000 0.30900  0.29160  0.49650  Biso   1.000  H
  H19      1.0000 0.69800  0.92500  0.85990  Biso   1.000  H
  H20      1.0000 0.77710  0.73570  0.95570  Biso   1.000  H
  H21      1.0000 0.69100  0.79160  0.00350  Biso   1.000  H
  H22      1.0000 0.19800  0.57500  0.14010  Biso   1.000  H
  H23      1.0000 0.27710  0.76430  0.04430  Biso   1.000  H
  H24      1.0000 0.19100  0.70840  0.99650  Biso   1.000  H
  H25      1.0000 0.35990  0.80200  0.07500  Biso   1.000  H
  H26      1.0000 0.45570  0.72290  0.26430  Biso   1.000  H
  H27      1.0000 0.50350  0.80900  0.20840  Biso   1.000  H
  H28      1.0000 0.64010  0.30200  0.42500  Biso   1.000  H
  H29      1.0000 0.54430  0.22290  0.23570  Biso   1.000  H
  H30      1.0000 0.49650  0.30900  0.29160  Biso   1.000  H
  H31      1.0000 0.85990  0.69800  0.92500  Biso   1.000  H
  H32      1.0000 0.95570  0.77710  0.73570  Biso   1.000  H
  H33      1.0000 0.00350  0.69100  0.79160  Biso   1.000  H
  H34      1.0000 0.14010  0.19800  0.57500  Biso   1.000  H
  H35      1.0000 0.04430  0.27710  0.76430  Biso   1.000  H
  H36      1.0000 0.99650  0.19100  0.70840  Biso   1.000  H
  H37      1.0000 0.10990  0.32500  0.44800  Biso   1.000  H
  H38      1.0000 0.20570  0.51430  0.52710  Biso   1.000  H
  H39      1.0000 0.25350  0.45840  0.44100  Biso   1.000  H
  H40      1.0000 0.39010  0.67500  0.94800  Biso   1.000  H
  H41      1.0000 0.29430  0.48570  0.02710  Biso   1.000  H
  H42      1.0000 0.24650  0.54160  0.94100  Biso   1.000  H
  H43      1.0000 0.60990  0.17500  0.55200  Biso   1.000  H
  H44      1.0000 0.70570  0.98570  0.47290  Biso   1.000  H
  H45      1.0000 0.75350  0.04160  0.55900  Biso   1.000  H
  H46      1.0000 0.89010  0.82500  0.05200  Biso   1.000  H
  H47      1.0000 0.79430  0.01430  0.97290  Biso   1.000  H
  H48      1.0000 0.74650  0.95840  0.05900  Biso   1.000  H
  H49      1.0000 0.82500  0.05200  0.89010  Biso   1.000  H
  H50      1.0000 0.01430  0.97290  0.79430  Biso   1.000  H
  H51      1.0000 0.95840  0.05900  0.74650  Biso   1.000  H
  H52      1.0000 0.17500  0.55200  0.60990  Biso   1.000  H
  H53      1.0000 0.98570  0.47290  0.70570  Biso   1.000  H
  H54      1.0000 0.04160  0.55900  0.75350  Biso   1.000  H
  H55      1.0000 0.67500  0.94800  0.39010  Biso   1.000  H
  H56      1.0000 0.48570  0.02710  0.29430  Biso   1.000  H
  H57      1.0000 0.54160  0.94100  0.24650  Biso   1.000  H
  H58      1.0000 0.32500  0.44800  0.10990  Biso   1.000  H
  H59      1.0000 0.51430  0.52710  0.20570  Biso   1.000  H
  H60      1.0000 0.45840  0.44100  0.25350  Biso   1.000  H
  H61      1.0000 0.55200  0.60990  0.17500  Biso   1.000  H
  H62      1.0000 0.47290  0.70570  0.98570  Biso   1.000  H
  H63      1.0000 0.55900  0.75350  0.04160  Biso   1.000  H
  H64      1.0000 0.05200  0.89010  0.82500  Biso   1.000  H
  H65      1.0000 0.97290  0.79430  0.01430  Biso   1.000  H
  H66      1.0000 0.05900  0.74650  0.95840  Biso   1.000  H
  H67      1.0000 0.44800  0.10990  0.32500  Biso   1.000  H
  H68      1.0000 0.52710  0.20570  0.51430  Biso   1.000  H
  H69      1.0000 0.44100  0.25350  0.45840  Biso   1.000  H
  H70      1.0000 0.94800  0.39010  0.67500  Biso   1.000  H
  H71      1.0000 0.02710  0.29430  0.48570  Biso   1.000  H
  H72      1.0000 0.94100  0.24650  0.54160  Biso   1.000  H
  C1       1.0000 0.10010  0.46790  0.86650  Biso   1.000  C
  C2       1.0000 0.13610  0.43640  0.81400  Biso   1.000  C
  C3       1.0000 0.11290  0.37910  0.78610  Biso   1.000  C
  C4       1.0000 0.14650  0.35050  0.73450  Biso   1.000  C
  C5       1.0000 0.20320  0.37920  0.71080  Biso   1.000  C
  C6       1.0000 0.22640  0.43650  0.73870  Biso   1.000  C
  C7       1.0000 0.19290  0.46510  0.79030  Biso   1.000  C
  C8       1.0000 0.39990  0.53210  0.36650  Biso   1.000  C
  C9       1.0000 0.36390  0.56360  0.31400  Biso   1.000  C
  C10      1.0000 0.38710  0.62090  0.28610  Biso   1.000  C
  C11      1.0000 0.35350  0.64950  0.23450  Biso   1.000  C
  C12      1.0000 0.29680  0.62080  0.21080  Biso   1.000  C
  C13      1.0000 0.27360  0.56350  0.23870  Biso   1.000  C
  C14      1.0000 0.30710  0.53490  0.29030  Biso   1.000  C
  C15      1.0000 0.89990  0.96790  0.63350  Biso   1.000  C
  C16      1.0000 0.86390  0.93640  0.68600  Biso   1.000  C
  C17      1.0000 0.88710  0.87910  0.71390  Biso   1.000  C
  C18      1.0000 0.85350  0.85050  0.76550  Biso   1.000  C
  C19      1.0000 0.79680  0.87920  0.78920  Biso   1.000  C
  C20      1.0000 0.77360  0.93650  0.76130  Biso   1.000  C
  C21      1.0000 0.80710  0.96510  0.70970  Biso   1.000  C
  C22      1.0000 0.60010  0.03210  0.13350  Biso   1.000  C
  C23      1.0000 0.63610  0.06360  0.18600  Biso   1.000  C
  C24      1.0000 0.61290  0.12090  0.21390  Biso   1.000  C
  C25      1.0000 0.64650  0.14950  0.26550  Biso   1.000  C
  C26      1.0000 0.70320  0.12080  0.28920  Biso   1.000  C
  C27      1.0000 0.72640  0.06350  0.26130  Biso   1.000  C
  C28      1.0000 0.69290  0.03490  0.20970  Biso   1.000  C
  C29      1.0000 0.86650  0.10010  0.46790  Biso   1.000  C
  C30      1.0000 0.81400  0.13610  0.43640  Biso   1.000  C
  C31      1.0000 0.78610  0.11290  0.37910  Biso   1.000  C
  C32      1.0000 0.73450  0.14650  0.35050  Biso   1.000  C
  C33      1.0000 0.71080  0.20320  0.37920  Biso   1.000  C
  C34      1.0000 0.73870  0.22640  0.43650  Biso   1.000  C
  C35      1.0000 0.79030  0.19290  0.46510  Biso   1.000  C
  C36      1.0000 0.36650  0.39990  0.53210  Biso   1.000  C
  C37      1.0000 0.31400  0.36390  0.56360  Biso   1.000  C
  C38      1.0000 0.28610  0.38710  0.62090  Biso   1.000  C
  C39      1.0000 0.23450  0.35350  0.64950  Biso   1.000  C
  C40      1.0000 0.21080  0.29680  0.62080  Biso   1.000  C
  C41      1.0000 0.23870  0.27360  0.56350  Biso   1.000  C
  C42      1.0000 0.29030  0.30710  0.53490  Biso   1.000  C
  C43      1.0000 0.63350  0.89990  0.96790  Biso   1.000  C
  C44      1.0000 0.68600  0.86390  0.93640  Biso   1.000  C
  C45      1.0000 0.71390  0.88710  0.87910  Biso   1.000  C
  C46      1.0000 0.76550  0.85350  0.85050  Biso   1.000  C
  C47      1.0000 0.78920  0.79680  0.87920  Biso   1.000  C
  C48      1.0000 0.76130  0.77360  0.93650  Biso   1.000  C
  C49      1.0000 0.70970  0.80710  0.96510  Biso   1.000  C
  C50      1.0000 0.13350  0.60010  0.03210  Biso   1.000  C
  C51      1.0000 0.18600  0.63610  0.06360  Biso   1.000  C
  C52      1.0000 0.21390  0.61290  0.12090  Biso   1.000  C
  C53      1.0000 0.26550  0.64650  0.14950  Biso   1.000  C
  C54      1.0000 0.28920  0.70320  0.12080  Biso   1.000  C
  C55      1.0000 0.26130  0.72640  0.06350  Biso   1.000  C
  C56      1.0000 0.20970  0.69290  0.03490  Biso   1.000  C
  C57      1.0000 0.46790  0.86650  0.10010  Biso   1.000  C
  C58      1.0000 0.43640  0.81400  0.13610  Biso   1.000  C
  C59      1.0000 0.37910  0.78610  0.11290  Biso   1.000  C
  C60      1.0000 0.35050  0.73450  0.14650  Biso   1.000  C
  C61      1.0000 0.37920  0.71080  0.20320  Biso   1.000  C
  C62      1.0000 0.43650  0.73870  0.22640  Biso   1.000  C
  C63      1.0000 0.46510  0.79030  0.19290  Biso   1.000  C
  C64      1.0000 0.53210  0.36650  0.39990  Biso   1.000  C
  C65      1.0000 0.56360  0.31400  0.36390  Biso   1.000  C
  C66      1.0000 0.62090  0.28610  0.38710  Biso   1.000  C
  C67      1.0000 0.64950  0.23450  0.35350  Biso   1.000  C
  C68      1.0000 0.62080  0.21080  0.29680  Biso   1.000  C
  C69      1.0000 0.56350  0.23870  0.27360  Biso   1.000  C
  C70      1.0000 0.53490  0.29030  0.30710  Biso   1.000  C
  C71      1.0000 0.96790  0.63350  0.89990  Biso   1.000  C
  C72      1.0000 0.93640  0.68600  0.86390  Biso   1.000  C
  C73      1.0000 0.87910  0.71390  0.88710  Biso   1.000  C
  C74      1.0000 0.85050  0.76550  0.85350  Biso   1.000  C
  C75      1.0000 0.87920  0.78920  0.79680  Biso   1.000  C
  C76      1.0000 0.93650  0.76130  0.77360  Biso   1.000  C
  C77      1.0000 0.96510  0.70970  0.80710  Biso   1.000  C
  C78      1.0000 0.03210  0.13350  0.60010  Biso   1.000  C
  C79      1.0000 0.06360  0.18600  0.63610  Biso   1.000  C
  C80      1.0000 0.12090  0.21390  0.61290  Biso   1.000  C
  C81      1.0000 0.14950  0.26550  0.64650  Biso   1.000  C
  C82      1.0000 0.12080  0.28920  0.70320  Biso   1.000  C
  C83      1.0000 0.06350  0.26130  0.72640  Biso   1.000  C
  C84      1.0000 0.03490  0.20970  0.69290  Biso   1.000  C
  C85      1.0000 0.21790  0.35010  0.38350  Biso   1.000  C
  C86      1.0000 0.18640  0.38610  0.43600  Biso   1.000  C
  C87      1.0000 0.12910  0.36290  0.46390  Biso   1.000  C
  C88      1.0000 0.10050  0.39650  0.51550  Biso   1.000  C
  C89      1.0000 0.12920  0.45320  0.53920  Biso   1.000  C
  C90      1.0000 0.18650  0.47640  0.51130  Biso   1.000  C
  C91      1.0000 0.21510  0.44290  0.45970  Biso   1.000  C
  C92      1.0000 0.28210  0.64990  0.88350  Biso   1.000  C
  C93      1.0000 0.31360  0.61390  0.93600  Biso   1.000  C
  C94      1.0000 0.37090  0.63710  0.96390  Biso   1.000  C
  C95      1.0000 0.39950  0.60350  0.01550  Biso   1.000  C
  C96      1.0000 0.37080  0.54680  0.03920  Biso   1.000  C
  C97      1.0000 0.31350  0.52360  0.01130  Biso   1.000  C
  C98      1.0000 0.28490  0.55710  0.95970  Biso   1.000  C
  C99      1.0000 0.71790  0.14990  0.61650  Biso   1.000  C
  C100     1.0000 0.68640  0.11390  0.56400  Biso   1.000  C
  C101     1.0000 0.62910  0.13710  0.53610  Biso   1.000  C
  C102     1.0000 0.60050  0.10350  0.48450  Biso   1.000  C
  C103     1.0000 0.62920  0.04680  0.46080  Biso   1.000  C
  C104     1.0000 0.68650  0.02360  0.48870  Biso   1.000  C
  C105     1.0000 0.71510  0.05710  0.54030  Biso   1.000  C
  C106     1.0000 0.78210  0.85010  0.11650  Biso   1.000  C
  C107     1.0000 0.81360  0.88610  0.06400  Biso   1.000  C
  C108     1.0000 0.87090  0.86290  0.03610  Biso   1.000  C
  C109     1.0000 0.89950  0.89650  0.98450  Biso   1.000  C
  C110     1.0000 0.87080  0.95320  0.96080  Biso   1.000  C
  C111     1.0000 0.81350  0.97640  0.98870  Biso   1.000  C
  C112     1.0000 0.78490  0.94290  0.04030  Biso   1.000  C
  C113     1.0000 0.85010  0.11650  0.78210  Biso   1.000  C
  C114     1.0000 0.88610  0.06400  0.81360  Biso   1.000  C
  C115     1.0000 0.86290  0.03610  0.87090  Biso   1.000  C
  C116     1.0000 0.89650  0.98450  0.89950  Biso   1.000  C
  C117     1.0000 0.95320  0.96080  0.87080  Biso   1.000  C
  C118     1.0000 0.97640  0.98870  0.81350  Biso   1.000  C
  C119     1.0000 0.94290  0.04030  0.78490  Biso   1.000  C
  C120     1.0000 0.14990  0.61650  0.71790  Biso   1.000  C
  C121     1.0000 0.11390  0.56400  0.68640  Biso   1.000  C
  C122     1.0000 0.13710  0.53610  0.62910  Biso   1.000  C
  C123     1.0000 0.10350  0.48450  0.60050  Biso   1.000  C
  C124     1.0000 0.04680  0.46080  0.62920  Biso   1.000  C
  C125     1.0000 0.02360  0.48870  0.68650  Biso   1.000  C
  C126     1.0000 0.05710  0.54030  0.71510  Biso   1.000  C
  C127     1.0000 0.64990  0.88350  0.28210  Biso   1.000  C
  C128     1.0000 0.61390  0.93600  0.31360  Biso   1.000  C
  C129     1.0000 0.63710  0.96390  0.37090  Biso   1.000  C
  C130     1.0000 0.60350  0.01550  0.39950  Biso   1.000  C
  C131     1.0000 0.54680  0.03920  0.37080  Biso   1.000  C
  C132     1.0000 0.52360  0.01130  0.31350  Biso   1.000  C
  C133     1.0000 0.55710  0.95970  0.28490  Biso   1.000  C
  C134     1.0000 0.35010  0.38350  0.21790  Biso   1.000  C
  C135     1.0000 0.38610  0.43600  0.18640  Biso   1.000  C
  C136     1.0000 0.36290  0.46390  0.12910  Biso   1.000  C
  C137     1.0000 0.39650  0.51550  0.10050  Biso   1.000  C
  C138     1.0000 0.45320  0.53920  0.12920  Biso   1.000  C
  C139     1.0000 0.47640  0.51130  0.18650  Biso   1.000  C
  C140     1.0000 0.44290  0.45970  0.21510  Biso   1.000  C
  C141     1.0000 0.61650  0.71790  0.14990  Biso   1.000  C
  C142     1.0000 0.56400  0.68640  0.11390  Biso   1.000  C
  C143     1.0000 0.53610  0.62910  0.13710  Biso   1.000  C
  C144     1.0000 0.48450  0.60050  0.10350  Biso   1.000  C
  C145     1.0000 0.46080  0.62920  0.04680  Biso   1.000  C
  C146     1.0000 0.48870  0.68650  0.02360  Biso   1.000  C
  C147     1.0000 0.54030  0.71510  0.05710  Biso   1.000  C
  C148     1.0000 0.11650  0.78210  0.85010  Biso   1.000  C
  C149     1.0000 0.06400  0.81360  0.88610  Biso   1.000  C
  C150     1.0000 0.03610  0.87090  0.86290  Biso   1.000  C
  C151     1.0000 0.98450  0.89950  0.89650  Biso   1.000  C
  C152     1.0000 0.96080  0.87080  0.95320  Biso   1.000  C
  C153     1.0000 0.98870  0.81350  0.97640  Biso   1.000  C
  C154     1.0000 0.04030  0.78490  0.94290  Biso   1.000  C
  C155     1.0000 0.38350  0.21790  0.35010  Biso   1.000  C
  C156     1.0000 0.43600  0.18640  0.38610  Biso   1.000  C
  C157     1.0000 0.46390  0.12910  0.36290  Biso   1.000  C
  C158     1.0000 0.51550  0.10050  0.39650  Biso   1.000  C
  C159     1.0000 0.53920  0.12920  0.45320  Biso   1.000  C
  C160     1.0000 0.51130  0.18650  0.47640  Biso   1.000  C
  C161     1.0000 0.45970  0.21510  0.44290  Biso   1.000  C
  C162     1.0000 0.88350  0.28210  0.64990  Biso   1.000  C
  C163     1.0000 0.93600  0.31360  0.61390  Biso   1.000  C
  C164     1.0000 0.96390  0.37090  0.63710  Biso   1.000  C
  C165     1.0000 0.01550  0.39950  0.60350  Biso   1.000  C
  C166     1.0000 0.03920  0.37080  0.54680  Biso   1.000  C
  C167     1.0000 0.01130  0.31350  0.52360  Biso   1.000  C
  C168     1.0000 0.95970  0.28490  0.55710  Biso   1.000  C
  O1       1.0000 0.05170  0.45240  0.89820  Biso   1.000  O
  O2       1.0000 0.12960  0.51700  0.88330  Biso   1.000  O
  O3       1.0000 0.44830  0.54760  0.39820  Biso   1.000  O
  O4       1.0000 0.37040  0.48300  0.38330  Biso   1.000  O
  O5       1.0000 0.94830  0.95240  0.60180  Biso   1.000  O
  O6       1.0000 0.87040  0.01700  0.61670  Biso   1.000  O
  O7       1.0000 0.55170  0.04760  0.10180  Biso   1.000  O
  O8       1.0000 0.62960  0.98300  0.11670  Biso   1.000  O
  O9       1.0000 0.89820  0.05170  0.45240  Biso   1.000  O
  O10      1.0000 0.88330  0.12960  0.51700  Biso   1.000  O
  O11      1.0000 0.39820  0.44830  0.54760  Biso   1.000  O
  O12      1.0000 0.38330  0.37040  0.48300  Biso   1.000  O
  O13      1.0000 0.60180  0.94830  0.95240  Biso   1.000  O
  O14      1.0000 0.61670  0.87040  0.01700  Biso   1.000  O
  O15      1.0000 0.10180  0.55170  0.04760  Biso   1.000  O
  O16      1.0000 0.11670  0.62960  0.98300  Biso   1.000  O
  O17      1.0000 0.45240  0.89820  0.05170  Biso   1.000  O
  O18      1.0000 0.51700  0.88330  0.12960  Biso   1.000  O
  O19      1.0000 0.54760  0.39820  0.44830  Biso   1.000  O
  O20      1.0000 0.48300  0.38330  0.37040  Biso   1.000  O
  O21      1.0000 0.95240  0.60180  0.94830  Biso   1.000  O
  O22      1.0000 0.01700  0.61670  0.87040  Biso   1.000  O
  O23      1.0000 0.04760  0.10180  0.55170  Biso   1.000  O
  O24      1.0000 0.98300  0.11670  0.62960  Biso   1.000  O
  O25      1.0000 0.20240  0.30170  0.35180  Biso   1.000  O
  O26      1.0000 0.26700  0.37960  0.36670  Biso   1.000  O
  O27      1.0000 0.29760  0.69830  0.85180  Biso   1.000  O
  O28      1.0000 0.23300  0.62040  0.86670  Biso   1.000  O
  O29      1.0000 0.70240  0.19830  0.64820  Biso   1.000  O
  O30      1.0000 0.76700  0.12040  0.63330  Biso   1.000  O
  O31      1.0000 0.79760  0.80170  0.14820  Biso   1.000  O
  O32      1.0000 0.73300  0.87960  0.13330  Biso   1.000  O
  O33      1.0000 0.80170  0.14820  0.79760  Biso   1.000  O
  O34      1.0000 0.87960  0.13330  0.73300  Biso   1.000  O
  O35      1.0000 0.19830  0.64820  0.70240  Biso   1.000  O
  O36      1.0000 0.12040  0.63330  0.76700  Biso   1.000  O
  O37      1.0000 0.69830  0.85180  0.29760  Biso   1.000  O
  O38      1.0000 0.62040  0.86670  0.23300  Biso   1.000  O
  O39      1.0000 0.30170  0.35180  0.20240  Biso   1.000  O
  O40      1.0000 0.37960  0.36670  0.26700  Biso   1.000  O
  O41      1.0000 0.64820  0.70240  0.19830  Biso   1.000  O
  O42      1.0000 0.63330  0.76700  0.12040  Biso   1.000  O
  O43      1.0000 0.14820  0.79760  0.80170  Biso   1.000  O
  O44      1.0000 0.13330  0.73300  0.87960  Biso   1.000  O
  O45      1.0000 0.35180  0.20240  0.30170  Biso   1.000  O
  O46      1.0000 0.36670  0.26700  0.37960  Biso   1.000  O
  O47      1.0000 0.85180  0.29760  0.69830  Biso   1.000  O
  O48      1.0000 0.86670  0.23300  0.62040  Biso   1.000  O
  O49      1.0000 0.96180  0.46180  0.03820  Biso   1.000  O
  O50      1.0000 0.53820  0.53820  0.53820  Biso   1.000  O
  O51      1.0000 0.03820  0.96180  0.46180  Biso   1.000  O
  O52      1.0000 0.46180  0.03820  0.96180  Biso   1.000  O
  O53      1.0000 0.21180  0.21180  0.21180  Biso   1.000  O
  O54      1.0000 0.28820  0.78820  0.71180  Biso   1.000  O
  O55      1.0000 0.71180  0.28820  0.78820  Biso   1.000  O
  O56      1.0000 0.78820  0.71180  0.28820  Biso   1.000  O
