data_image0
_cell_length_a       8.7219
_cell_length_b       17.3525
_cell_length_c       12.2719
_cell_angle_alpha    90
_cell_angle_beta     92.457
_cell_angle_gamma    90

_symmetry_space_group_name_H-M    "P 1"
_symmetry_int_tables_number       1

loop_
  _symmetry_equiv_pos_as_xyz
  'x, y, z'

loop_
  _atom_site_label
  _atom_site_occupancy
  _atom_site_fract_x
  _atom_site_fract_y
  _atom_site_fract_z
  _atom_site_thermal_displace_type
  _atom_site_B_iso_or_equiv
  _atom_site_type_symbol
  C1       1.0000 0.82460  0.26870  0.57940  Biso   1.000  C
  C2       1.0000 0.34880  0.19050  0.41950  Biso   1.000  C
  C3       1.0000 0.02770  0.07220  0.76260  Biso   1.000  C
  C4       1.0000 0.86260  0.13500  0.23910  Biso   1.000  C
  N1       1.0000 0.88190  0.21680  0.54150  Biso   1.000  N
  N2       1.0000 0.23980  0.16560  0.45090  Biso   1.000  N
  N3       1.0000 0.05710  0.09090  0.67770  Biso   1.000  N
  N4       1.0000 0.92070  0.11410  0.32000  Biso   1.000  N
  O1       1.0000 0.83590  0.00920  0.51010  Biso   1.000  O
  H1       1.0000 0.75990  0.01100  0.45020  Biso   1.000  H
  H2       1.0000 0.78360  0.01320  0.57810  Biso   1.000  H
  S1       1.0000 0.74180  0.34510  0.63344  Biso   1.000  S
  S2       1.0000 0.50850  0.22741  0.37570  Biso   1.000  S
  S3       1.0000 0.98860  0.03876  0.88470  Biso   1.000  S
  S4       1.0000 0.77510  0.16629  0.12600  Biso   1.000  S
  Cd1      1.0000 0.01620  0.11203  0.49525  Biso   1.000  Cd
  Hg1      1.0000 0.50522  0.34171  0.50450  Biso   1.000  Hg
  C5       1.0000 0.67540  0.76870  0.92060  Biso   1.000  C
  C6       1.0000 0.15120  0.69050  0.08050  Biso   1.000  C
  C7       1.0000 0.47230  0.57220  0.73740  Biso   1.000  C
  C8       1.0000 0.63740  0.63500  0.26090  Biso   1.000  C
  N5       1.0000 0.61810  0.71680  0.95850  Biso   1.000  N
  N6       1.0000 0.26020  0.66560  0.04910  Biso   1.000  N
  N7       1.0000 0.44290  0.59090  0.82230  Biso   1.000  N
  N8       1.0000 0.57930  0.61410  0.18000  Biso   1.000  N
  O2       1.0000 0.66410  0.50920  0.98990  Biso   1.000  O
  H3       1.0000 0.74010  0.51100  0.04980  Biso   1.000  H
  H4       1.0000 0.71640  0.51320  0.92190  Biso   1.000  H
  S5       1.0000 0.75820  0.84510  0.86656  Biso   1.000  S
  S6       1.0000 0.99150  0.72741  0.12430  Biso   1.000  S
  S7       1.0000 0.51140  0.53876  0.61530  Biso   1.000  S
  S8       1.0000 0.72490  0.66629  0.37400  Biso   1.000  S
  Cd2      1.0000 0.48380  0.61203  0.00475  Biso   1.000  Cd
  Hg2      1.0000 0.99478  0.84171  0.99550  Biso   1.000  Hg
  C9       1.0000 0.17540  0.73130  0.42060  Biso   1.000  C
  C10      1.0000 0.65120  0.80950  0.58050  Biso   1.000  C
  C11      1.0000 0.97230  0.92780  0.23740  Biso   1.000  C
  C12      1.0000 0.13740  0.86500  0.76090  Biso   1.000  C
  N9       1.0000 0.11810  0.78320  0.45850  Biso   1.000  N
  N10      1.0000 0.76020  0.83440  0.54910  Biso   1.000  N
  N11      1.0000 0.94290  0.90910  0.32230  Biso   1.000  N
  N12      1.0000 0.07930  0.88590  0.68000  Biso   1.000  N
  O3       1.0000 0.16410  0.99080  0.48990  Biso   1.000  O
  H5       1.0000 0.24010  0.98900  0.54980  Biso   1.000  H
  H6       1.0000 0.21640  0.98680  0.42190  Biso   1.000  H
  S9       1.0000 0.25820  0.65490  0.36656  Biso   1.000  S
  S10      1.0000 0.49150  0.77259  0.62430  Biso   1.000  S
  S11      1.0000 0.01140  0.96124  0.11530  Biso   1.000  S
  S12      1.0000 0.22490  0.83371  0.87400  Biso   1.000  S
  Cd3      1.0000 0.98380  0.88797  0.50475  Biso   1.000  Cd
  Hg3      1.0000 0.49478  0.65829  0.49550  Biso   1.000  Hg
  C13      1.0000 0.32460  0.23130  0.07940  Biso   1.000  C
  C14      1.0000 0.84880  0.30950  0.91950  Biso   1.000  C
  C15      1.0000 0.52770  0.42780  0.26260  Biso   1.000  C
  C16      1.0000 0.36260  0.36500  0.73910  Biso   1.000  C
  N13      1.0000 0.38190  0.28320  0.04150  Biso   1.000  N
  N14      1.0000 0.73980  0.33440  0.95090  Biso   1.000  N
  N15      1.0000 0.55710  0.40910  0.17770  Biso   1.000  N
  N16      1.0000 0.42070  0.38590  0.82000  Biso   1.000  N
  O4       1.0000 0.33590  0.49080  0.01010  Biso   1.000  O
  H7       1.0000 0.25990  0.48900  0.95020  Biso   1.000  H
  H8       1.0000 0.28360  0.48680  0.07810  Biso   1.000  H
  S13      1.0000 0.24180  0.15490  0.13344  Biso   1.000  S
  S14      1.0000 0.00850  0.27259  0.87570  Biso   1.000  S
  S15      1.0000 0.48860  0.46124  0.38470  Biso   1.000  S
  S16      1.0000 0.27510  0.33371  0.62600  Biso   1.000  S
  Cd4      1.0000 0.51620  0.38797  0.99525  Biso   1.000  Cd
  Hg4      1.0000 0.00522  0.15829  0.00450  Biso   1.000  Hg
