data_image0
_cell_length_a       7.0122
_cell_length_b       11.1241
_cell_length_c       20.0433
_cell_angle_alpha    106.111
_cell_angle_beta     98.2925
_cell_angle_gamma    90

_symmetry_space_group_name_H-M    P 1
_symmetry_int_tables_number       1

loop_
  _symmetry_equiv_pos_as_xyz
  'x, y, z'

loop_
  _atom_site_label
  _atom_site_occupancy
  _atom_site_fract_x
  _atom_site_fract_y
  _atom_site_fract_z
  _atom_site_thermal_displace_type
  _atom_site_B_iso_or_equiv
  _atom_site_type_symbol
  Er1      1.0000 0.14666  0.07046  0.74063  Biso   1.000  Er
  Er2      1.0000 0.35334  0.32983  0.25937  Biso   1.000  Er
  Er3      1.0000 0.85334  0.92954  0.25937  Biso   1.000  Er
  Er4      1.0000 0.64666  0.67017  0.74063  Biso   1.000  Er
  H1       1.0000 0.49760  0.20330  0.99020  Biso   1.000  H
  H2       1.0000 0.36340  0.83310  0.90860  Biso   1.000  H
  H3       1.0000 0.52760  0.71810  0.54480  Biso   1.000  H
  H4       1.0000 0.42370  0.69340  0.42540  Biso   1.000  H
  H5       1.0000 0.18630  0.02720  0.47540  Biso   1.000  H
  H6       1.0000 0.29710  0.05630  0.59320  Biso   1.000  H
  H7       1.0000 0.00240  0.21310  0.00980  Biso   1.000  H
  H8       1.0000 0.13660  0.92450  0.09140  Biso   1.000  H
  H9       1.0000 0.97240  0.17330  0.45520  Biso   1.000  H
  H10      1.0000 0.07630  0.26800  0.57460  Biso   1.000  H
  H11      1.0000 0.31370  0.55180  0.52460  Biso   1.000  H
  H12      1.0000 0.20290  0.46310  0.40680  Biso   1.000  H
  H13      1.0000 0.50240  0.79670  0.00980  Biso   1.000  H
  H14      1.0000 0.63660  0.16690  0.09140  Biso   1.000  H
  H15      1.0000 0.47240  0.28190  0.45520  Biso   1.000  H
  H16      1.0000 0.57630  0.30660  0.57460  Biso   1.000  H
  H17      1.0000 0.81370  0.97280  0.52460  Biso   1.000  H
  H18      1.0000 0.70290  0.94370  0.40680  Biso   1.000  H
  H19      1.0000 0.99760  0.78690  0.99020  Biso   1.000  H
  H20      1.0000 0.86340  0.07550  0.90860  Biso   1.000  H
  H21      1.0000 0.02760  0.82670  0.54480  Biso   1.000  H
  H22      1.0000 0.92370  0.73200  0.42540  Biso   1.000  H
  H23      1.0000 0.68630  0.44820  0.47540  Biso   1.000  H
  H24      1.0000 0.79710  0.53690  0.59320  Biso   1.000  H
  C1       1.0000 0.32750  0.04240  0.86900  Biso   1.000  C
  C2       1.0000 0.41640  0.02070  0.93680  Biso   1.000  C
  C3       1.0000 0.49950  0.12200  0.99420  Biso   1.000  C
  C4       1.0000 0.41920  0.89990  0.94540  Biso   1.000  C
  C5       1.0000 0.46700  0.89210  0.65740  Biso   1.000  C
  C6       1.0000 0.41470  0.88460  0.58200  Biso   1.000  C
  C7       1.0000 0.45650  0.78000  0.53100  Biso   1.000  C
  C8       1.0000 0.39420  0.76460  0.45880  Biso   1.000  C
  C9       1.0000 0.28910  0.85670  0.43860  Biso   1.000  C
  C10      1.0000 0.25450  0.96440  0.48940  Biso   1.000  C
  C11      1.0000 0.31790  0.98190  0.56040  Biso   1.000  C
  C12      1.0000 0.21180  0.83900  0.36260  Biso   1.000  C
  C13      1.0000 0.17250  0.17340  0.13100  Biso   1.000  C
  C14      1.0000 0.08360  0.08390  0.06320  Biso   1.000  C
  C15      1.0000 0.00050  0.12780  0.00580  Biso   1.000  C
  C16      1.0000 0.08080  0.95450  0.05460  Biso   1.000  C
  C17      1.0000 0.03300  0.23470  0.34260  Biso   1.000  C
  C18      1.0000 0.08530  0.30260  0.41800  Biso   1.000  C
  C19      1.0000 0.04350  0.24900  0.46900  Biso   1.000  C
  C20      1.0000 0.10580  0.30580  0.54120  Biso   1.000  C
  C21      1.0000 0.21090  0.41810  0.56140  Biso   1.000  C
  C22      1.0000 0.24550  0.47500  0.51060  Biso   1.000  C
  C23      1.0000 0.18210  0.42150  0.43960  Biso   1.000  C
  C24      1.0000 0.28820  0.47640  0.63740  Biso   1.000  C
  C25      1.0000 0.67250  0.95760  0.13100  Biso   1.000  C
  C26      1.0000 0.58360  0.97930  0.06320  Biso   1.000  C
  C27      1.0000 0.50050  0.87800  0.00580  Biso   1.000  C
  C28      1.0000 0.58080  0.10010  0.05460  Biso   1.000  C
  C29      1.0000 0.53300  0.10790  0.34260  Biso   1.000  C
  C30      1.0000 0.58530  0.11540  0.41800  Biso   1.000  C
  C31      1.0000 0.54350  0.22000  0.46900  Biso   1.000  C
  C32      1.0000 0.60580  0.23540  0.54120  Biso   1.000  C
  C33      1.0000 0.71090  0.14330  0.56140  Biso   1.000  C
  C34      1.0000 0.74550  0.03560  0.51060  Biso   1.000  C
  C35      1.0000 0.68210  0.01810  0.43960  Biso   1.000  C
  C36      1.0000 0.78820  0.16100  0.63740  Biso   1.000  C
  C37      1.0000 0.82750  0.82660  0.86900  Biso   1.000  C
  C38      1.0000 0.91640  0.91610  0.93680  Biso   1.000  C
  C39      1.0000 0.99950  0.87220  0.99420  Biso   1.000  C
  C40      1.0000 0.91920  0.04550  0.94540  Biso   1.000  C
  C41      1.0000 0.96700  0.76530  0.65740  Biso   1.000  C
  C42      1.0000 0.91470  0.69740  0.58200  Biso   1.000  C
  C43      1.0000 0.95650  0.75100  0.53100  Biso   1.000  C
  C44      1.0000 0.89420  0.69420  0.45880  Biso   1.000  C
  C45      1.0000 0.78910  0.58190  0.43860  Biso   1.000  C
  C46      1.0000 0.75450  0.52500  0.48940  Biso   1.000  C
  C47      1.0000 0.81790  0.57850  0.56040  Biso   1.000  C
  C48      1.0000 0.71180  0.52360  0.36260  Biso   1.000  C
  O1       1.0000 0.21400  0.95890  0.82520  Biso   1.000  O
  O2       1.0000 0.35460  0.14360  0.85540  Biso   1.000  O
  O3       1.0000 0.42220  0.98870  0.70400  Biso   1.000  O
  O4       1.0000 0.55720  0.80330  0.67240  Biso   1.000  O
  O5       1.0000 0.05610  0.89300  0.34960  Biso   1.000  O
  O6       1.0000 0.29810  0.77140  0.31600  Biso   1.000  O
  O7       1.0000 0.83670  0.04480  0.77120  Biso   1.000  O
  O8       1.0000 0.32560  0.23180  0.71560  Biso   1.000  O
  O9       1.0000 0.03550  0.27170  0.80000  Biso   1.000  O
  O10      1.0000 0.28600  0.13370  0.17480  Biso   1.000  O
  O11      1.0000 0.14540  0.28820  0.14460  Biso   1.000  O
  O12      1.0000 0.07780  0.28470  0.29600  Biso   1.000  O
  O13      1.0000 0.94280  0.13090  0.32760  Biso   1.000  O
  O14      1.0000 0.44390  0.54340  0.65040  Biso   1.000  O
  O15      1.0000 0.20190  0.45540  0.68400  Biso   1.000  O
  O16      1.0000 0.66330  0.27360  0.22880  Biso   1.000  O
  O17      1.0000 0.17440  0.51620  0.28440  Biso   1.000  O
  O18      1.0000 0.46450  0.47170  0.20000  Biso   1.000  O
  O19      1.0000 0.78600  0.04110  0.17480  Biso   1.000  O
  O20      1.0000 0.64540  0.85640  0.14460  Biso   1.000  O
  O21      1.0000 0.57780  0.01130  0.29600  Biso   1.000  O
  O22      1.0000 0.44280  0.19670  0.32760  Biso   1.000  O
  O23      1.0000 0.94390  0.10700  0.65040  Biso   1.000  O
  O24      1.0000 0.70190  0.22860  0.68400  Biso   1.000  O
  O25      1.0000 0.16330  0.95520  0.22880  Biso   1.000  O
  O26      1.0000 0.67440  0.76820  0.28440  Biso   1.000  O
  O27      1.0000 0.96450  0.72830  0.20000  Biso   1.000  O
  O28      1.0000 0.71400  0.86630  0.82520  Biso   1.000  O
  O29      1.0000 0.85460  0.71180  0.85540  Biso   1.000  O
  O30      1.0000 0.92220  0.71530  0.70400  Biso   1.000  O
  O31      1.0000 0.05720  0.86910  0.67240  Biso   1.000  O
  O32      1.0000 0.55610  0.45660  0.34960  Biso   1.000  O
  O33      1.0000 0.79810  0.54460  0.31600  Biso   1.000  O
  O34      1.0000 0.33670  0.72640  0.77120  Biso   1.000  O
  O35      1.0000 0.82560  0.48380  0.71560  Biso   1.000  O
  O36      1.0000 0.53550  0.52830  0.80000  Biso   1.000  O
