data_NERNON_charged
_audit_creation_date              2014-07-02
_audit_creation_method            'Materials Studio'
_symmetry_space_group_name_H-M    'P1'
_symmetry_Int_Tables_number       1
_symmetry_cell_setting            triclinic
loop_
_symmetry_equiv_pos_as_xyz
  x,y,z
_cell_length_a                    15.1690
_cell_length_b                    19.0670
_cell_length_c                    24.3030
_cell_angle_alpha                 90.0000
_cell_angle_beta                  92.6570
_cell_angle_gamma                 90.0000
loop_
_atom_site_label
_atom_site_type_symbol
_atom_site_fract_x
_atom_site_fract_y
_atom_site_fract_z
_atom_site_U_iso_or_equiv
_atom_site_adp_type
_atom_site_occupancy
Yb1    Yb    0.78518   0.52518   0.06471   0.01267  Uiso   1.00
Yb2    Yb    0.28518   0.97482   0.56471   0.01267  Uiso   1.00
Ni1    Ni    0.76757   0.48739   0.56339   0.01267  Uiso   1.00
Ni2    Ni    0.26757   0.01261   0.06339   0.01267  Uiso   1.00
H1     H     0.81960   0.39480   0.66470   0.01267  Uiso   1.00
H2     H     0.84080   0.40000   0.75810   0.01267  Uiso   1.00
H3     H     0.77310   0.60410   0.75020   0.01267  Uiso   1.00
H4     H     0.74910   0.59150   0.65730   0.01267  Uiso   1.00
H5     H     0.94740   0.47380   0.82880   0.01267  Uiso   1.00
H6     H     0.96970   0.48610   0.92120   0.01267  Uiso   1.00
H7     H     0.72360   0.56250   0.92900   0.01267  Uiso   1.00
H8     H     0.70230   0.54720   0.83730   0.01267  Uiso   1.00
H9     H     0.44780   0.95910   0.10340   0.01267  Uiso   1.00
H10    H     0.54010   0.86500   0.09640   0.01267  Uiso   1.00
H11    H     0.35430   0.76980   0.00030   0.01267  Uiso   1.00
H12    H     0.26450   0.86670   0.01140   0.01267  Uiso   1.00
H13    H     0.54930   0.73730   0.11890   0.01267  Uiso   1.00
H14    H     0.63460   0.64190   0.11030   0.01267  Uiso   1.00
H15    H     0.56660   0.63760   0.94810   0.01267  Uiso   1.00
H16    H     0.47590   0.73040   0.95970   0.01267  Uiso   1.00
H17    H     0.88160   0.48560   0.46540   0.01267  Uiso   1.00
H18    H     0.87480   0.49790   0.37120   0.01267  Uiso   1.00
H19    H     0.61000   0.49690   0.37510   0.01267  Uiso   1.00
H20    H     0.62420   0.48320   0.46930   0.01267  Uiso   1.00
H21    H     0.63190   0.58090   0.30070   0.01267  Uiso   1.00
H22    H     0.61340   0.58690   0.20800   0.01267  Uiso   1.00
H23    H     0.80520   0.44440   0.19420   0.01267  Uiso   1.00
H24    H     0.81360   0.43310   0.28690   0.01267  Uiso   1.00
H25    H     0.24960   0.16080   0.01620   0.01267  Uiso   1.00
H26    H     0.16330   0.25960   0.02120   0.01267  Uiso   1.00
H27    H     0.02490   0.16180   0.13580   0.01267  Uiso   1.00
H28    H     0.10800   0.06260   0.12170   0.01267  Uiso   1.00
H29    H     0.02700   0.31100   0.00890   0.01267  Uiso   1.00
H30    H     0.94520   0.40840   0.01860   0.01267  Uiso   1.00
H31    H     0.96760   0.38380   0.18330   0.01267  Uiso   1.00
H32    H     0.04990   0.28630   0.17090   0.01267  Uiso   1.00
H33    H     0.31960   0.10520   0.16470   0.01267  Uiso   1.00
H34    H     0.34080   0.10000   0.25810   0.01267  Uiso   1.00
H35    H     0.27310   0.89590   0.25020   0.01267  Uiso   1.00
H36    H     0.24910   0.90850   0.15730   0.01267  Uiso   1.00
H37    H     0.44740   0.02620   0.32880   0.01267  Uiso   1.00
H38    H     0.46970   0.01390   0.42120   0.01267  Uiso   1.00
H39    H     0.22360   0.93750   0.42900   0.01267  Uiso   1.00
H40    H     0.20230   0.95280   0.33730   0.01267  Uiso   1.00
H41    H     0.94780   0.54090   0.60340   0.01267  Uiso   1.00
H42    H     0.04010   0.63500   0.59640   0.01267  Uiso   1.00
H43    H     0.85430   0.73020   0.50030   0.01267  Uiso   1.00
H44    H     0.76450   0.63330   0.51140   0.01267  Uiso   1.00
H45    H     0.04930   0.76270   0.61890   0.01267  Uiso   1.00
H46    H     0.13460   0.85810   0.61030   0.01267  Uiso   1.00
H47    H     0.06660   0.86240   0.44810   0.01267  Uiso   1.00
H48    H     0.97590   0.76960   0.45970   0.01267  Uiso   1.00
H49    H     0.38160   0.01440   0.96540   0.01267  Uiso   1.00
H50    H     0.37480   0.00210   0.87120   0.01267  Uiso   1.00
H51    H     0.11000   0.00310   0.87510   0.01267  Uiso   1.00
H52    H     0.12420   0.01680   0.96930   0.01267  Uiso   1.00
H53    H     0.13190   0.91910   0.80070   0.01267  Uiso   1.00
H54    H     0.11340   0.91310   0.70800   0.01267  Uiso   1.00
H55    H     0.30520   0.05560   0.69420   0.01267  Uiso   1.00
H56    H     0.31360   0.06690   0.78690   0.01267  Uiso   1.00
H57    H     0.74960   0.33920   0.51620   0.01267  Uiso   1.00
H58    H     0.66330   0.24040   0.52120   0.01267  Uiso   1.00
H59    H     0.52490   0.33820   0.63580   0.01267  Uiso   1.00
H60    H     0.60800   0.43740   0.62170   0.01267  Uiso   1.00
H61    H     0.52700   0.18900   0.50890   0.01267  Uiso   1.00
H62    H     0.44520   0.09160   0.51860   0.01267  Uiso   1.00
H63    H     0.46760   0.11620   0.68330   0.01267  Uiso   1.00
H64    H     0.54990   0.21370   0.67090   0.01267  Uiso   1.00
C1     C     0.80950   0.43770   0.68240   0.01267  Uiso   1.00
C2     C     0.82250   0.43990   0.73800   0.01267  Uiso   1.00
C3     C     0.80810   0.50320   0.76410   0.01267  Uiso   1.00
C4     C     0.78190   0.56040   0.73340   0.01267  Uiso   1.00
C5     C     0.76910   0.55250   0.67800   0.01267  Uiso   1.00
C6     C     0.90160   0.49160   0.84950   0.01267  Uiso   1.00
C7     C     0.91530   0.50000   0.90460   0.01267  Uiso   1.00
C8     C     0.85110   0.52880   0.93810   0.01267  Uiso   1.00
C9     C     0.77030   0.54460   0.90910   0.01267  Uiso   1.00
C10    C     0.75710   0.53520   0.85440   0.01267  Uiso   1.00
C11    C     0.42850   0.92010   0.08250   0.01267  Uiso   1.00
C12    C     0.48400   0.86450   0.07830   0.01267  Uiso   1.00
C13    C     0.45700   0.80800   0.04730   0.01267  Uiso   1.00
C14    C     0.37440   0.80820   0.02180   0.01267  Uiso   1.00
C15    C     0.32140   0.86620   0.02840   0.01267  Uiso   1.00
C16    C     0.55420   0.71680   0.08400   0.01267  Uiso   1.00
C17    C     0.60480   0.66060   0.07880   0.01267  Uiso   1.00
C18    C     0.61500   0.62800   0.02680   0.01267  Uiso   1.00
C19    C     0.56390   0.65770   0.98330   0.01267  Uiso   1.00
C20    C     0.51120   0.71340   0.98970   0.01267  Uiso   1.00
C21    C     0.82620   0.48910   0.44670   0.01267  Uiso   1.00
C22    C     0.82290   0.49690   0.39090   0.01267  Uiso   1.00
C23    C     0.74070   0.50320   0.36420   0.01267  Uiso   1.00
C24    C     0.66620   0.49610   0.39320   0.01267  Uiso   1.00
C25    C     0.67520   0.48780   0.44900   0.01267  Uiso   1.00
C26    C     0.66690   0.55250   0.27880   0.01267  Uiso   1.00
C27    C     0.65660   0.55650   0.22340   0.01267  Uiso   1.00
C28    C     0.70790   0.51710   0.18750   0.01267  Uiso   1.00
C29    C     0.76800   0.47200   0.21520   0.01267  Uiso   1.00
C30    C     0.77490   0.46650   0.27080   0.01267  Uiso   1.00
C31    C     0.20240   0.16070   0.04000   0.01267  Uiso   1.00
C32    C     0.15250   0.22020   0.04320   0.01267  Uiso   1.00
C33    C     0.08570   0.22050   0.07990   0.01267  Uiso   1.00
C34    C     0.06950   0.16210   0.11030   0.01267  Uiso   1.00
C35    C     0.12070   0.10380   0.10240   0.01267  Uiso   1.00
C36    C     0.01470   0.32660   0.04440   0.01267  Uiso   1.00
C37    C     0.96530   0.38380   0.05030   0.01267  Uiso   1.00
C38    C     0.94200   0.40870   0.10260   0.01267  Uiso   1.00
C39    C     0.97850   0.36940   0.14720   0.01267  Uiso   1.00
C40    C     0.02850   0.31170   0.13990   0.01267  Uiso   1.00
C41    C     0.59940   0.58550   0.55840   0.01267  Uiso   1.00
C42    C     0.93950   0.39520   0.57920   0.01267  Uiso   1.00
C43    C     0.30950   0.06230   0.18240   0.01267  Uiso   1.00
C44    C     0.32250   0.06010   0.23800   0.01267  Uiso   1.00
C45    C     0.30810   0.99680   0.26410   0.01267  Uiso   1.00
C46    C     0.28190   0.93960   0.23340   0.01267  Uiso   1.00
C47    C     0.26910   0.94750   0.17800   0.01267  Uiso   1.00
C48    C     0.40160   0.00840   0.34950   0.01267  Uiso   1.00
C49    C     0.41530   0.00000   0.40460   0.01267  Uiso   1.00
C50    C     0.35110   0.97120   0.43810   0.01267  Uiso   1.00
C51    C     0.27030   0.95540   0.40910   0.01267  Uiso   1.00
C52    C     0.25710   0.96480   0.35440   0.01267  Uiso   1.00
C53    C     0.92850   0.57990   0.58250   0.01267  Uiso   1.00
C54    C     0.98400   0.63550   0.57830   0.01267  Uiso   1.00
C55    C     0.95700   0.69200   0.54730   0.01267  Uiso   1.00
C56    C     0.87440   0.69180   0.52180   0.01267  Uiso   1.00
C57    C     0.82140   0.63380   0.52840   0.01267  Uiso   1.00
C58    C     0.05420   0.78320   0.58400   0.01267  Uiso   1.00
C59    C     0.10480   0.83940   0.57880   0.01267  Uiso   1.00
C60    C     0.11500   0.87200   0.52680   0.01267  Uiso   1.00
C61    C     0.06390   0.84230   0.48330   0.01267  Uiso   1.00
C62    C     0.01120   0.78660   0.48970   0.01267  Uiso   1.00
C63    C     0.32620   0.01090   0.94670   0.01267  Uiso   1.00
C64    C     0.32290   0.00310   0.89090   0.01267  Uiso   1.00
C65    C     0.24070   0.99680   0.86420   0.01267  Uiso   1.00
C66    C     0.16620   0.00390   0.89320   0.01267  Uiso   1.00
C67    C     0.17520   0.01220   0.94900   0.01267  Uiso   1.00
C68    C     0.16690   0.94750   0.77880   0.01267  Uiso   1.00
C69    C     0.15660   0.94350   0.72340   0.01267  Uiso   1.00
C70    C     0.20790   0.98290   0.68750   0.01267  Uiso   1.00
C71    C     0.26800   0.02800   0.71520   0.01267  Uiso   1.00
C72    C     0.27490   0.03350   0.77080   0.01267  Uiso   1.00
C73    C     0.70240   0.33930   0.54000   0.01267  Uiso   1.00
C74    C     0.65250   0.27980   0.54320   0.01267  Uiso   1.00
C75    C     0.58570   0.27950   0.57990   0.01267  Uiso   1.00
C76    C     0.56950   0.33790   0.61030   0.01267  Uiso   1.00
C77    C     0.62070   0.39620   0.60240   0.01267  Uiso   1.00
C78    C     0.51470   0.17340   0.54440   0.01267  Uiso   1.00
C79    C     0.46530   0.11620   0.55030   0.01267  Uiso   1.00
C80    C     0.44200   0.09130   0.60260   0.01267  Uiso   1.00
C81    C     0.47850   0.13060   0.64720   0.01267  Uiso   1.00
C82    C     0.52850   0.18830   0.63990   0.01267  Uiso   1.00
C83    C     0.09940   0.91450   0.05840   0.01267  Uiso   1.00
C84    C     0.43950   0.10480   0.07920   0.01267  Uiso   1.00
S1     S     0.51310   0.63790   0.55010   0.01267  Uiso   1.00
S2     S     0.02580   0.35610   0.60800   0.01267  Uiso   1.00
S3     S     0.01310   0.86210   0.05010   0.01267  Uiso   1.00
S4     S     0.52580   0.14390   0.10800   0.01267  Uiso   1.00
N1     N     0.78320   0.49240   0.65100   0.01267  Uiso   1.00
N2     N     0.82230   0.50850   0.82330   0.01267  Uiso   1.00
N3     N     0.34820   0.92160   0.05820   0.01267  Uiso   1.00
N4     N     0.50930   0.74540   0.03990   0.01267  Uiso   1.00
N5     N     0.75390   0.48610   0.47580   0.01267  Uiso   1.00
N6     N     0.72730   0.50780   0.30390   0.01267  Uiso   1.00
N7     N     0.18800   0.10300   0.06850   0.01267  Uiso   1.00
N8     N     0.04810   0.29010   0.08970   0.01267  Uiso   1.00
N9     N     0.65960   0.54990   0.56550   0.01267  Uiso   1.00
N10    N     0.87860   0.42350   0.56170   0.01267  Uiso   1.00
N11    N     0.68790   0.40270   0.04530   0.01267  Uiso   1.00
N12    N     0.88750   0.64950   0.08260   0.01267  Uiso   1.00
N13    N     0.28320   0.00760   0.15100   0.01267  Uiso   1.00
N14    N     0.32230   0.99150   0.32330   0.01267  Uiso   1.00
N15    N     0.84820   0.57840   0.55820   0.01267  Uiso   1.00
N16    N     0.00930   0.75460   0.53990   0.01267  Uiso   1.00
N17    N     0.25390   0.01390   0.97580   0.01267  Uiso   1.00
N18    N     0.22730   0.99220   0.80390   0.01267  Uiso   1.00
N19    N     0.68800   0.39700   0.56850   0.01267  Uiso   1.00
N20    N     0.54810   0.20990   0.58970   0.01267  Uiso   1.00
N21    N     0.15960   0.95010   0.06550   0.01267  Uiso   1.00
N22    N     0.37860   0.07650   0.06170   0.01267  Uiso   1.00
N23    N     0.18790   0.09730   0.54530   0.01267  Uiso   1.00
N24    N     0.38750   0.85050   0.58260   0.01267  Uiso   1.00
O1     O     0.86330   0.53630   0.99010   0.01267  Uiso   1.00
O2     O     0.66340   0.57410   0.02220   0.01267  Uiso   1.00
O3     O     0.69850   0.52160   0.13440   0.01267  Uiso   1.00
O4     O     0.89390   0.46190   0.10820   0.01267  Uiso   1.00
O5     O     0.67570   0.43790   0.08740   0.01267  Uiso   1.00
O6     O     0.73450   0.42810   0.00860   0.01267  Uiso   1.00
O7     O     0.64820   0.34670   0.03740   0.01267  Uiso   1.00
O8     O     0.91010   0.59110   0.10310   0.01267  Uiso   1.00
O9     O     0.81260   0.65190   0.05800   0.01267  Uiso   1.00
O10    O     0.93310   0.70190   0.08820   0.01267  Uiso   1.00
O11    O     0.36330   0.96370   0.49010   0.01267  Uiso   1.00
O12    O     0.16340   0.92590   0.52220   0.01267  Uiso   1.00
O13    O     0.19850   0.97840   0.63440   0.01267  Uiso   1.00
O14    O     0.39390   0.03810   0.60820   0.01267  Uiso   1.00
O15    O     0.17570   0.06210   0.58740   0.01267  Uiso   1.00
O16    O     0.23450   0.07190   0.50860   0.01267  Uiso   1.00
O17    O     0.14820   0.15330   0.53740   0.01267  Uiso   1.00
O18    O     0.41010   0.90890   0.60310   0.01267  Uiso   1.00
O19    O     0.31260   0.84810   0.55800   0.01267  Uiso   1.00
O20    O     0.43310   0.79810   0.58820   0.01267  Uiso   1.00
Yb3    Yb    0.71482   0.02518   0.43529   0.01267  Uiso   1.00
Yb4    Yb    0.21482   0.47482   0.93529   0.01267  Uiso   1.00
Ni3    Ni    0.73243   0.98739   0.93661   0.01267  Uiso   1.00
Ni4    Ni    0.23243   0.51261   0.43661   0.01267  Uiso   1.00
H65    H     0.68040   0.89480   0.83530   0.01267  Uiso   1.00
H66    H     0.65920   0.90000   0.74190   0.01267  Uiso   1.00
H67    H     0.72690   0.10410   0.74980   0.01267  Uiso   1.00
H68    H     0.75090   0.09150   0.84270   0.01267  Uiso   1.00
H69    H     0.55260   0.97380   0.67120   0.01267  Uiso   1.00
H70    H     0.53030   0.98610   0.57880   0.01267  Uiso   1.00
H71    H     0.77640   0.06250   0.57100   0.01267  Uiso   1.00
H72    H     0.79770   0.04720   0.66270   0.01267  Uiso   1.00
H73    H     0.05220   0.45910   0.39660   0.01267  Uiso   1.00
H74    H     0.95990   0.36500   0.40360   0.01267  Uiso   1.00
H75    H     0.14570   0.26980   0.49970   0.01267  Uiso   1.00
H76    H     0.23550   0.36670   0.48860   0.01267  Uiso   1.00
H77    H     0.95070   0.23730   0.38110   0.01267  Uiso   1.00
H78    H     0.86540   0.14190   0.38970   0.01267  Uiso   1.00
H79    H     0.93340   0.13760   0.55190   0.01267  Uiso   1.00
H80    H     0.02410   0.23040   0.54030   0.01267  Uiso   1.00
H81    H     0.61840   0.98560   0.03460   0.01267  Uiso   1.00
H82    H     0.62520   0.99790   0.12880   0.01267  Uiso   1.00
H83    H     0.89000   0.99690   0.12490   0.01267  Uiso   1.00
H84    H     0.87580   0.98320   0.03070   0.01267  Uiso   1.00
H85    H     0.86810   0.08090   0.19930   0.01267  Uiso   1.00
H86    H     0.88660   0.08690   0.29200   0.01267  Uiso   1.00
H87    H     0.69480   0.94440   0.30580   0.01267  Uiso   1.00
H88    H     0.68640   0.93310   0.21310   0.01267  Uiso   1.00
H89    H     0.25040   0.66080   0.48380   0.01267  Uiso   1.00
H90    H     0.33670   0.75960   0.47880   0.01267  Uiso   1.00
H91    H     0.47510   0.66180   0.36420   0.01267  Uiso   1.00
H92    H     0.39200   0.56260   0.37830   0.01267  Uiso   1.00
H93    H     0.47300   0.81100   0.49110   0.01267  Uiso   1.00
H94    H     0.55480   0.90840   0.48140   0.01267  Uiso   1.00
H95    H     0.53240   0.88380   0.31670   0.01267  Uiso   1.00
H96    H     0.45010   0.78630   0.32910   0.01267  Uiso   1.00
H97    H     0.18040   0.60520   0.33530   0.01267  Uiso   1.00
H98    H     0.15920   0.60000   0.24190   0.01267  Uiso   1.00
H99    H     0.22690   0.39590   0.24980   0.01267  Uiso   1.00
H100   H     0.25090   0.40850   0.34270   0.01267  Uiso   1.00
H101   H     0.05260   0.52620   0.17120   0.01267  Uiso   1.00
H102   H     0.03030   0.51390   0.07880   0.01267  Uiso   1.00
H103   H     0.27640   0.43750   0.07100   0.01267  Uiso   1.00
H104   H     0.29770   0.45280   0.16270   0.01267  Uiso   1.00
H105   H     0.55220   0.04090   0.89660   0.01267  Uiso   1.00
H106   H     0.45990   0.13500   0.90360   0.01267  Uiso   1.00
H107   H     0.64570   0.23020   0.99970   0.01267  Uiso   1.00
H108   H     0.73550   0.13330   0.98860   0.01267  Uiso   1.00
H109   H     0.45070   0.26270   0.88110   0.01267  Uiso   1.00
H110   H     0.36540   0.35810   0.88970   0.01267  Uiso   1.00
H111   H     0.43340   0.36240   0.05190   0.01267  Uiso   1.00
H112   H     0.52410   0.26960   0.04030   0.01267  Uiso   1.00
H113   H     0.11840   0.51440   0.53460   0.01267  Uiso   1.00
H114   H     0.12520   0.50210   0.62880   0.01267  Uiso   1.00
H115   H     0.39000   0.50310   0.62490   0.01267  Uiso   1.00
H116   H     0.37580   0.51680   0.53070   0.01267  Uiso   1.00
H117   H     0.36810   0.41910   0.69930   0.01267  Uiso   1.00
H118   H     0.38660   0.41310   0.79200   0.01267  Uiso   1.00
H119   H     0.19480   0.55560   0.80580   0.01267  Uiso   1.00
H120   H     0.18640   0.56690   0.71310   0.01267  Uiso   1.00
H121   H     0.75040   0.83920   0.98380   0.01267  Uiso   1.00
H122   H     0.83670   0.74040   0.97880   0.01267  Uiso   1.00
H123   H     0.97510   0.83820   0.86420   0.01267  Uiso   1.00
H124   H     0.89200   0.93740   0.87830   0.01267  Uiso   1.00
H125   H     0.97300   0.68900   0.99110   0.01267  Uiso   1.00
H126   H     0.05480   0.59160   0.98140   0.01267  Uiso   1.00
H127   H     0.03240   0.61620   0.81670   0.01267  Uiso   1.00
H128   H     0.95010   0.71370   0.82910   0.01267  Uiso   1.00
C85    C     0.69050   0.93770   0.81760   0.01267  Uiso   1.00
C86    C     0.67750   0.93990   0.76200   0.01267  Uiso   1.00
C87    C     0.69190   0.00320   0.73590   0.01267  Uiso   1.00
C88    C     0.71810   0.06040   0.76660   0.01267  Uiso   1.00
C89    C     0.73090   0.05250   0.82200   0.01267  Uiso   1.00
C90    C     0.59840   0.99160   0.65050   0.01267  Uiso   1.00
C91    C     0.58470   0.00000   0.59540   0.01267  Uiso   1.00
C92    C     0.64890   0.02880   0.56190   0.01267  Uiso   1.00
C93    C     0.72970   0.04460   0.59090   0.01267  Uiso   1.00
C94    C     0.74290   0.03520   0.64560   0.01267  Uiso   1.00
C95    C     0.07150   0.42010   0.41750   0.01267  Uiso   1.00
C96    C     0.01600   0.36450   0.42170   0.01267  Uiso   1.00
C97    C     0.04300   0.30800   0.45270   0.01267  Uiso   1.00
C98    C     0.12560   0.30820   0.47820   0.01267  Uiso   1.00
C99    C     0.17860   0.36620   0.47160   0.01267  Uiso   1.00
C100   C     0.94580   0.21680   0.41600   0.01267  Uiso   1.00
C101   C     0.89520   0.16060   0.42120   0.01267  Uiso   1.00
C102   C     0.88500   0.12800   0.47320   0.01267  Uiso   1.00
C103   C     0.93610   0.15770   0.51670   0.01267  Uiso   1.00
C104   C     0.98880   0.21340   0.51030   0.01267  Uiso   1.00
C105   C     0.67380   0.98910   0.05330   0.01267  Uiso   1.00
C106   C     0.67710   0.99690   0.10910   0.01267  Uiso   1.00
C107   C     0.75930   0.00320   0.13580   0.01267  Uiso   1.00
C108   C     0.83380   0.99610   0.10680   0.01267  Uiso   1.00
C109   C     0.82480   0.98780   0.05100   0.01267  Uiso   1.00
C110   C     0.83310   0.05250   0.22120   0.01267  Uiso   1.00
C111   C     0.84340   0.05650   0.27660   0.01267  Uiso   1.00
C112   C     0.79210   0.01710   0.31250   0.01267  Uiso   1.00
C113   C     0.73200   0.97200   0.28480   0.01267  Uiso   1.00
C114   C     0.72510   0.96650   0.22920   0.01267  Uiso   1.00
C115   C     0.29760   0.66070   0.46000   0.01267  Uiso   1.00
C116   C     0.34750   0.72020   0.45680   0.01267  Uiso   1.00
C117   C     0.41430   0.72050   0.42010   0.01267  Uiso   1.00
C118   C     0.43050   0.66210   0.38970   0.01267  Uiso   1.00
C119   C     0.37930   0.60380   0.39760   0.01267  Uiso   1.00
C120   C     0.48530   0.82660   0.45560   0.01267  Uiso   1.00
C121   C     0.53470   0.88380   0.44970   0.01267  Uiso   1.00
C122   C     0.55800   0.90870   0.39740   0.01267  Uiso   1.00
C123   C     0.52150   0.86940   0.35280   0.01267  Uiso   1.00
C124   C     0.47150   0.81170   0.36010   0.01267  Uiso   1.00
C125   C     0.90060   0.08550   0.94160   0.01267  Uiso   1.00
C126   C     0.56050   0.89520   0.92080   0.01267  Uiso   1.00
C127   C     0.19050   0.56230   0.31760   0.01267  Uiso   1.00
C128   C     0.17750   0.56010   0.26200   0.01267  Uiso   1.00
C129   C     0.19190   0.49680   0.23590   0.01267  Uiso   1.00
C130   C     0.21810   0.43960   0.26660   0.01267  Uiso   1.00
C131   C     0.23090   0.44750   0.32200   0.01267  Uiso   1.00
C132   C     0.09840   0.50840   0.15050   0.01267  Uiso   1.00
C133   C     0.08470   0.50000   0.09540   0.01267  Uiso   1.00
C134   C     0.14890   0.47120   0.06190   0.01267  Uiso   1.00
C135   C     0.22970   0.45540   0.09090   0.01267  Uiso   1.00
C136   C     0.24290   0.46480   0.14560   0.01267  Uiso   1.00
C137   C     0.57150   0.07990   0.91750   0.01267  Uiso   1.00
C138   C     0.51600   0.13550   0.92170   0.01267  Uiso   1.00
C139   C     0.54300   0.19200   0.95270   0.01267  Uiso   1.00
C140   C     0.62560   0.19180   0.97820   0.01267  Uiso   1.00
C141   C     0.67860   0.13380   0.97160   0.01267  Uiso   1.00
C142   C     0.44580   0.28320   0.91600   0.01267  Uiso   1.00
C143   C     0.39520   0.33940   0.92120   0.01267  Uiso   1.00
C144   C     0.38500   0.37200   0.97320   0.01267  Uiso   1.00
C145   C     0.43610   0.34230   0.01670   0.01267  Uiso   1.00
C146   C     0.48880   0.28660   0.01030   0.01267  Uiso   1.00
C147   C     0.17380   0.51090   0.55330   0.01267  Uiso   1.00
C148   C     0.17710   0.50310   0.60910   0.01267  Uiso   1.00
C149   C     0.25930   0.49680   0.63580   0.01267  Uiso   1.00
C150   C     0.33380   0.50390   0.60680   0.01267  Uiso   1.00
C151   C     0.32480   0.51220   0.55100   0.01267  Uiso   1.00
C152   C     0.33310   0.44750   0.72120   0.01267  Uiso   1.00
C153   C     0.34340   0.44350   0.77660   0.01267  Uiso   1.00
C154   C     0.29210   0.48290   0.81250   0.01267  Uiso   1.00
C155   C     0.23200   0.52800   0.78480   0.01267  Uiso   1.00
C156   C     0.22510   0.53350   0.72920   0.01267  Uiso   1.00
C157   C     0.79760   0.83930   0.96000   0.01267  Uiso   1.00
C158   C     0.84750   0.77980   0.95680   0.01267  Uiso   1.00
C159   C     0.91430   0.77950   0.92010   0.01267  Uiso   1.00
C160   C     0.93050   0.83790   0.88970   0.01267  Uiso   1.00
C161   C     0.87930   0.89620   0.89760   0.01267  Uiso   1.00
C162   C     0.98530   0.67340   0.95560   0.01267  Uiso   1.00
C163   C     0.03470   0.61620   0.94970   0.01267  Uiso   1.00
C164   C     0.05800   0.59130   0.89740   0.01267  Uiso   1.00
C165   C     0.02150   0.63060   0.85280   0.01267  Uiso   1.00
C166   C     0.97150   0.68830   0.86010   0.01267  Uiso   1.00
C167   C     0.40060   0.41450   0.44160   0.01267  Uiso   1.00
C168   C     0.06050   0.60480   0.42080   0.01267  Uiso   1.00
S5     S     0.98690   0.13790   0.94990   0.01267  Uiso   1.00
S6     S     0.47420   0.85610   0.89200   0.01267  Uiso   1.00
S7     S     0.48690   0.36210   0.44990   0.01267  Uiso   1.00
S8     S     0.97420   0.64390   0.39200   0.01267  Uiso   1.00
N25    N     0.71680   0.99240   0.84900   0.01267  Uiso   1.00
N26    N     0.67770   0.00850   0.67670   0.01267  Uiso   1.00
N27    N     0.15180   0.42160   0.44180   0.01267  Uiso   1.00
N28    N     0.99070   0.24540   0.46010   0.01267  Uiso   1.00
N29    N     0.74610   0.98610   0.02420   0.01267  Uiso   1.00
N30    N     0.77270   0.00780   0.19610   0.01267  Uiso   1.00
N31    N     0.31200   0.60300   0.43150   0.01267  Uiso   1.00
N32    N     0.45190   0.79010   0.41030   0.01267  Uiso   1.00
N33    N     0.84040   0.04990   0.93450   0.01267  Uiso   1.00
N34    N     0.62140   0.92350   0.93830   0.01267  Uiso   1.00
N35    N     0.81210   0.90270   0.45470   0.01267  Uiso   1.00
N36    N     0.61250   0.14950   0.41740   0.01267  Uiso   1.00
N37    N     0.21680   0.50760   0.34900   0.01267  Uiso   1.00
N38    N     0.17770   0.49150   0.17670   0.01267  Uiso   1.00
N39    N     0.65180   0.07840   0.94180   0.01267  Uiso   1.00
N40    N     0.49070   0.25460   0.96010   0.01267  Uiso   1.00
N41    N     0.24610   0.51390   0.52420   0.01267  Uiso   1.00
N42    N     0.27270   0.49220   0.69610   0.01267  Uiso   1.00
N43    N     0.81200   0.89700   0.93150   0.01267  Uiso   1.00
N44    N     0.95190   0.70990   0.91030   0.01267  Uiso   1.00
N45    N     0.34040   0.45010   0.43450   0.01267  Uiso   1.00
N46    N     0.12140   0.57650   0.43830   0.01267  Uiso   1.00
N47    N     0.31210   0.59730   0.95470   0.01267  Uiso   1.00
N48    N     0.11250   0.35050   0.91740   0.01267  Uiso   1.00
O21    O     0.63670   0.03630   0.50990   0.01267  Uiso   1.00
O22    O     0.83660   0.07410   0.47780   0.01267  Uiso   1.00
O23    O     0.80150   0.02160   0.36560   0.01267  Uiso   1.00
O24    O     0.60610   0.96190   0.39180   0.01267  Uiso   1.00
O25    O     0.82430   0.93790   0.41260   0.01267  Uiso   1.00
O26    O     0.76550   0.92810   0.49140   0.01267  Uiso   1.00
O27    O     0.85180   0.84670   0.46260   0.01267  Uiso   1.00
O28    O     0.58990   0.09110   0.39690   0.01267  Uiso   1.00
O29    O     0.68740   0.15190   0.44200   0.01267  Uiso   1.00
O30    O     0.56690   0.20190   0.41180   0.01267  Uiso   1.00
O31    O     0.13670   0.46370   0.00990   0.01267  Uiso   1.00
O32    O     0.33660   0.42590   0.97780   0.01267  Uiso   1.00
O33    O     0.30150   0.47840   0.86560   0.01267  Uiso   1.00
O34    O     0.10610   0.53810   0.89180   0.01267  Uiso   1.00
O35    O     0.32430   0.56210   0.91260   0.01267  Uiso   1.00
O36    O     0.26550   0.57190   0.99140   0.01267  Uiso   1.00
O37    O     0.35180   0.65330   0.96260   0.01267  Uiso   1.00
O38    O     0.08990   0.40890   0.89690   0.01267  Uiso   1.00
O39    O     0.18740   0.34810   0.94200   0.01267  Uiso   1.00
O40    O     0.06690   0.29810   0.91180   0.01267  Uiso   1.00
N49    N     0.49980   0.17370   0.78140   0.01267  Uiso   1.00
O41    O     0.48560   0.10930   0.78310   0.01267  Uiso   1.00
O42    O     0.43460   0.21530   0.77890   0.01267  Uiso   1.00
O43    O     0.57590   0.19740   0.78150   0.01267  Uiso   1.00
N50    N     0.00020   0.67370   0.71860   0.01267  Uiso   1.00
O44    O     0.01440   0.60930   0.71690   0.01267  Uiso   1.00
O45    O     0.06540   0.71530   0.72110   0.01267  Uiso   1.00
O46    O     0.92410   0.69740   0.71850   0.01267  Uiso   1.00
N51    N     0.50020   0.82630   0.21860   0.01267  Uiso   1.00
O47    O     0.51440   0.89070   0.21690   0.01267  Uiso   1.00
O48    O     0.56540   0.78470   0.22110   0.01267  Uiso   1.00
O49    O     0.42410   0.80260   0.21850   0.01267  Uiso   1.00
N52    N     0.99980   0.32630   0.28140   0.01267  Uiso   1.00
O50    O     0.98560   0.39070   0.28310   0.01267  Uiso   1.00
O51    O     0.93460   0.28470   0.27890   0.01267  Uiso   1.00
O52    O     0.07590   0.30260   0.28150   0.01267  Uiso   1.00
