data_image0
_cell_length_a       10.5407
_cell_length_b       11.8266
_cell_length_c       14.1122
_cell_angle_alpha    106.878
_cell_angle_beta     102.411
_cell_angle_gamma    111.011

_symmetry_space_group_name_H-M    P 1
_symmetry_int_tables_number       1

loop_
  _symmetry_equiv_pos_as_xyz
  'x, y, z'

loop_
  _atom_site_label
  _atom_site_occupancy
  _atom_site_fract_x
  _atom_site_fract_y
  _atom_site_fract_z
  _atom_site_thermal_displace_type
  _atom_site_B_iso_or_equiv
  _atom_site_type_symbol
  Co1      1.0000 0.80670  0.50859  0.78733  Biso   1.000  Co
  Co2      1.0000 0.54880  0.76918  0.30993  Biso   1.000  Co
  Co3      1.0000 0.19330  0.49141  0.21267  Biso   1.000  Co
  Co4      1.0000 0.45120  0.23082  0.69007  Biso   1.000  Co
  H1       1.0000 0.87800  0.82210  0.38570  Biso   1.000  H
  H2       1.0000 0.05460  0.80620  0.31950  Biso   1.000  H
  H3       1.0000 0.00250  0.72930  0.13770  Biso   1.000  H
  H4       1.0000 0.59340  0.66730  0.10080  Biso   1.000  H
  H5       1.0000 0.73260  0.99400  0.25010  Biso   1.000  H
  H6       1.0000 0.84640  0.22040  0.31310  Biso   1.000  H
  H7       1.0000 0.83350  0.34630  0.46680  Biso   1.000  H
  H8       1.0000 0.61540  0.01200  0.49470  Biso   1.000  H
  H9       1.0000 0.97620  0.81000  0.86420  Biso   1.000  H
  H10      1.0000 0.00100  0.97760  0.80750  Biso   1.000  H
  H11      1.0000 0.86020  0.92790  0.63650  Biso   1.000  H
  H12      1.0000 0.69340  0.54630  0.58690  Biso   1.000  H
  H13      1.0000 0.07450  0.54230  0.70900  Biso   1.000  H
  H14      1.0000 0.31760  0.60540  0.77770  Biso   1.000  H
  H15      1.0000 0.43270  0.67980  0.95990  Biso   1.000  H
  H16      1.0000 0.04540  0.60400  0.98790  Biso   1.000  H
  H17      1.0000 0.58140  0.48140  0.78840  Biso   1.000  H
  H18      1.0000 0.52650  0.44830  0.69000  Biso   1.000  H
  H19      1.0000 0.12200  0.17790  0.61430  Biso   1.000  H
  H20      1.0000 0.94540  0.19380  0.68050  Biso   1.000  H
  H21      1.0000 0.99750  0.27070  0.86230  Biso   1.000  H
  H22      1.0000 0.40660  0.33270  0.89920  Biso   1.000  H
  H23      1.0000 0.26740  0.00600  0.74990  Biso   1.000  H
  H24      1.0000 0.15360  0.77960  0.68690  Biso   1.000  H
  H25      1.0000 0.16650  0.65370  0.53320  Biso   1.000  H
  H26      1.0000 0.38460  0.98800  0.50530  Biso   1.000  H
  H27      1.0000 0.02380  0.19000  0.13580  Biso   1.000  H
  H28      1.0000 0.99900  0.02240  0.19250  Biso   1.000  H
  H29      1.0000 0.13980  0.07210  0.36350  Biso   1.000  H
  H30      1.0000 0.30660  0.45370  0.41310  Biso   1.000  H
  H31      1.0000 0.92550  0.45770  0.29100  Biso   1.000  H
  H32      1.0000 0.68240  0.39460  0.22230  Biso   1.000  H
  H33      1.0000 0.56730  0.32020  0.04010  Biso   1.000  H
  H34      1.0000 0.95460  0.39600  0.01210  Biso   1.000  H
  H35      1.0000 0.41860  0.51860  0.21160  Biso   1.000  H
  H36      1.0000 0.47350  0.55170  0.31000  Biso   1.000  H
  C1       1.0000 0.85460  0.78740  0.31260  Biso   1.000  C
  C2       1.0000 0.96200  0.77970  0.27340  Biso   1.000  C
  C3       1.0000 0.93080  0.73260  0.16550  Biso   1.000  C
  C4       1.0000 0.79060  0.69040  0.09940  Biso   1.000  C
  C5       1.0000 0.68840  0.69810  0.14540  Biso   1.000  C
  C6       1.0000 0.74210  0.63380  0.98010  Biso   1.000  C
  C7       1.0000 0.73100  0.04370  0.31400  Biso   1.000  C
  C8       1.0000 0.79730  0.17960  0.35050  Biso   1.000  C
  C9       1.0000 0.79070  0.25450  0.44210  Biso   1.000  C
  C10      1.0000 0.71950  0.19150  0.49680  Biso   1.000  C
  C11      1.0000 0.66060  0.05490  0.45670  Biso   1.000  C
  C12      1.0000 0.69890  0.26580  0.59410  Biso   1.000  C
  C13      1.0000 0.92160  0.78910  0.79490  Biso   1.000  C
  C14      1.0000 0.93620  0.89050  0.76170  Biso   1.000  C
  C15      1.0000 0.85380  0.86100  0.66000  Biso   1.000  C
  C16      1.0000 0.76140  0.73010  0.59350  Biso   1.000  C
  C17      1.0000 0.75480  0.63440  0.63210  Biso   1.000  C
  C18      1.0000 0.66640  0.69040  0.48090  Biso   1.000  C
  C19      1.0000 0.11860  0.56970  0.78160  Biso   1.000  C
  C20      1.0000 0.26450  0.60800  0.82240  Biso   1.000  C
  C21      1.0000 0.33300  0.65090  0.93080  Biso   1.000  C
  C22      1.0000 0.24950  0.64950  0.99430  Biso   1.000  C
  C23      1.0000 0.10220  0.60710  0.94570  Biso   1.000  C
  C24      1.0000 0.30650  0.68180  0.11090  Biso   1.000  C
  C25      1.0000 0.14540  0.21260  0.68740  Biso   1.000  C
  C26      1.0000 0.03800  0.22030  0.72660  Biso   1.000  C
  C27      1.0000 0.06920  0.26740  0.83450  Biso   1.000  C
  C28      1.0000 0.20940  0.30960  0.90060  Biso   1.000  C
  C29      1.0000 0.31160  0.30190  0.85460  Biso   1.000  C
  C30      1.0000 0.25790  0.36620  0.01990  Biso   1.000  C
  C31      1.0000 0.26900  0.95630  0.68600  Biso   1.000  C
  C32      1.0000 0.20270  0.82040  0.64950  Biso   1.000  C
  C33      1.0000 0.20930  0.74550  0.55790  Biso   1.000  C
  C34      1.0000 0.28050  0.80850  0.50320  Biso   1.000  C
  C35      1.0000 0.33940  0.94510  0.54330  Biso   1.000  C
  C36      1.0000 0.30110  0.73420  0.40590  Biso   1.000  C
  C37      1.0000 0.07840  0.21090  0.20510  Biso   1.000  C
  C38      1.0000 0.06380  0.10950  0.23830  Biso   1.000  C
  C39      1.0000 0.14620  0.13900  0.34000  Biso   1.000  C
  C40      1.0000 0.23860  0.26990  0.40650  Biso   1.000  C
  C41      1.0000 0.24520  0.36560  0.36790  Biso   1.000  C
  C42      1.0000 0.33360  0.30960  0.51910  Biso   1.000  C
  C43      1.0000 0.88140  0.43030  0.21840  Biso   1.000  C
  C44      1.0000 0.73550  0.39200  0.17760  Biso   1.000  C
  C45      1.0000 0.66700  0.34910  0.06920  Biso   1.000  C
  C46      1.0000 0.75050  0.35050  0.00570  Biso   1.000  C
  C47      1.0000 0.89780  0.39290  0.05430  Biso   1.000  C
  C48      1.0000 0.69350  0.31820  0.88910  Biso   1.000  C
  N1       1.0000 0.71860  0.74710  0.25007  Biso   1.000  N
  N2       1.0000 0.66480  0.98120  0.36687  Biso   1.000  N
  N3       1.0000 0.83250  0.66240  0.73170  Biso   1.000  N
  N4       1.0000 0.03660  0.57030  0.84250  Biso   1.000  N
  N5       1.0000 0.28140  0.25290  0.74993  Biso   1.000  N
  N6       1.0000 0.33520  0.01880  0.63313  Biso   1.000  N
  N7       1.0000 0.16750  0.33760  0.26830  Biso   1.000  N
  N8       1.0000 0.96340  0.42970  0.15750  Biso   1.000  N
  O1       1.0000 0.83700  0.63530  0.93974  Biso   1.000  O
  O2       1.0000 0.60960  0.58670  0.92987  Biso   1.000  O
  O3       1.0000 0.78270  0.38760  0.64073  Biso   1.000  O
  O4       1.0000 0.60020  0.20010  0.61958  Biso   1.000  O
  O5       1.0000 0.66650  0.78310  0.45485  Biso   1.000  O
  O6       1.0000 0.59600  0.57020  0.42350  Biso   1.000  O
  O7       1.0000 0.21480  0.63490  0.14962  Biso   1.000  O
  O8       1.0000 0.44140  0.75160  0.16033  Biso   1.000  O
  O9       1.0000 0.57400  0.44140  0.74252  Biso   1.000  O
  O10      1.0000 0.16300  0.36470  0.06026  Biso   1.000  O
  O11      1.0000 0.39040  0.41330  0.07013  Biso   1.000  O
  O12      1.0000 0.21730  0.61240  0.35927  Biso   1.000  O
  O13      1.0000 0.39980  0.79990  0.38042  Biso   1.000  O
  O14      1.0000 0.33350  0.21690  0.54515  Biso   1.000  O
  O15      1.0000 0.40400  0.42980  0.57650  Biso   1.000  O
  O16      1.0000 0.78520  0.36510  0.85038  Biso   1.000  O
  O17      1.0000 0.55860  0.24840  0.83967  Biso   1.000  O
  O18      1.0000 0.42600  0.55860  0.25748  Biso   1.000  O
