data_image0
_cell_length_a       10.6671
_cell_length_b       12.0063
_cell_length_c       14.0658
_cell_angle_alpha    106.718
_cell_angle_beta     102.279
_cell_angle_gamma    111.19

_symmetry_space_group_name_H-M    P 1
_symmetry_int_tables_number       1

loop_
  _symmetry_equiv_pos_as_xyz
  'x, y, z'

loop_
  _atom_site_label
  _atom_site_occupancy
  _atom_site_fract_x
  _atom_site_fract_y
  _atom_site_fract_z
  _atom_site_thermal_displace_type
  _atom_site_B_iso_or_equiv
  _atom_site_type_symbol
  Co1      1.0000 0.80651  0.50421  0.78597  Biso   1.000  Co
  Co2      1.0000 0.54787  0.76829  0.30975  Biso   1.000  Co
  Co3      1.0000 0.19349  0.49579  0.21403  Biso   1.000  Co
  Co4      1.0000 0.45213  0.23171  0.69025  Biso   1.000  Co
  H1       1.0000 0.52300  0.44600  0.68600  Biso   1.000  H
  H2       1.0000 0.57500  0.47600  0.79300  Biso   1.000  H
  H3       1.0000 0.97460  0.79930  0.85900  Biso   1.000  H
  H4       1.0000 0.87770  0.83320  0.38590  Biso   1.000  H
  H5       1.0000 0.05440  0.82240  0.32130  Biso   1.000  H
  H6       1.0000 0.00250  0.73660  0.13890  Biso   1.000  H
  H7       1.0000 0.59370  0.66040  0.09960  Biso   1.000  H
  H8       1.0000 0.72870  0.98880  0.24930  Biso   1.000  H
  H9       1.0000 0.84010  0.21190  0.30890  Biso   1.000  H
  H10      1.0000 0.83660  0.33820  0.46720  Biso   1.000  H
  H11      1.0000 0.61950  0.01000  0.49880  Biso   1.000  H
  H12      1.0000 0.69770  0.53790  0.58070  Biso   1.000  H
  H13      1.0000 0.00340  0.96380  0.80080  Biso   1.000  H
  H14      1.0000 0.87030  0.91360  0.62770  Biso   1.000  H
  H15      1.0000 0.06670  0.53330  0.70600  Biso   1.000  H
  H16      1.0000 0.30620  0.58650  0.77010  Biso   1.000  H
  H17      1.0000 0.42400  0.66230  0.95300  Biso   1.000  H
  H18      1.0000 0.04770  0.60490  0.98920  Biso   1.000  H
  H19      1.0000 0.47700  0.55400  0.31400  Biso   1.000  H
  H20      1.0000 0.42500  0.52400  0.20700  Biso   1.000  H
  H21      1.0000 0.02540  0.20070  0.14100  Biso   1.000  H
  H22      1.0000 0.12230  0.16680  0.61410  Biso   1.000  H
  H23      1.0000 0.94560  0.17760  0.67870  Biso   1.000  H
  H24      1.0000 0.99750  0.26340  0.86110  Biso   1.000  H
  H25      1.0000 0.40630  0.33960  0.90040  Biso   1.000  H
  H26      1.0000 0.27130  0.01120  0.75070  Biso   1.000  H
  H27      1.0000 0.15990  0.78810  0.69110  Biso   1.000  H
  H28      1.0000 0.16340  0.66180  0.53280  Biso   1.000  H
  H29      1.0000 0.38050  0.99000  0.50120  Biso   1.000  H
  H30      1.0000 0.30230  0.46210  0.41930  Biso   1.000  H
  H31      1.0000 0.99660  0.03620  0.19920  Biso   1.000  H
  H32      1.0000 0.12970  0.08640  0.37230  Biso   1.000  H
  H33      1.0000 0.93330  0.46670  0.29400  Biso   1.000  H
  H34      1.0000 0.69380  0.41350  0.22990  Biso   1.000  H
  H35      1.0000 0.57600  0.33770  0.04700  Biso   1.000  H
  H36      1.0000 0.95230  0.39510  0.01080  Biso   1.000  H
  C1       1.0000 0.92230  0.77840  0.78910  Biso   1.000  C
  C2       1.0000 0.85430  0.79570  0.31290  Biso   1.000  C
  C3       1.0000 0.96160  0.79070  0.27450  Biso   1.000  C
  C4       1.0000 0.93090  0.73870  0.16620  Biso   1.000  C
  C5       1.0000 0.79010  0.68960  0.09950  Biso   1.000  C
  C6       1.0000 0.68830  0.69550  0.14471  Biso   1.000  C
  C7       1.0000 0.74180  0.62780  0.97994  Biso   1.000  C
  C8       1.0000 0.72870  0.03860  0.31360  Biso   1.000  C
  C9       1.0000 0.79460  0.17270  0.34840  Biso   1.000  C
  C10      1.0000 0.79210  0.24770  0.44230  Biso   1.000  C
  C11      1.0000 0.72240  0.18640  0.49888  Biso   1.000  C
  C12      1.0000 0.66310  0.05150  0.45969  Biso   1.000  C
  C13      1.0000 0.69980  0.26130  0.59430  Biso   1.000  C
  C14      1.0000 0.75840  0.62480  0.62559  Biso   1.000  C
  C15      1.0000 0.93960  0.87790  0.75510  Biso   1.000  C
  C16      1.0000 0.86070  0.84790  0.65230  Biso   1.000  C
  C17      1.0000 0.76740  0.71960  0.58580  Biso   1.000  C
  C18      1.0000 0.66920  0.68200  0.47560  Biso   1.000  C
  C19      1.0000 0.11200  0.56020  0.77850  Biso   1.000  C
  C20      1.0000 0.25610  0.59320  0.81650  Biso   1.000  C
  C21      1.0000 0.32610  0.63700  0.92530  Biso   1.000  C
  C22      1.0000 0.24690  0.64220  0.99119  Biso   1.000  C
  C23      1.0000 0.10160  0.60370  0.94528  Biso   1.000  C
  C24      1.0000 0.30700  0.67860  0.10914  Biso   1.000  C
  C25      1.0000 0.07770  0.22160  0.21090  Biso   1.000  C
  C26      1.0000 0.14570  0.20430  0.68710  Biso   1.000  C
  C27      1.0000 0.03840  0.20930  0.72550  Biso   1.000  C
  C28      1.0000 0.06910  0.26130  0.83380  Biso   1.000  C
  C29      1.0000 0.20990  0.31040  0.90050  Biso   1.000  C
  C30      1.0000 0.31170  0.30450  0.85529  Biso   1.000  C
  C31      1.0000 0.25820  0.37220  0.02006  Biso   1.000  C
  C32      1.0000 0.27130  0.96140  0.68640  Biso   1.000  C
  C33      1.0000 0.20540  0.82730  0.65160  Biso   1.000  C
  C34      1.0000 0.20790  0.75230  0.55770  Biso   1.000  C
  C35      1.0000 0.27760  0.81360  0.50112  Biso   1.000  C
  C36      1.0000 0.33690  0.94850  0.54031  Biso   1.000  C
  C37      1.0000 0.30020  0.73870  0.40570  Biso   1.000  C
  C38      1.0000 0.24160  0.37520  0.37441  Biso   1.000  C
  C39      1.0000 0.06040  0.12210  0.24490  Biso   1.000  C
  C40      1.0000 0.13930  0.15210  0.34770  Biso   1.000  C
  C41      1.0000 0.23260  0.28040  0.41420  Biso   1.000  C
  C42      1.0000 0.33080  0.31800  0.52440  Biso   1.000  C
  C43      1.0000 0.88800  0.43980  0.22150  Biso   1.000  C
  C44      1.0000 0.74390  0.40680  0.18350  Biso   1.000  C
  C45      1.0000 0.67390  0.36300  0.07470  Biso   1.000  C
  C46      1.0000 0.75310  0.35780  0.00881  Biso   1.000  C
  C47      1.0000 0.89840  0.39630  0.05472  Biso   1.000  C
  C48      1.0000 0.69300  0.32140  0.89086  Biso   1.000  C
  N1       1.0000 0.71750  0.74860  0.24944  Biso   1.000  N
  N2       1.0000 0.66490  0.97720  0.36866  Biso   1.000  N
  N3       1.0000 0.83390  0.65330  0.72631  Biso   1.000  N
  N4       1.0000 0.03420  0.56510  0.84138  Biso   1.000  N
  N5       1.0000 0.28250  0.25140  0.75056  Biso   1.000  N
  N6       1.0000 0.33510  0.02280  0.63134  Biso   1.000  N
  N7       1.0000 0.16610  0.34670  0.27369  Biso   1.000  N
  N8       1.0000 0.96580  0.43490  0.15862  Biso   1.000  N
  O1       1.0000 0.83667  0.63066  0.93920  Biso   1.000  O
  O2       1.0000 0.60944  0.57540  0.93019  Biso   1.000  O
  O3       1.0000 0.78341  0.38149  0.64037  Biso   1.000  O
  O4       1.0000 0.59703  0.19768  0.61732  Biso   1.000  O
  O5       1.0000 0.66540  0.77491  0.45201  Biso   1.000  O
  O6       1.0000 0.59740  0.56360  0.41703  Biso   1.000  O
  O7       1.0000 0.21720  0.63790  0.15104  Biso   1.000  O
  O8       1.0000 0.44152  0.74653  0.15672  Biso   1.000  O
  O9       1.0000 0.57605  0.43856  0.74178  Biso   1.000  O
  O10      1.0000 0.16333  0.36934  0.06080  Biso   1.000  O
  O11      1.0000 0.39056  0.42460  0.06981  Biso   1.000  O
  O12      1.0000 0.21659  0.61851  0.35963  Biso   1.000  O
  O13      1.0000 0.40297  0.80232  0.38268  Biso   1.000  O
  O14      1.0000 0.33460  0.22509  0.54799  Biso   1.000  O
  O15      1.0000 0.40260  0.43640  0.58297  Biso   1.000  O
  O16      1.0000 0.78280  0.36210  0.84896  Biso   1.000  O
  O17      1.0000 0.55848  0.25347  0.84328  Biso   1.000  O
  O18      1.0000 0.42395  0.56144  0.25822  Biso   1.000  O
