data_image0
_cell_length_a       14.2083
_cell_length_b       18.0861
_cell_length_c       19.298
_cell_angle_alpha    97.836
_cell_angle_beta     90
_cell_angle_gamma    90

_symmetry_space_group_name_H-M    P 1
_symmetry_int_tables_number       1

loop_
  _symmetry_equiv_pos_as_xyz
  'x, y, z'

loop_
  _atom_site_label
  _atom_site_occupancy
  _atom_site_fract_x
  _atom_site_fract_y
  _atom_site_fract_z
  _atom_site_thermal_displace_type
  _atom_site_B_iso_or_equiv
  _atom_site_type_symbol
  Cd1      1.0000 0.20498  0.83660  0.56284  Biso   1.000  Cd
  Cd2      1.0000 0.20187  0.67088  0.37554  Biso   1.000  Cd
  Cd3      1.0000 0.13352  0.48807  0.97796  Biso   1.000  Cd
  Cd4      1.0000 0.27014  0.59974  0.16445  Biso   1.000  Cd
  Cd5      1.0000 0.20498  0.16340  0.93716  Biso   1.000  Cd
  Cd6      1.0000 0.20187  0.32912  0.12446  Biso   1.000  Cd
  Cd7      1.0000 0.13352  0.51193  0.52204  Biso   1.000  Cd
  Cd8      1.0000 0.27014  0.40026  0.33555  Biso   1.000  Cd
  Cd9      1.0000 0.79502  0.16340  0.43716  Biso   1.000  Cd
  Cd10     1.0000 0.79813  0.32912  0.62446  Biso   1.000  Cd
  Cd11     1.0000 0.86648  0.51193  0.02204  Biso   1.000  Cd
  Cd12     1.0000 0.72986  0.40026  0.83555  Biso   1.000  Cd
  Cd13     1.0000 0.79502  0.83660  0.06284  Biso   1.000  Cd
  Cd14     1.0000 0.79813  0.67088  0.87554  Biso   1.000  Cd
  Cd15     1.0000 0.86648  0.48807  0.47796  Biso   1.000  Cd
  Cd16     1.0000 0.72986  0.59974  0.66445  Biso   1.000  Cd
  H1       1.0000 0.03330  0.92640  0.39310  Biso   1.000  H
  H2       1.0000 0.96390  0.94350  0.28720  Biso   1.000  H
  H3       1.0000 0.95870  0.71900  0.23200  Biso   1.000  H
  H4       1.0000 0.91260  0.63840  0.39350  Biso   1.000  H
  H5       1.0000 0.96140  0.70760  0.44050  Biso   1.000  H
  H6       1.0000 0.95890  0.62130  0.26520  Biso   1.000  H
  H7       1.0000 0.01480  0.56710  0.30970  Biso   1.000  H
  H8       1.0000 0.34600  0.68660  0.92840  Biso   1.000  H
  H9       1.0000 0.47910  0.76160  0.94110  Biso   1.000  H
  H10      1.0000 0.56290  0.65940  0.10340  Biso   1.000  H
  H11      1.0000 0.47230  0.45770  0.07420  Biso   1.000  H
  H12      1.0000 0.39760  0.48690  0.02230  Biso   1.000  H
  H13      1.0000 0.55610  0.56750  0.15030  Biso   1.000  H
  H14      1.0000 0.48470  0.51630  0.18670  Biso   1.000  H
  H15      1.0000 0.11320  0.70140  0.09600  Biso   1.000  H
  H16      1.0000 0.09320  0.81370  0.05340  Biso   1.000  H
  H17      1.0000 0.36100  0.86630  0.11190  Biso   1.000  H
  H18      1.0000 0.36950  0.75570  0.15850  Biso   1.000  H
  H19      1.0000 0.11670  0.89390  0.97580  Biso   1.000  H
  H20      1.0000 0.11890  0.00260  0.92530  Biso   1.000  H
  H21      1.0000 0.31010  0.08780  0.05480  Biso   1.000  H
  H22      1.0000 0.31210  0.98380  0.11020  Biso   1.000  H
  H23      1.0000 0.03330  0.07360  0.10690  Biso   1.000  H
  H24      1.0000 0.96390  0.05650  0.21280  Biso   1.000  H
  H25      1.0000 0.95870  0.28100  0.26800  Biso   1.000  H
  H26      1.0000 0.91260  0.36160  0.10650  Biso   1.000  H
  H27      1.0000 0.96140  0.29240  0.05950  Biso   1.000  H
  H28      1.0000 0.95890  0.37870  0.23480  Biso   1.000  H
  H29      1.0000 0.01480  0.43290  0.19030  Biso   1.000  H
  H30      1.0000 0.34600  0.31340  0.57160  Biso   1.000  H
  H31      1.0000 0.47910  0.23840  0.55890  Biso   1.000  H
  H32      1.0000 0.56290  0.34060  0.39660  Biso   1.000  H
  H33      1.0000 0.47230  0.54230  0.42580  Biso   1.000  H
  H34      1.0000 0.39760  0.51310  0.47770  Biso   1.000  H
  H35      1.0000 0.55610  0.43250  0.34970  Biso   1.000  H
  H36      1.0000 0.48470  0.48370  0.31330  Biso   1.000  H
  H37      1.0000 0.11320  0.29860  0.40400  Biso   1.000  H
  H38      1.0000 0.09320  0.18630  0.44660  Biso   1.000  H
  H39      1.0000 0.36100  0.13370  0.38810  Biso   1.000  H
  H40      1.0000 0.36950  0.24430  0.34150  Biso   1.000  H
  H41      1.0000 0.11670  0.10610  0.52420  Biso   1.000  H
  H42      1.0000 0.11890  0.99740  0.57470  Biso   1.000  H
  H43      1.0000 0.31010  0.91220  0.44520  Biso   1.000  H
  H44      1.0000 0.31210  0.01620  0.38980  Biso   1.000  H
  H45      1.0000 0.96670  0.07360  0.60690  Biso   1.000  H
  H46      1.0000 0.03610  0.05650  0.71280  Biso   1.000  H
  H47      1.0000 0.04130  0.28100  0.76800  Biso   1.000  H
  H48      1.0000 0.08740  0.36160  0.60650  Biso   1.000  H
  H49      1.0000 0.03860  0.29240  0.55950  Biso   1.000  H
  H50      1.0000 0.04110  0.37870  0.73480  Biso   1.000  H
  H51      1.0000 0.98520  0.43290  0.69030  Biso   1.000  H
  H52      1.0000 0.65400  0.31340  0.07160  Biso   1.000  H
  H53      1.0000 0.52090  0.23840  0.05890  Biso   1.000  H
  H54      1.0000 0.43710  0.34060  0.89660  Biso   1.000  H
  H55      1.0000 0.52770  0.54230  0.92580  Biso   1.000  H
  H56      1.0000 0.60240  0.51310  0.97770  Biso   1.000  H
  H57      1.0000 0.44390  0.43250  0.84970  Biso   1.000  H
  H58      1.0000 0.51530  0.48370  0.81330  Biso   1.000  H
  H59      1.0000 0.88680  0.29860  0.90400  Biso   1.000  H
  H60      1.0000 0.90680  0.18630  0.94660  Biso   1.000  H
  H61      1.0000 0.63900  0.13370  0.88810  Biso   1.000  H
  H62      1.0000 0.63050  0.24430  0.84150  Biso   1.000  H
  H63      1.0000 0.88330  0.10610  0.02420  Biso   1.000  H
  H64      1.0000 0.88110  0.99740  0.07470  Biso   1.000  H
  H65      1.0000 0.68990  0.91220  0.94520  Biso   1.000  H
  H66      1.0000 0.68790  0.01620  0.88980  Biso   1.000  H
  H67      1.0000 0.96670  0.92640  0.89310  Biso   1.000  H
  H68      1.0000 0.03610  0.94350  0.78720  Biso   1.000  H
  H69      1.0000 0.04130  0.71900  0.73200  Biso   1.000  H
  H70      1.0000 0.08740  0.63840  0.89350  Biso   1.000  H
  H71      1.0000 0.03860  0.70760  0.94050  Biso   1.000  H
  H72      1.0000 0.04110  0.62130  0.76520  Biso   1.000  H
  H73      1.0000 0.98520  0.56710  0.80970  Biso   1.000  H
  H74      1.0000 0.65400  0.68660  0.42840  Biso   1.000  H
  H75      1.0000 0.52090  0.76160  0.44110  Biso   1.000  H
  H76      1.0000 0.43710  0.65940  0.60340  Biso   1.000  H
  H77      1.0000 0.52770  0.45770  0.57420  Biso   1.000  H
  H78      1.0000 0.60240  0.48690  0.52230  Biso   1.000  H
  H79      1.0000 0.44390  0.56750  0.65030  Biso   1.000  H
  H80      1.0000 0.51530  0.51630  0.68670  Biso   1.000  H
  H81      1.0000 0.88680  0.70140  0.59600  Biso   1.000  H
  H82      1.0000 0.90680  0.81370  0.55340  Biso   1.000  H
  H83      1.0000 0.63900  0.86630  0.61190  Biso   1.000  H
  H84      1.0000 0.63050  0.75570  0.65850  Biso   1.000  H
  H85      1.0000 0.88330  0.89390  0.47580  Biso   1.000  H
  H86      1.0000 0.88110  0.00260  0.42530  Biso   1.000  H
  H87      1.0000 0.68990  0.08780  0.55480  Biso   1.000  H
  H88      1.0000 0.68790  0.98380  0.61020  Biso   1.000  H
  C1       1.0000 0.08090  0.80950  0.44720  Biso   1.000  C
  C2       1.0000 0.03500  0.81330  0.37730  Biso   1.000  C
  C3       1.0000 0.01720  0.88410  0.36050  Biso   1.000  C
  C4       1.0000 0.97690  0.89470  0.29760  Biso   1.000  C
  C5       1.0000 0.95580  0.83230  0.24980  Biso   1.000  C
  C6       1.0000 0.90550  0.84180  0.18150  Biso   1.000  C
  C7       1.0000 0.97330  0.76100  0.26550  Biso   1.000  C
  C8       1.0000 0.01150  0.75010  0.32900  Biso   1.000  C
  C9       1.0000 0.97390  0.66040  0.40950  Biso   1.000  C
  C10      1.0000 0.02530  0.60690  0.45070  Biso   1.000  C
  C11      1.0000 0.01860  0.61480  0.29020  Biso   1.000  C
  C12      1.0000 0.09890  0.61100  0.23880  Biso   1.000  C
  C13      1.0000 0.28260  0.58550  0.99610  Biso   1.000  C
  C14      1.0000 0.37360  0.62760  0.00870  Biso   1.000  C
  C15      1.0000 0.39010  0.68080  0.96430  Biso   1.000  C
  C16      1.0000 0.46920  0.72520  0.97150  Biso   1.000  C
  C17      1.0000 0.53360  0.71660  0.02250  Biso   1.000  C
  C18      1.0000 0.62310  0.76210  0.02800  Biso   1.000  C
  C19      1.0000 0.51850  0.66400  0.06740  Biso   1.000  C
  C20      1.0000 0.43980  0.61760  0.06090  Biso   1.000  C
  C21      1.0000 0.41260  0.48550  0.07220  Biso   1.000  C
  C22      1.0000 0.33500  0.44410  0.10470  Biso   1.000  C
  C23      1.0000 0.49060  0.56390  0.16710  Biso   1.000  C
  C24      1.0000 0.47280  0.62810  0.22510  Biso   1.000  C
  C25      1.0000 0.16350  0.73630  0.10050  Biso   1.000  C
  C26      1.0000 0.15160  0.80240  0.07360  Biso   1.000  C
  C27      1.0000 0.22670  0.85260  0.07640  Biso   1.000  C
  C28      1.0000 0.30830  0.83370  0.10860  Biso   1.000  C
  C29      1.0000 0.31290  0.76730  0.13610  Biso   1.000  C
  C30      1.0000 0.16060  0.93200  0.99180  Biso   1.000  C
  C31      1.0000 0.16210  0.99770  0.96200  Biso   1.000  C
  C32      1.0000 0.27180  0.04660  0.03680  Biso   1.000  C
  C33      1.0000 0.27430  0.98440  0.06960  Biso   1.000  C
  C34      1.0000 0.22200  0.92230  0.04390  Biso   1.000  C
  C35      1.0000 0.08090  0.19050  0.05280  Biso   1.000  C
  C36      1.0000 0.03500  0.18670  0.12270  Biso   1.000  C
  C37      1.0000 0.01720  0.11590  0.13950  Biso   1.000  C
  C38      1.0000 0.97690  0.10530  0.20240  Biso   1.000  C
  C39      1.0000 0.95580  0.16770  0.25020  Biso   1.000  C
  C40      1.0000 0.90550  0.15820  0.31850  Biso   1.000  C
  C41      1.0000 0.97330  0.23900  0.23450  Biso   1.000  C
  C42      1.0000 0.01150  0.24990  0.17100  Biso   1.000  C
  C43      1.0000 0.97390  0.33960  0.09050  Biso   1.000  C
  C44      1.0000 0.02530  0.39310  0.04930  Biso   1.000  C
  C45      1.0000 0.01860  0.38520  0.20980  Biso   1.000  C
  C46      1.0000 0.09890  0.38900  0.26120  Biso   1.000  C
  C47      1.0000 0.28260  0.41450  0.50390  Biso   1.000  C
  C48      1.0000 0.37360  0.37240  0.49130  Biso   1.000  C
  C49      1.0000 0.39010  0.31920  0.53570  Biso   1.000  C
  C50      1.0000 0.46920  0.27480  0.52850  Biso   1.000  C
  C51      1.0000 0.53360  0.28340  0.47750  Biso   1.000  C
  C52      1.0000 0.62310  0.23790  0.47200  Biso   1.000  C
  C53      1.0000 0.51850  0.33600  0.43260  Biso   1.000  C
  C54      1.0000 0.43980  0.38240  0.43910  Biso   1.000  C
  C55      1.0000 0.41260  0.51450  0.42780  Biso   1.000  C
  C56      1.0000 0.33500  0.55590  0.39530  Biso   1.000  C
  C57      1.0000 0.49060  0.43610  0.33290  Biso   1.000  C
  C58      1.0000 0.47280  0.37190  0.27490  Biso   1.000  C
  C59      1.0000 0.16350  0.26370  0.39950  Biso   1.000  C
  C60      1.0000 0.15160  0.19760  0.42640  Biso   1.000  C
  C61      1.0000 0.22670  0.14740  0.42360  Biso   1.000  C
  C62      1.0000 0.30830  0.16630  0.39140  Biso   1.000  C
  C63      1.0000 0.31290  0.23270  0.36390  Biso   1.000  C
  C64      1.0000 0.16060  0.06800  0.50820  Biso   1.000  C
  C65      1.0000 0.16210  0.00230  0.53800  Biso   1.000  C
  C66      1.0000 0.27180  0.95340  0.46320  Biso   1.000  C
  C67      1.0000 0.27430  0.01560  0.43040  Biso   1.000  C
  C68      1.0000 0.22200  0.07770  0.45610  Biso   1.000  C
  C69      1.0000 0.91910  0.19050  0.55280  Biso   1.000  C
  C70      1.0000 0.96500  0.18670  0.62270  Biso   1.000  C
  C71      1.0000 0.98280  0.11590  0.63950  Biso   1.000  C
  C72      1.0000 0.02310  0.10530  0.70240  Biso   1.000  C
  C73      1.0000 0.04420  0.16770  0.75020  Biso   1.000  C
  C74      1.0000 0.09450  0.15820  0.81850  Biso   1.000  C
  C75      1.0000 0.02670  0.23900  0.73450  Biso   1.000  C
  C76      1.0000 0.98850  0.24990  0.67100  Biso   1.000  C
  C77      1.0000 0.02610  0.33960  0.59050  Biso   1.000  C
  C78      1.0000 0.97470  0.39310  0.54930  Biso   1.000  C
  C79      1.0000 0.98140  0.38520  0.70980  Biso   1.000  C
  C80      1.0000 0.90110  0.38900  0.76120  Biso   1.000  C
  C81      1.0000 0.71740  0.41450  0.00390  Biso   1.000  C
  C82      1.0000 0.62640  0.37240  0.99130  Biso   1.000  C
  C83      1.0000 0.60990  0.31920  0.03570  Biso   1.000  C
  C84      1.0000 0.53080  0.27480  0.02850  Biso   1.000  C
  C85      1.0000 0.46640  0.28340  0.97750  Biso   1.000  C
  C86      1.0000 0.37690  0.23790  0.97200  Biso   1.000  C
  C87      1.0000 0.48150  0.33600  0.93260  Biso   1.000  C
  C88      1.0000 0.56020  0.38240  0.93910  Biso   1.000  C
  C89      1.0000 0.58740  0.51450  0.92780  Biso   1.000  C
  C90      1.0000 0.66500  0.55590  0.89530  Biso   1.000  C
  C91      1.0000 0.50940  0.43610  0.83290  Biso   1.000  C
  C92      1.0000 0.52720  0.37190  0.77490  Biso   1.000  C
  C93      1.0000 0.83650  0.26370  0.89950  Biso   1.000  C
  C94      1.0000 0.84840  0.19760  0.92640  Biso   1.000  C
  C95      1.0000 0.77330  0.14740  0.92360  Biso   1.000  C
  C96      1.0000 0.69170  0.16630  0.89140  Biso   1.000  C
  C97      1.0000 0.68710  0.23270  0.86390  Biso   1.000  C
  C98      1.0000 0.83940  0.06800  0.00820  Biso   1.000  C
  C99      1.0000 0.83790  0.00230  0.03800  Biso   1.000  C
  C100     1.0000 0.72820  0.95340  0.96320  Biso   1.000  C
  C101     1.0000 0.72570  0.01560  0.93040  Biso   1.000  C
  C102     1.0000 0.77800  0.07770  0.95610  Biso   1.000  C
  C103     1.0000 0.91910  0.80950  0.94720  Biso   1.000  C
  C104     1.0000 0.96500  0.81330  0.87730  Biso   1.000  C
  C105     1.0000 0.98280  0.88410  0.86050  Biso   1.000  C
  C106     1.0000 0.02310  0.89470  0.79760  Biso   1.000  C
  C107     1.0000 0.04420  0.83230  0.74980  Biso   1.000  C
  C108     1.0000 0.09450  0.84180  0.68150  Biso   1.000  C
  C109     1.0000 0.02670  0.76100  0.76550  Biso   1.000  C
  C110     1.0000 0.98850  0.75010  0.82900  Biso   1.000  C
  C111     1.0000 0.02610  0.66040  0.90950  Biso   1.000  C
  C112     1.0000 0.97470  0.60690  0.95070  Biso   1.000  C
  C113     1.0000 0.98140  0.61480  0.79020  Biso   1.000  C
  C114     1.0000 0.90110  0.61100  0.73880  Biso   1.000  C
  C115     1.0000 0.71740  0.58550  0.49610  Biso   1.000  C
  C116     1.0000 0.62640  0.62760  0.50870  Biso   1.000  C
  C117     1.0000 0.60990  0.68080  0.46430  Biso   1.000  C
  C118     1.0000 0.53080  0.72520  0.47150  Biso   1.000  C
  C119     1.0000 0.46640  0.71660  0.52250  Biso   1.000  C
  C120     1.0000 0.37690  0.76210  0.52800  Biso   1.000  C
  C121     1.0000 0.48150  0.66400  0.56740  Biso   1.000  C
  C122     1.0000 0.56020  0.61760  0.56090  Biso   1.000  C
  C123     1.0000 0.58740  0.48550  0.57220  Biso   1.000  C
  C124     1.0000 0.66500  0.44410  0.60470  Biso   1.000  C
  C125     1.0000 0.50940  0.56390  0.66710  Biso   1.000  C
  C126     1.0000 0.52720  0.62810  0.72510  Biso   1.000  C
  C127     1.0000 0.83650  0.73630  0.60050  Biso   1.000  C
  C128     1.0000 0.84840  0.80240  0.57360  Biso   1.000  C
  C129     1.0000 0.77330  0.85260  0.57640  Biso   1.000  C
  C130     1.0000 0.69170  0.83370  0.60860  Biso   1.000  C
  C131     1.0000 0.68710  0.76730  0.63610  Biso   1.000  C
  C132     1.0000 0.83940  0.93200  0.49180  Biso   1.000  C
  C133     1.0000 0.83790  0.99770  0.46200  Biso   1.000  C
  C134     1.0000 0.72820  0.04660  0.53680  Biso   1.000  C
  C135     1.0000 0.72570  0.98440  0.56960  Biso   1.000  C
  C136     1.0000 0.77800  0.92230  0.54390  Biso   1.000  C
  N1       1.0000 0.02910  0.67660  0.34800  Biso   1.000  N
  N2       1.0000 0.42600  0.56240  0.10710  Biso   1.000  N
  N3       1.0000 0.24220  0.71850  0.13270  Biso   1.000  N
  N4       1.0000 0.21910  0.05310  0.98120  Biso   1.000  N
  N5       1.0000 0.02910  0.32340  0.15200  Biso   1.000  N
  N6       1.0000 0.42600  0.43760  0.39290  Biso   1.000  N
  N7       1.0000 0.24220  0.28150  0.36730  Biso   1.000  N
  N8       1.0000 0.21910  0.94690  0.51880  Biso   1.000  N
  N9       1.0000 0.97090  0.32340  0.65200  Biso   1.000  N
  N10      1.0000 0.57400  0.43760  0.89290  Biso   1.000  N
  N11      1.0000 0.75780  0.28150  0.86730  Biso   1.000  N
  N12      1.0000 0.78090  0.94690  0.01880  Biso   1.000  N
  N13      1.0000 0.97090  0.67660  0.84800  Biso   1.000  N
  N14      1.0000 0.57400  0.56240  0.60710  Biso   1.000  N
  N15      1.0000 0.75780  0.71850  0.63270  Biso   1.000  N
  N16      1.0000 0.78090  0.05310  0.48120  Biso   1.000  N
  O1       1.0000 0.15160  0.76670  0.45149  Biso   1.000  O
  O2       1.0000 0.05150  0.85150  0.49846  Biso   1.000  O
  O3       1.0000 0.89200  0.90460  0.16630  Biso   1.000  O
  O4       1.0000 0.87820  0.78440  0.14410  Biso   1.000  O
  O5       1.0000 0.10920  0.59020  0.43680  Biso   1.000  O
  O6       1.0000 0.98130  0.58210  0.49923  Biso   1.000  O
  O7       1.0000 0.17860  0.63480  0.26088  Biso   1.000  O
  O8       1.0000 0.08860  0.58150  0.17746  Biso   1.000  O
  O9       1.0000 0.24740  0.57650  0.93660  Biso   1.000  O
  O10      1.0000 0.24150  0.55980  0.04669  Biso   1.000  O
  O11      1.0000 0.63460  0.80770  0.98650  Biso   1.000  O
  O12      1.0000 0.68300  0.74900  0.07060  Biso   1.000  O
  O13      1.0000 0.29230  0.47230  0.15760  Biso   1.000  O
  O14      1.0000 0.31930  0.37920  0.07390  Biso   1.000  O
  O15      1.0000 0.38960  0.65430  0.23220  Biso   1.000  O
  O16      1.0000 0.53760  0.64910  0.26430  Biso   1.000  O
  O17      1.0000 0.31360  0.75130  0.33920  Biso   1.000  O
  O18      1.0000 0.24990  0.40790  0.93510  Biso   1.000  O
  O19      1.0000 0.07870  0.47630  0.86770  Biso   1.000  O
  O20      1.0000 0.15160  0.23330  0.04851  Biso   1.000  O
  O21      1.0000 0.05150  0.14850  0.00154  Biso   1.000  O
  O22      1.0000 0.89200  0.09540  0.33370  Biso   1.000  O
  O23      1.0000 0.87820  0.21560  0.35590  Biso   1.000  O
  O24      1.0000 0.10920  0.40980  0.06320  Biso   1.000  O
  O25      1.0000 0.98130  0.41790  0.00077  Biso   1.000  O
  O26      1.0000 0.17860  0.36520  0.23912  Biso   1.000  O
  O27      1.0000 0.08860  0.41850  0.32254  Biso   1.000  O
  O28      1.0000 0.24740  0.42350  0.56340  Biso   1.000  O
  O29      1.0000 0.24150  0.44020  0.45331  Biso   1.000  O
  O30      1.0000 0.63460  0.19230  0.51350  Biso   1.000  O
  O31      1.0000 0.68300  0.25100  0.42940  Biso   1.000  O
  O32      1.0000 0.29230  0.52770  0.34240  Biso   1.000  O
  O33      1.0000 0.31930  0.62080  0.42610  Biso   1.000  O
  O34      1.0000 0.38960  0.34570  0.26780  Biso   1.000  O
  O35      1.0000 0.53760  0.35090  0.23570  Biso   1.000  O
  O36      1.0000 0.31360  0.24870  0.16080  Biso   1.000  O
  O37      1.0000 0.24990  0.59210  0.56490  Biso   1.000  O
  O38      1.0000 0.07870  0.52370  0.63230  Biso   1.000  O
  O39      1.0000 0.84840  0.23330  0.54851  Biso   1.000  O
  O40      1.0000 0.94850  0.14850  0.50154  Biso   1.000  O
  O41      1.0000 0.10800  0.09540  0.83370  Biso   1.000  O
  O42      1.0000 0.12180  0.21560  0.85590  Biso   1.000  O
  O43      1.0000 0.89080  0.40980  0.56320  Biso   1.000  O
  O44      1.0000 0.01870  0.41790  0.50077  Biso   1.000  O
  O45      1.0000 0.82140  0.36520  0.73912  Biso   1.000  O
  O46      1.0000 0.91140  0.41850  0.82254  Biso   1.000  O
  O47      1.0000 0.75260  0.42350  0.06340  Biso   1.000  O
  O48      1.0000 0.75850  0.44020  0.95331  Biso   1.000  O
  O49      1.0000 0.36540  0.19230  0.01350  Biso   1.000  O
  O50      1.0000 0.31700  0.25100  0.92940  Biso   1.000  O
  O51      1.0000 0.70770  0.52770  0.84240  Biso   1.000  O
  O52      1.0000 0.68070  0.62080  0.92610  Biso   1.000  O
  O53      1.0000 0.61040  0.34570  0.76780  Biso   1.000  O
  O54      1.0000 0.46240  0.35090  0.73570  Biso   1.000  O
  O55      1.0000 0.68640  0.24870  0.66080  Biso   1.000  O
  O56      1.0000 0.75010  0.59210  0.06490  Biso   1.000  O
  O57      1.0000 0.92130  0.52370  0.13230  Biso   1.000  O
  O58      1.0000 0.84840  0.76670  0.95149  Biso   1.000  O
  O59      1.0000 0.94850  0.85150  0.99846  Biso   1.000  O
  O60      1.0000 0.10800  0.90460  0.66630  Biso   1.000  O
  O61      1.0000 0.12180  0.78440  0.64410  Biso   1.000  O
  O62      1.0000 0.89080  0.59020  0.93680  Biso   1.000  O
  O63      1.0000 0.01870  0.58210  0.99923  Biso   1.000  O
  O64      1.0000 0.82140  0.63480  0.76088  Biso   1.000  O
  O65      1.0000 0.91140  0.58150  0.67746  Biso   1.000  O
  O66      1.0000 0.75260  0.57650  0.43660  Biso   1.000  O
  O67      1.0000 0.75850  0.55980  0.54669  Biso   1.000  O
  O68      1.0000 0.36540  0.80770  0.48650  Biso   1.000  O
  O69      1.0000 0.31700  0.74900  0.57060  Biso   1.000  O
  O70      1.0000 0.70770  0.47230  0.65760  Biso   1.000  O
  O71      1.0000 0.68070  0.37920  0.57390  Biso   1.000  O
  O72      1.0000 0.61040  0.65430  0.73220  Biso   1.000  O
  O73      1.0000 0.46240  0.64910  0.76430  Biso   1.000  O
  O74      1.0000 0.68640  0.75130  0.83920  Biso   1.000  O
  O75      1.0000 0.75010  0.40790  0.43510  Biso   1.000  O
  O76      1.0000 0.92130  0.47630  0.36770  Biso   1.000  O
