data_image0
_cell_length_a       10.7738
_cell_length_b       11.1482
_cell_length_c       11.1482
_cell_angle_alpha    99.9866
_cell_angle_beta     102.488
_cell_angle_gamma    77.5125

_symmetry_space_group_name_H-M    P 1
_symmetry_int_tables_number       1

loop_
  _symmetry_equiv_pos_as_xyz
  'x, y, z'

loop_
  _atom_site_label
  _atom_site_occupancy
  _atom_site_fract_x
  _atom_site_fract_y
  _atom_site_fract_z
  _atom_site_thermal_displace_type
  _atom_site_B_iso_or_equiv
  _atom_site_type_symbol
  Co1      1.0000 0.05241  0.93389  0.12107  Biso   1.000  Co
  Co2      1.0000 0.44759  0.12107  0.93389  Biso   1.000  Co
  Co3      1.0000 0.94759  0.06611  0.87893  Biso   1.000  Co
  Co4      1.0000 0.55241  0.87893  0.06611  Biso   1.000  Co
  Co5      1.0000 0.25000  0.09148  0.09148  Biso   1.000  Co
  Co6      1.0000 0.75000  0.90852  0.90852  Biso   1.000  Co
  H1       1.0000 0.01900  0.16600  0.09800  Biso   1.000  H
  H2       1.0000 0.36100  0.54780  0.04020  Biso   1.000  H
  H3       1.0000 0.06100  0.47300  0.13700  Biso   1.000  H
  H4       1.0000 0.97900  0.68600  0.17400  Biso   1.000  H
  H5       1.0000 0.48100  0.09800  0.16600  Biso   1.000  H
  H6       1.0000 0.13900  0.04020  0.54780  Biso   1.000  H
  H7       1.0000 0.43900  0.13700  0.47300  Biso   1.000  H
  H8       1.0000 0.52100  0.17400  0.68600  Biso   1.000  H
  H9       1.0000 0.98100  0.83400  0.90200  Biso   1.000  H
  H10      1.0000 0.63900  0.45220  0.95980  Biso   1.000  H
  H11      1.0000 0.93900  0.52700  0.86300  Biso   1.000  H
  H12      1.0000 0.02100  0.31400  0.82600  Biso   1.000  H
  H13      1.0000 0.51900  0.90200  0.83400  Biso   1.000  H
  H14      1.0000 0.86100  0.95980  0.45220  Biso   1.000  H
  H15      1.0000 0.56100  0.86300  0.52700  Biso   1.000  H
  H16      1.0000 0.47900  0.82600  0.31400  Biso   1.000  H
  C1       1.0000 0.23670  0.69671  0.08807  Biso   1.000  C
  C2       1.0000 0.28940  0.57178  0.06586  Biso   1.000  C
  C3       1.0000 0.22120  0.48568  0.08276  Biso   1.000  C
  C4       1.0000 0.10520  0.52817  0.12463  Biso   1.000  C
  C5       1.0000 0.05830  0.65461  0.14259  Biso   1.000  C
  C6       1.0000 0.30300  0.79661  0.07117  Biso   1.000  C
  C7       1.0000 0.26980  0.34709  0.05763  Biso   1.000  C
  C8       1.0000 0.26330  0.08807  0.69671  Biso   1.000  C
  C9       1.0000 0.21060  0.06586  0.57178  Biso   1.000  C
  C10      1.0000 0.27880  0.08276  0.48568  Biso   1.000  C
  C11      1.0000 0.39480  0.12463  0.52817  Biso   1.000  C
  C12      1.0000 0.44170  0.14259  0.65461  Biso   1.000  C
  C13      1.0000 0.19700  0.07117  0.79661  Biso   1.000  C
  C14      1.0000 0.23020  0.05763  0.34709  Biso   1.000  C
  C15      1.0000 0.76330  0.30329  0.91193  Biso   1.000  C
  C16      1.0000 0.71060  0.42822  0.93414  Biso   1.000  C
  C17      1.0000 0.77880  0.51432  0.91724  Biso   1.000  C
  C18      1.0000 0.89480  0.47183  0.87537  Biso   1.000  C
  C19      1.0000 0.94170  0.34539  0.85741  Biso   1.000  C
  C20      1.0000 0.69700  0.20339  0.92883  Biso   1.000  C
  C21      1.0000 0.73020  0.65291  0.94237  Biso   1.000  C
  C22      1.0000 0.73670  0.91193  0.30329  Biso   1.000  C
  C23      1.0000 0.78940  0.93414  0.42822  Biso   1.000  C
  C24      1.0000 0.72120  0.91724  0.51432  Biso   1.000  C
  C25      1.0000 0.60520  0.87537  0.47183  Biso   1.000  C
  C26      1.0000 0.55830  0.85741  0.34539  Biso   1.000  C
  C27      1.0000 0.80300  0.92883  0.20339  Biso   1.000  C
  C28      1.0000 0.76980  0.94237  0.65291  Biso   1.000  C
  N1       1.0000 0.12150  0.73805  0.12337  Biso   1.000  N
  N2       1.0000 0.37850  0.12337  0.73805  Biso   1.000  N
  N3       1.0000 0.87850  0.26195  0.87663  Biso   1.000  N
  N4       1.0000 0.62150  0.87663  0.26195  Biso   1.000  N
  O1       1.0000 0.23473  0.90379  0.07225  Biso   1.000  O
  O2       1.0000 0.41813  0.76902  0.05980  Biso   1.000  O
  O3       1.0000 0.34556  0.30997  0.98177  Biso   1.000  O
  O4       1.0000 0.22770  0.28154  0.11410  Biso   1.000  O
  O5       1.0000 0.05017  0.10137  0.05985  Biso   1.000  O
  O6       1.0000 0.26527  0.07225  0.90379  Biso   1.000  O
  O7       1.0000 0.08187  0.05980  0.76902  Biso   1.000  O
  O8       1.0000 0.15444  0.98177  0.30997  Biso   1.000  O
  O9       1.0000 0.27230  0.11410  0.28154  Biso   1.000  O
  O10      1.0000 0.44983  0.05985  0.10137  Biso   1.000  O
  O11      1.0000 0.76527  0.09621  0.92775  Biso   1.000  O
  O12      1.0000 0.58187  0.23098  0.94020  Biso   1.000  O
  O13      1.0000 0.65444  0.69003  0.01823  Biso   1.000  O
  O14      1.0000 0.77230  0.71846  0.88590  Biso   1.000  O
  O15      1.0000 0.94983  0.89863  0.94015  Biso   1.000  O
  O16      1.0000 0.73473  0.92775  0.09621  Biso   1.000  O
  O17      1.0000 0.91813  0.94020  0.23098  Biso   1.000  O
  O18      1.0000 0.84556  0.01823  0.69003  Biso   1.000  O
  O19      1.0000 0.72770  0.88590  0.71846  Biso   1.000  O
  O20      1.0000 0.55017  0.94015  0.89863  Biso   1.000  O
