data_image0
_cell_length_a       8.7577
_cell_length_b       8.7577
_cell_length_c       11.958
_cell_angle_alpha    90
_cell_angle_beta     90
_cell_angle_gamma    101.79

_symmetry_space_group_name_H-M    P 1
_symmetry_int_tables_number       1

loop_
  _symmetry_equiv_pos_as_xyz
  'x, y, z'

loop_
  _atom_site_label
  _atom_site_occupancy
  _atom_site_fract_x
  _atom_site_fract_y
  _atom_site_fract_z
  _atom_site_thermal_displace_type
  _atom_site_B_iso_or_equiv
  _atom_site_type_symbol
  Co1      1.0000 0.11673  0.11673  0.00000  Biso   1.000  Co
  Co2      1.0000 0.88327  0.88327  0.50000  Biso   1.000  Co
  Co3      1.0000 0.10513  0.89487  0.25000  Biso   1.000  Co
  Co4      1.0000 0.89487  0.10513  0.75000  Biso   1.000  Co
  H1       1.0000 0.48800  0.14000  0.29600  Biso   1.000  H
  H2       1.0000 0.71900  0.11900  0.19000  Biso   1.000  H
  H3       1.0000 0.48160  0.14040  0.90500  Biso   1.000  H
  H4       1.0000 0.51200  0.86000  0.79600  Biso   1.000  H
  H5       1.0000 0.28100  0.88100  0.69000  Biso   1.000  H
  H6       1.0000 0.51840  0.85960  0.40500  Biso   1.000  H
  H7       1.0000 0.86000  0.51200  0.20400  Biso   1.000  H
  H8       1.0000 0.88100  0.28100  0.31000  Biso   1.000  H
  H9       1.0000 0.85960  0.51840  0.59500  Biso   1.000  H
  H10      1.0000 0.14000  0.48800  0.70400  Biso   1.000  H
  H11      1.0000 0.11900  0.71900  0.81000  Biso   1.000  H
  H12      1.0000 0.14040  0.48160  0.09500  Biso   1.000  H
  C1       1.0000 0.35713  0.14637  0.15276  Biso   1.000  C
  C2       1.0000 0.49206  0.14014  0.21310  Biso   1.000  C
  C3       1.0000 0.62439  0.12781  0.15410  Biso   1.000  C
  C4       1.0000 0.62348  0.13086  0.03705  Biso   1.000  C
  C5       1.0000 0.48519  0.13763  0.98370  Biso   1.000  C
  C6       1.0000 0.76776  0.12528  0.97166  Biso   1.000  C
  C7       1.0000 0.64287  0.85363  0.65276  Biso   1.000  C
  C8       1.0000 0.50794  0.85986  0.71310  Biso   1.000  C
  C9       1.0000 0.37561  0.87219  0.65410  Biso   1.000  C
  C10      1.0000 0.37652  0.86914  0.53705  Biso   1.000  C
  C11      1.0000 0.51481  0.86237  0.48370  Biso   1.000  C
  C12      1.0000 0.23224  0.87472  0.47166  Biso   1.000  C
  C13      1.0000 0.85363  0.64287  0.34724  Biso   1.000  C
  C14      1.0000 0.85986  0.50794  0.28690  Biso   1.000  C
  C15      1.0000 0.87219  0.37561  0.34590  Biso   1.000  C
  C16      1.0000 0.86914  0.37652  0.46295  Biso   1.000  C
  C17      1.0000 0.86237  0.51481  0.51630  Biso   1.000  C
  C18      1.0000 0.87472  0.23224  0.52834  Biso   1.000  C
  C19      1.0000 0.14637  0.35713  0.84724  Biso   1.000  C
  C20      1.0000 0.14014  0.49206  0.78690  Biso   1.000  C
  C21      1.0000 0.12781  0.62439  0.84590  Biso   1.000  C
  C22      1.0000 0.13086  0.62348  0.96295  Biso   1.000  C
  C23      1.0000 0.13763  0.48519  0.01630  Biso   1.000  C
  C24      1.0000 0.12528  0.76776  0.02834  Biso   1.000  C
  S1       1.0000 0.17399  0.15643  0.21082  Biso   1.000  S
  S2       1.0000 0.82601  0.84357  0.71082  Biso   1.000  S
  S3       1.0000 0.84357  0.82601  0.28918  Biso   1.000  S
  S4       1.0000 0.15643  0.17399  0.78918  Biso   1.000  S
  N1       1.0000 0.35412  0.14152  0.03997  Biso   1.000  N
  N2       1.0000 0.64588  0.85848  0.53997  Biso   1.000  N
  N3       1.0000 0.85848  0.64588  0.46003  Biso   1.000  N
  N4       1.0000 0.14152  0.35412  0.96003  Biso   1.000  N
  O1       1.0000 0.88069  0.09235  0.02224  Biso   1.000  O
  O2       1.0000 0.23837  0.84279  0.36824  Biso   1.000  O
  O3       1.0000 0.11931  0.90765  0.52224  Biso   1.000  O
  O4       1.0000 0.76163  0.15721  0.86824  Biso   1.000  O
  O5       1.0000 0.90765  0.11931  0.47776  Biso   1.000  O
  O6       1.0000 0.15721  0.76163  0.13176  Biso   1.000  O
  O7       1.0000 0.09235  0.88069  0.97776  Biso   1.000  O
  O8       1.0000 0.84279  0.23837  0.63176  Biso   1.000  O
