data_image0
_cell_length_a       12.915
_cell_length_b       21.2642
_cell_length_c       21.2642
_cell_angle_alpha    84.6758
_cell_angle_beta     72.3213
_cell_angle_gamma    72.3213

_symmetry_space_group_name_H-M    P 1
_symmetry_int_tables_number       1

loop_
  _symmetry_equiv_pos_as_xyz
  'x, y, z'

loop_
  _atom_site_label
  _atom_site_occupancy
  _atom_site_fract_x
  _atom_site_fract_y
  _atom_site_fract_z
  _atom_site_thermal_displace_type
  _atom_site_B_iso_or_equiv
  _atom_site_type_symbol
  Li1      1.0000 0.91520  0.00405  0.56175  Biso   1.000  Li
  Li2      1.0000 0.76195  0.51755  0.04915  Biso   1.000  Li
  Li3      1.0000 0.58797  0.47783  0.04443  Biso   1.000  Li
  Li4      1.0000 0.05020  0.30590  0.99050  Biso   1.000  Li
  Li5      1.0000 0.48100  0.99595  0.43825  Biso   1.000  Li
  Li6      1.0000 0.32865  0.48245  0.95085  Biso   1.000  Li
  Li7      1.0000 0.11023  0.52217  0.95557  Biso   1.000  Li
  Li8      1.0000 0.34660  0.69410  0.00950  Biso   1.000  Li
  Li9      1.0000 0.98100  0.43825  0.99595  Biso   1.000  Li
  Li10     1.0000 0.82865  0.95085  0.48245  Biso   1.000  Li
  Li11     1.0000 0.61023  0.95557  0.52217  Biso   1.000  Li
  Li12     1.0000 0.84660  0.00950  0.69410  Biso   1.000  Li
  Li13     1.0000 0.41520  0.56175  0.00405  Biso   1.000  Li
  Li14     1.0000 0.26195  0.04915  0.51755  Biso   1.000  Li
  Li15     1.0000 0.08797  0.04443  0.47783  Biso   1.000  Li
  Li16     1.0000 0.55020  0.99050  0.30590  Biso   1.000  Li
  H1       1.0000 0.60730  0.38980  0.15280  Biso   1.000  H
  H2       1.0000 0.54130  0.31880  0.23680  Biso   1.000  H
  H3       1.0000 0.84430  0.17980  0.17200  Biso   1.000  H
  H4       1.0000 0.91170  0.25190  0.09030  Biso   1.000  H
  H5       1.0000 0.69150  0.06460  0.42920  Biso   1.000  H
  H6       1.0000 0.60320  0.10940  0.34900  Biso   1.000  H
  H7       1.0000 0.82160  0.22060  0.28500  Biso   1.000  H
  H8       1.0000 0.91270  0.17140  0.36180  Biso   1.000  H
  H9       1.0000 0.11910  0.80380  0.39620  Biso   1.000  H
  H10      1.0000 0.29160  0.74960  0.31940  Biso   1.000  H
  H11      1.0000 0.44500  0.86690  0.37230  Biso   1.000  H
  H12      1.0000 0.27130  0.92800  0.44000  Biso   1.000  H
  H13      1.0000 0.63620  0.58870  0.17090  Biso   1.000  H
  H14      1.0000 0.62390  0.65290  0.25590  Biso   1.000  H
  H15      1.0000 0.36850  0.79500  0.21360  Biso   1.000  H
  H16      1.0000 0.38110  0.73160  0.12540  Biso   1.000  H
  H17      1.0000 0.14990  0.61020  0.84720  Biso   1.000  H
  H18      1.0000 0.09690  0.68120  0.76320  Biso   1.000  H
  H19      1.0000 0.19610  0.82020  0.82800  Biso   1.000  H
  H20      1.0000 0.25390  0.74810  0.90970  Biso   1.000  H
  H21      1.0000 0.18530  0.93540  0.57080  Biso   1.000  H
  H22      1.0000 0.06160  0.89060  0.65100  Biso   1.000  H
  H23      1.0000 0.32720  0.77940  0.71500  Biso   1.000  H
  H24      1.0000 0.44590  0.82860  0.63820  Biso   1.000  H
  H25      1.0000 0.31910  0.19620  0.60380  Biso   1.000  H
  H26      1.0000 0.36060  0.25040  0.68060  Biso   1.000  H
  H27      1.0000 0.68420  0.13310  0.62770  Biso   1.000  H
  H28      1.0000 0.63930  0.07200  0.56000  Biso   1.000  H
  H29      1.0000 0.39580  0.41130  0.82910  Biso   1.000  H
  H30      1.0000 0.53270  0.34710  0.74410  Biso   1.000  H
  H31      1.0000 0.37710  0.20500  0.78640  Biso   1.000  H
  H32      1.0000 0.23810  0.26840  0.87460  Biso   1.000  H
  H33      1.0000 0.64990  0.84720  0.61020  Biso   1.000  H
  H34      1.0000 0.59690  0.76320  0.68120  Biso   1.000  H
  H35      1.0000 0.69610  0.82800  0.82020  Biso   1.000  H
  H36      1.0000 0.75390  0.90970  0.74810  Biso   1.000  H
  H37      1.0000 0.68530  0.57080  0.93540  Biso   1.000  H
  H38      1.0000 0.56160  0.65100  0.89060  Biso   1.000  H
  H39      1.0000 0.82720  0.71500  0.77940  Biso   1.000  H
  H40      1.0000 0.94590  0.63820  0.82860  Biso   1.000  H
  H41      1.0000 0.81910  0.60380  0.19620  Biso   1.000  H
  H42      1.0000 0.86060  0.68060  0.25040  Biso   1.000  H
  H43      1.0000 0.18420  0.62770  0.13310  Biso   1.000  H
  H44      1.0000 0.13930  0.56000  0.07200  Biso   1.000  H
  H45      1.0000 0.89580  0.82910  0.41130  Biso   1.000  H
  H46      1.0000 0.03270  0.74410  0.34710  Biso   1.000  H
  H47      1.0000 0.87710  0.78640  0.20500  Biso   1.000  H
  H48      1.0000 0.73810  0.87460  0.26840  Biso   1.000  H
  H49      1.0000 0.10730  0.15280  0.38980  Biso   1.000  H
  H50      1.0000 0.04130  0.23680  0.31880  Biso   1.000  H
  H51      1.0000 0.34430  0.17200  0.17980  Biso   1.000  H
  H52      1.0000 0.41170  0.09030  0.25190  Biso   1.000  H
  H53      1.0000 0.19150  0.42920  0.06460  Biso   1.000  H
  H54      1.0000 0.10320  0.34900  0.10940  Biso   1.000  H
  H55      1.0000 0.32160  0.28500  0.22060  Biso   1.000  H
  H56      1.0000 0.41270  0.36180  0.17140  Biso   1.000  H
  H57      1.0000 0.61910  0.39620  0.80380  Biso   1.000  H
  H58      1.0000 0.79160  0.31940  0.74960  Biso   1.000  H
  H59      1.0000 0.94500  0.37230  0.86690  Biso   1.000  H
  H60      1.0000 0.77130  0.44000  0.92800  Biso   1.000  H
  H61      1.0000 0.13620  0.17090  0.58870  Biso   1.000  H
  H62      1.0000 0.12390  0.25590  0.65290  Biso   1.000  H
  H63      1.0000 0.86850  0.21360  0.79500  Biso   1.000  H
  H64      1.0000 0.88110  0.12540  0.73160  Biso   1.000  H
  C1       1.0000 0.80701  0.37937  0.06921  Biso   1.000  C
  C2       1.0000 0.76647  0.32929  0.11617  Biso   1.000  C
  C3       1.0000 0.65670  0.34749  0.15791  Biso   1.000  C
  C4       1.0000 0.61620  0.30505  0.20775  Biso   1.000  C
  C5       1.0000 0.68680  0.24380  0.21320  Biso   1.000  C
  C6       1.0000 0.79700  0.22323  0.16877  Biso   1.000  C
  C7       1.0000 0.83740  0.26590  0.12010  Biso   1.000  C
  C8       1.0000 0.87460  0.08133  0.45367  Biso   1.000  C
  C9       1.0000 0.81353  0.11173  0.40401  Biso   1.000  C
  C10      1.0000 0.71960  0.09554  0.39886  Biso   1.000  C
  C11      1.0000 0.66570  0.12264  0.35156  Biso   1.000  C
  C12      1.0000 0.70330  0.17002  0.30698  Biso   1.000  C
  C13      1.0000 0.79580  0.18783  0.31337  Biso   1.000  C
  C14      1.0000 0.84910  0.15897  0.35963  Biso   1.000  C
  C15      1.0000 0.54140  0.18610  0.26410  Biso   1.000  C
  C16      1.0000 0.06508  0.91188  0.46756  Biso   1.000  C
  C17      1.0000 0.17675  0.87206  0.42444  Biso   1.000  C
  C18      1.0000 0.18423  0.81837  0.38977  Biso   1.000  C
  C19      1.0000 0.28834  0.78496  0.34496  Biso   1.000  C
  C20      1.0000 0.38591  0.80289  0.33769  Biso   1.000  C
  C21      1.0000 0.37817  0.85523  0.37523  Biso   1.000  C
  C22      1.0000 0.27530  0.89090  0.41670  Biso   1.000  C
  C23      1.0000 0.51624  0.60995  0.08517  Biso   1.000  C
  C24      1.0000 0.51127  0.65373  0.13753  Biso   1.000  C
  C25      1.0000 0.58219  0.63101  0.17841  Biso   1.000  C
  C26      1.0000 0.57446  0.66934  0.22914  Biso   1.000  C
  C27      1.0000 0.49652  0.73118  0.24218  Biso   1.000  C
  C28      1.0000 0.42441  0.75329  0.20429  Biso   1.000  C
  C29      1.0000 0.43151  0.71519  0.15159  Biso   1.000  C
  C30      1.0000 0.59570  0.76910  0.30630  Biso   1.000  C
  C31      1.0000 0.25559  0.62063  0.93079  Biso   1.000  C
  C32      1.0000 0.21193  0.67071  0.88383  Biso   1.000  C
  C33      1.0000 0.16210  0.65251  0.84209  Biso   1.000  C
  C34      1.0000 0.12900  0.69495  0.79225  Biso   1.000  C
  C35      1.0000 0.14380  0.75620  0.78680  Biso   1.000  C
  C36      1.0000 0.18900  0.77677  0.83123  Biso   1.000  C
  C37      1.0000 0.22340  0.73410  0.87990  Biso   1.000  C
  C38      1.0000 0.40960  0.91867  0.54633  Biso   1.000  C
  C39      1.0000 0.32927  0.88827  0.59599  Biso   1.000  C
  C40      1.0000 0.21400  0.90446  0.60114  Biso   1.000  C
  C41      1.0000 0.13990  0.87736  0.64844  Biso   1.000  C
  C42      1.0000 0.18030  0.82998  0.69302  Biso   1.000  C
  C43      1.0000 0.29700  0.81217  0.68663  Biso   1.000  C
  C44      1.0000 0.36770  0.84103  0.64037  Biso   1.000  C
  C45      1.0000 0.99160  0.81390  0.73590  Biso   1.000  C
  C46      1.0000 0.44452  0.08812  0.53244  Biso   1.000  C
  C47      1.0000 0.47325  0.12794  0.57556  Biso   1.000  C
  C48      1.0000 0.39237  0.18163  0.61023  Biso   1.000  C
  C49      1.0000 0.41826  0.21504  0.65504  Biso   1.000  C
  C50      1.0000 0.52649  0.19711  0.66231  Biso   1.000  C
  C51      1.0000 0.60863  0.14477  0.62477  Biso   1.000  C
  C52      1.0000 0.58290  0.10910  0.58330  Biso   1.000  C
  C53      1.0000 0.21136  0.39005  0.91483  Biso   1.000  C
  C54      1.0000 0.30253  0.34627  0.86247  Biso   1.000  C
  C55      1.0000 0.39161  0.36899  0.82159  Biso   1.000  C
  C56      1.0000 0.47294  0.33066  0.77086  Biso   1.000  C
  C57      1.0000 0.46988  0.26882  0.75782  Biso   1.000  C
  C58      1.0000 0.38199  0.24671  0.79571  Biso   1.000  C
  C59      1.0000 0.29829  0.28481  0.84841  Biso   1.000  C
  C60      1.0000 0.67110  0.23090  0.69370  Biso   1.000  C
  C61      1.0000 0.75559  0.93079  0.62063  Biso   1.000  C
  C62      1.0000 0.71193  0.88383  0.67071  Biso   1.000  C
  C63      1.0000 0.66210  0.84209  0.65251  Biso   1.000  C
  C64      1.0000 0.62900  0.79225  0.69495  Biso   1.000  C
  C65      1.0000 0.64380  0.78680  0.75620  Biso   1.000  C
  C66      1.0000 0.68900  0.83123  0.77677  Biso   1.000  C
  C67      1.0000 0.72340  0.87990  0.73410  Biso   1.000  C
  C68      1.0000 0.90960  0.54633  0.91867  Biso   1.000  C
  C69      1.0000 0.82927  0.59599  0.88827  Biso   1.000  C
  C70      1.0000 0.71400  0.60114  0.90446  Biso   1.000  C
  C71      1.0000 0.63990  0.64844  0.87736  Biso   1.000  C
  C72      1.0000 0.68030  0.69302  0.82998  Biso   1.000  C
  C73      1.0000 0.79700  0.68663  0.81217  Biso   1.000  C
  C74      1.0000 0.86770  0.64037  0.84103  Biso   1.000  C
  C75      1.0000 0.49160  0.73590  0.81390  Biso   1.000  C
  C76      1.0000 0.94452  0.53244  0.08812  Biso   1.000  C
  C77      1.0000 0.97325  0.57556  0.12794  Biso   1.000  C
  C78      1.0000 0.89237  0.61023  0.18163  Biso   1.000  C
  C79      1.0000 0.91826  0.65504  0.21504  Biso   1.000  C
  C80      1.0000 0.02649  0.66231  0.19711  Biso   1.000  C
  C81      1.0000 0.10863  0.62477  0.14477  Biso   1.000  C
  C82      1.0000 0.08290  0.58330  0.10910  Biso   1.000  C
  C83      1.0000 0.71136  0.91483  0.39005  Biso   1.000  C
  C84      1.0000 0.80253  0.86247  0.34627  Biso   1.000  C
  C85      1.0000 0.89161  0.82159  0.36899  Biso   1.000  C
  C86      1.0000 0.97294  0.77086  0.33066  Biso   1.000  C
  C87      1.0000 0.96988  0.75782  0.26882  Biso   1.000  C
  C88      1.0000 0.88199  0.79571  0.24671  Biso   1.000  C
  C89      1.0000 0.79829  0.84841  0.28481  Biso   1.000  C
  C90      1.0000 0.17110  0.69370  0.23090  Biso   1.000  C
  C91      1.0000 0.30701  0.06921  0.37937  Biso   1.000  C
  C92      1.0000 0.26647  0.11617  0.32929  Biso   1.000  C
  C93      1.0000 0.15670  0.15791  0.34749  Biso   1.000  C
  C94      1.0000 0.11620  0.20775  0.30505  Biso   1.000  C
  C95      1.0000 0.18680  0.21320  0.24380  Biso   1.000  C
  C96      1.0000 0.29700  0.16877  0.22323  Biso   1.000  C
  C97      1.0000 0.33740  0.12010  0.26590  Biso   1.000  C
  C98      1.0000 0.37460  0.45367  0.08133  Biso   1.000  C
  C99      1.0000 0.31353  0.40401  0.11173  Biso   1.000  C
  C100     1.0000 0.21960  0.39886  0.09554  Biso   1.000  C
  C101     1.0000 0.16570  0.35156  0.12264  Biso   1.000  C
  C102     1.0000 0.20330  0.30698  0.17002  Biso   1.000  C
  C103     1.0000 0.29580  0.31337  0.18783  Biso   1.000  C
  C104     1.0000 0.34910  0.35963  0.15897  Biso   1.000  C
  C105     1.0000 0.04140  0.26410  0.18610  Biso   1.000  C
  C106     1.0000 0.56508  0.46756  0.91188  Biso   1.000  C
  C107     1.0000 0.67675  0.42444  0.87206  Biso   1.000  C
  C108     1.0000 0.68423  0.38977  0.81837  Biso   1.000  C
  C109     1.0000 0.78834  0.34496  0.78496  Biso   1.000  C
  C110     1.0000 0.88591  0.33769  0.80289  Biso   1.000  C
  C111     1.0000 0.87817  0.37523  0.85523  Biso   1.000  C
  C112     1.0000 0.77530  0.41670  0.89090  Biso   1.000  C
  C113     1.0000 0.01624  0.08517  0.60995  Biso   1.000  C
  C114     1.0000 0.01127  0.13753  0.65373  Biso   1.000  C
  C115     1.0000 0.08219  0.17841  0.63101  Biso   1.000  C
  C116     1.0000 0.07446  0.22914  0.66934  Biso   1.000  C
  C117     1.0000 0.99652  0.24218  0.73118  Biso   1.000  C
  C118     1.0000 0.92441  0.20429  0.75329  Biso   1.000  C
  C119     1.0000 0.93151  0.15159  0.71519  Biso   1.000  C
  C120     1.0000 0.09570  0.30630  0.76910  Biso   1.000  C
  N1       1.0000 0.64840  0.19707  0.25973  Biso   1.000  N
  N2       1.0000 0.49152  0.76868  0.29448  Biso   1.000  N
  N3       1.0000 0.10520  0.80293  0.74027  Biso   1.000  N
  N4       1.0000 0.55468  0.23132  0.70552  Biso   1.000  N
  N5       1.0000 0.60520  0.74027  0.80293  Biso   1.000  N
  N6       1.0000 0.05468  0.70552  0.23132  Biso   1.000  N
  N7       1.0000 0.14840  0.25973  0.19707  Biso   1.000  N
  N8       1.0000 0.99152  0.29448  0.76868  Biso   1.000  N
  O1       1.0000 0.15210  0.24010  0.02810  Biso   1.000  O
  O2       1.0000 0.01360  0.24920  0.93900  Biso   1.000  O
  O3       1.0000 0.73389  0.43116  0.05926  Biso   1.000  O
  O4       1.0000 0.91229  0.36898  0.04224  Biso   1.000  O
  O5       1.0000 0.83770  0.03783  0.49177  Biso   1.000  O
  O6       1.0000 0.95837  0.09896  0.45470  Biso   1.000  O
  O7       1.0000 0.06321  0.95985  0.49849  Biso   1.000  O
  O8       1.0000 0.97876  0.89323  0.47125  Biso   1.000  O
  O9       1.0000 0.60172  0.56023  0.06933  Biso   1.000  O
  O10      1.0000 0.43564  0.62421  0.05971  Biso   1.000  O
  O11      1.0000 0.42030  0.75990  0.97190  Biso   1.000  O
  O12      1.0000 0.20180  0.75080  0.06100  Biso   1.000  O
  O13      1.0000 0.22431  0.56884  0.94074  Biso   1.000  O
  O14      1.0000 0.32351  0.63102  0.95776  Biso   1.000  O
  O15      1.0000 0.36730  0.96217  0.50823  Biso   1.000  O
  O16      1.0000 0.51203  0.90104  0.54530  Biso   1.000  O
  O17      1.0000 0.52155  0.04015  0.50151  Biso   1.000  O
  O18      1.0000 0.34324  0.10677  0.52875  Biso   1.000  O
  O19      1.0000 0.23128  0.43977  0.93067  Biso   1.000  O
  O20      1.0000 0.11956  0.37579  0.94029  Biso   1.000  O
  O21      1.0000 0.92030  0.97190  0.75990  Biso   1.000  O
  O22      1.0000 0.70180  0.06100  0.75080  Biso   1.000  O
  O23      1.0000 0.72431  0.94074  0.56884  Biso   1.000  O
  O24      1.0000 0.82351  0.95776  0.63102  Biso   1.000  O
  O25      1.0000 0.86730  0.50823  0.96217  Biso   1.000  O
  O26      1.0000 0.01203  0.54530  0.90104  Biso   1.000  O
  O27      1.0000 0.02155  0.50151  0.04015  Biso   1.000  O
  O28      1.0000 0.84324  0.52875  0.10677  Biso   1.000  O
  O29      1.0000 0.73128  0.93067  0.43977  Biso   1.000  O
  O30      1.0000 0.61956  0.94029  0.37579  Biso   1.000  O
  O31      1.0000 0.65210  0.02810  0.24010  Biso   1.000  O
  O32      1.0000 0.51360  0.93900  0.24920  Biso   1.000  O
  O33      1.0000 0.23389  0.05926  0.43116  Biso   1.000  O
  O34      1.0000 0.41229  0.04224  0.36898  Biso   1.000  O
  O35      1.0000 0.33770  0.49177  0.03783  Biso   1.000  O
  O36      1.0000 0.45837  0.45470  0.09896  Biso   1.000  O
  O37      1.0000 0.56321  0.49849  0.95985  Biso   1.000  O
  O38      1.0000 0.47876  0.47125  0.89323  Biso   1.000  O
  O39      1.0000 0.10172  0.06933  0.56023  Biso   1.000  O
  O40      1.0000 0.93564  0.05971  0.62421  Biso   1.000  O
