data_image0
_cell_length_a       16.8944
_cell_length_b       16.8944
_cell_length_c       7.5454
_cell_angle_alpha    90
_cell_angle_beta     90
_cell_angle_gamma    90

_symmetry_space_group_name_H-M    "P 1"
_symmetry_int_tables_number       1

loop_
  _symmetry_equiv_pos_as_xyz
  'x, y, z'

loop_
  _atom_site_label
  _atom_site_occupancy
  _atom_site_fract_x
  _atom_site_fract_y
  _atom_site_fract_z
  _atom_site_thermal_displace_type
  _atom_site_B_iso_or_equiv
  _atom_site_type_symbol
  O1       1.0000 0.53630  0.38080  0.01650  Biso   1.000  O
  N1       1.0000 0.42360  0.31350  0.07450  Biso   1.000  N
  H1       1.0000 0.39810  0.35500  0.04110  Biso   1.000  H
  C1       1.0000 0.50670  0.31740  0.07220  Biso   1.000  C
  H2       1.0000 0.51180  0.53900  0.66550  Biso   1.000  H
  O2       1.0000 0.03630  0.88080  0.51650  Biso   1.000  O
  N2       1.0000 0.92360  0.81350  0.57450  Biso   1.000  N
  H3       1.0000 0.89810  0.85500  0.54110  Biso   1.000  H
  C2       1.0000 0.00670  0.81740  0.57220  Biso   1.000  C
  H4       1.0000 0.01180  0.03900  0.16550  Biso   1.000  H
  O3       1.0000 0.46370  0.61920  0.01650  Biso   1.000  O
  N3       1.0000 0.57640  0.68650  0.07450  Biso   1.000  N
  H5       1.0000 0.60190  0.64500  0.04110  Biso   1.000  H
  C3       1.0000 0.49330  0.68260  0.07220  Biso   1.000  C
  H6       1.0000 0.48820  0.46100  0.66550  Biso   1.000  H
  O4       1.0000 0.96370  0.11920  0.51650  Biso   1.000  O
  N4       1.0000 0.07640  0.18650  0.57450  Biso   1.000  N
  H7       1.0000 0.10190  0.14500  0.54110  Biso   1.000  H
  C4       1.0000 0.99330  0.18260  0.57220  Biso   1.000  C
  H8       1.0000 0.98820  0.96100  0.16550  Biso   1.000  H
  O5       1.0000 0.38080  0.46370  0.98350  Biso   1.000  O
  N5       1.0000 0.31350  0.57640  0.92550  Biso   1.000  N
  H9       1.0000 0.35500  0.60190  0.95890  Biso   1.000  H
  C5       1.0000 0.31740  0.49330  0.92780  Biso   1.000  C
  H10      1.0000 0.53900  0.48820  0.33450  Biso   1.000  H
  O6       1.0000 0.88080  0.96370  0.48350  Biso   1.000  O
  N6       1.0000 0.81350  0.07640  0.42550  Biso   1.000  N
  H11      1.0000 0.85500  0.10190  0.45890  Biso   1.000  H
  C6       1.0000 0.81740  0.99330  0.42780  Biso   1.000  C
  H12      1.0000 0.03900  0.98820  0.83450  Biso   1.000  H
  O7       1.0000 0.61920  0.53630  0.98350  Biso   1.000  O
  N7       1.0000 0.68650  0.42360  0.92550  Biso   1.000  N
  H13      1.0000 0.64500  0.39810  0.95890  Biso   1.000  H
  C7       1.0000 0.68260  0.50670  0.92780  Biso   1.000  C
  H14      1.0000 0.46100  0.51180  0.33450  Biso   1.000  H
  O8       1.0000 0.11920  0.03630  0.48350  Biso   1.000  O
  N8       1.0000 0.18650  0.92360  0.42550  Biso   1.000  N
  H15      1.0000 0.14500  0.89810  0.45890  Biso   1.000  H
  C8       1.0000 0.18260  0.00670  0.42780  Biso   1.000  C
  H16      1.0000 0.96100  0.01180  0.83450  Biso   1.000  H
  O9       1.0000 0.96370  0.38080  0.73350  Biso   1.000  O
  N9       1.0000 0.07640  0.31350  0.67550  Biso   1.000  N
  H17      1.0000 0.10190  0.35500  0.70890  Biso   1.000  H
  C9       1.0000 0.99330  0.31740  0.67780  Biso   1.000  C
  H18      1.0000 0.98820  0.53900  0.08450  Biso   1.000  H
  O10      1.0000 0.46370  0.88080  0.23350  Biso   1.000  O
  N10      1.0000 0.57640  0.81350  0.17550  Biso   1.000  N
  H19      1.0000 0.60190  0.85500  0.20890  Biso   1.000  H
  C10      1.0000 0.49330  0.81740  0.17780  Biso   1.000  C
  H20      1.0000 0.48820  0.03900  0.58450  Biso   1.000  H
  O11      1.0000 0.03630  0.61920  0.73350  Biso   1.000  O
  N11      1.0000 0.92360  0.68650  0.67550  Biso   1.000  N
  H21      1.0000 0.89810  0.64500  0.70890  Biso   1.000  H
  C11      1.0000 0.00670  0.68260  0.67780  Biso   1.000  C
  H22      1.0000 0.01180  0.46100  0.08450  Biso   1.000  H
  O12      1.0000 0.53630  0.11920  0.23350  Biso   1.000  O
  N12      1.0000 0.42360  0.18650  0.17550  Biso   1.000  N
  H23      1.0000 0.39810  0.14500  0.20890  Biso   1.000  H
  C12      1.0000 0.50670  0.18260  0.17780  Biso   1.000  C
  H24      1.0000 0.51180  0.96100  0.58450  Biso   1.000  H
  O13      1.0000 0.11920  0.46370  0.76650  Biso   1.000  O
  N13      1.0000 0.18650  0.57640  0.82450  Biso   1.000  N
  H25      1.0000 0.14500  0.60190  0.79110  Biso   1.000  H
  C13      1.0000 0.18260  0.49330  0.82220  Biso   1.000  C
  H26      1.0000 0.96100  0.48820  0.41550  Biso   1.000  H
  O14      1.0000 0.61920  0.96370  0.26650  Biso   1.000  O
  N14      1.0000 0.68650  0.07640  0.32450  Biso   1.000  N
  H27      1.0000 0.64500  0.10190  0.29110  Biso   1.000  H
  C14      1.0000 0.68260  0.99330  0.32220  Biso   1.000  C
  H28      1.0000 0.46100  0.98820  0.91550  Biso   1.000  H
  O15      1.0000 0.88080  0.53630  0.76650  Biso   1.000  O
  N15      1.0000 0.81350  0.42360  0.82450  Biso   1.000  N
  H29      1.0000 0.85500  0.39810  0.79110  Biso   1.000  H
  C15      1.0000 0.81740  0.50670  0.82220  Biso   1.000  C
  H30      1.0000 0.03900  0.51180  0.41550  Biso   1.000  H
  O16      1.0000 0.38080  0.03630  0.26650  Biso   1.000  O
  N16      1.0000 0.31350  0.92360  0.32450  Biso   1.000  N
  H31      1.0000 0.35500  0.89810  0.29110  Biso   1.000  H
  C16      1.0000 0.31740  0.00670  0.32220  Biso   1.000  C
  H32      1.0000 0.53900  0.01180  0.91550  Biso   1.000  H
  Ni1      1.0000 0.50000  0.50000  0.00000  Biso   1.000  Ni
  Ni2      1.0000 0.00000  0.00000  0.50000  Biso   1.000  Ni
  Ni3      1.0000 0.00000  0.50000  0.75000  Biso   1.000  Ni
  Ni4      1.0000 0.50000  0.00000  0.25000  Biso   1.000  Ni
  S1       1.0000 0.28287  0.25000  0.12500  Biso   1.000  S
  C17      1.0000 0.38010  0.25000  0.12500  Biso   1.000  C
  C18      1.0000 0.54750  0.25000  0.12500  Biso   1.000  C
  H33      1.0000 0.60260  0.25000  0.12500  Biso   1.000  H
  S2       1.0000 0.71713  0.75000  0.12500  Biso   1.000  S
  C19      1.0000 0.61990  0.75000  0.12500  Biso   1.000  C
  C20      1.0000 0.45250  0.75000  0.12500  Biso   1.000  C
  H34      1.0000 0.39740  0.75000  0.12500  Biso   1.000  H
  S3       1.0000 0.21713  0.25000  0.62500  Biso   1.000  S
  C21      1.0000 0.11990  0.25000  0.62500  Biso   1.000  C
  C22      1.0000 0.95250  0.25000  0.62500  Biso   1.000  C
  H35      1.0000 0.89740  0.25000  0.62500  Biso   1.000  H
  S4       1.0000 0.25000  0.71713  0.87500  Biso   1.000  S
  C23      1.0000 0.25000  0.61990  0.87500  Biso   1.000  C
  C24      1.0000 0.25000  0.45250  0.87500  Biso   1.000  C
  H36      1.0000 0.25000  0.39740  0.87500  Biso   1.000  H
  S5       1.0000 0.75000  0.21713  0.37500  Biso   1.000  S
  C25      1.0000 0.75000  0.11990  0.37500  Biso   1.000  C
  C26      1.0000 0.75000  0.95250  0.37500  Biso   1.000  C
  H37      1.0000 0.75000  0.89740  0.37500  Biso   1.000  H
  S6       1.0000 0.75000  0.28287  0.87500  Biso   1.000  S
  C27      1.0000 0.75000  0.38010  0.87500  Biso   1.000  C
  C28      1.0000 0.75000  0.54750  0.87500  Biso   1.000  C
  H38      1.0000 0.75000  0.60260  0.87500  Biso   1.000  H
  S7       1.0000 0.25000  0.78287  0.37500  Biso   1.000  S
  C29      1.0000 0.25000  0.88010  0.37500  Biso   1.000  C
  C30      1.0000 0.25000  0.04750  0.37500  Biso   1.000  C
  H39      1.0000 0.25000  0.10260  0.37500  Biso   1.000  H
  S8       1.0000 0.78287  0.75000  0.62500  Biso   1.000  S
  C31      1.0000 0.88010  0.75000  0.62500  Biso   1.000  C
  C32      1.0000 0.04750  0.75000  0.62500  Biso   1.000  C
  H40      1.0000 0.10260  0.75000  0.62500  Biso   1.000  H
  O17      1.0000 0.50000  0.50000  0.73360  Biso   1.000  O
  O18      1.0000 0.00000  0.00000  0.23360  Biso   1.000  O
  O19      1.0000 0.50000  0.50000  0.26640  Biso   1.000  O
  O20      1.0000 0.00000  0.00000  0.76640  Biso   1.000  O
  O21      1.0000 0.00000  0.50000  0.01640  Biso   1.000  O
  O22      1.0000 0.50000  0.00000  0.51640  Biso   1.000  O
  O23      1.0000 0.00000  0.50000  0.48360  Biso   1.000  O
  O24      1.0000 0.50000  0.00000  0.98360  Biso   1.000  O
