data_image0
_cell_length_a       16.9643
_cell_length_b       16.9643
_cell_length_c       7.6067
_cell_angle_alpha    90
_cell_angle_beta     90
_cell_angle_gamma    90

_symmetry_space_group_name_H-M    "P 1"
_symmetry_int_tables_number       1

loop_
  _symmetry_equiv_pos_as_xyz
  'x, y, z'

loop_
  _atom_site_label
  _atom_site_occupancy
  _atom_site_fract_x
  _atom_site_fract_y
  _atom_site_fract_z
  _atom_site_thermal_displace_type
  _atom_site_B_iso_or_equiv
  _atom_site_type_symbol
  O1       1.0000 0.53480  0.38070  0.01690  Biso   1.000  O
  N1       1.0000 0.42300  0.31350  0.07770  Biso   1.000  N
  H1       1.0000 0.39800  0.35560  0.04860  Biso   1.000  H
  C1       1.0000 0.50380  0.31680  0.07200  Biso   1.000  C
  H2       1.0000 0.51130  0.53900  0.66590  Biso   1.000  H
  O2       1.0000 0.03480  0.88070  0.51690  Biso   1.000  O
  N2       1.0000 0.92300  0.81350  0.57770  Biso   1.000  N
  H3       1.0000 0.89800  0.85560  0.54860  Biso   1.000  H
  C2       1.0000 0.00380  0.81680  0.57200  Biso   1.000  C
  H4       1.0000 0.01130  0.03900  0.16590  Biso   1.000  H
  O3       1.0000 0.46520  0.61930  0.01690  Biso   1.000  O
  N3       1.0000 0.57700  0.68650  0.07770  Biso   1.000  N
  H5       1.0000 0.60200  0.64440  0.04860  Biso   1.000  H
  C3       1.0000 0.49620  0.68320  0.07200  Biso   1.000  C
  H6       1.0000 0.48870  0.46100  0.66590  Biso   1.000  H
  O4       1.0000 0.96520  0.11930  0.51690  Biso   1.000  O
  N4       1.0000 0.07700  0.18650  0.57770  Biso   1.000  N
  H7       1.0000 0.10200  0.14440  0.54860  Biso   1.000  H
  C4       1.0000 0.99620  0.18320  0.57200  Biso   1.000  C
  H8       1.0000 0.98870  0.96100  0.16590  Biso   1.000  H
  O5       1.0000 0.38070  0.46520  0.98310  Biso   1.000  O
  N5       1.0000 0.31350  0.57700  0.92230  Biso   1.000  N
  H9       1.0000 0.35560  0.60200  0.95140  Biso   1.000  H
  C5       1.0000 0.31680  0.49620  0.92800  Biso   1.000  C
  H10      1.0000 0.53900  0.48870  0.33410  Biso   1.000  H
  O6       1.0000 0.88070  0.96520  0.48310  Biso   1.000  O
  N6       1.0000 0.81350  0.07700  0.42230  Biso   1.000  N
  H11      1.0000 0.85560  0.10200  0.45140  Biso   1.000  H
  C6       1.0000 0.81680  0.99620  0.42800  Biso   1.000  C
  H12      1.0000 0.03900  0.98870  0.83410  Biso   1.000  H
  O7       1.0000 0.61930  0.53480  0.98310  Biso   1.000  O
  N7       1.0000 0.68650  0.42300  0.92230  Biso   1.000  N
  H13      1.0000 0.64440  0.39800  0.95140  Biso   1.000  H
  C7       1.0000 0.68320  0.50380  0.92800  Biso   1.000  C
  H14      1.0000 0.46100  0.51130  0.33410  Biso   1.000  H
  O8       1.0000 0.11930  0.03480  0.48310  Biso   1.000  O
  N8       1.0000 0.18650  0.92300  0.42230  Biso   1.000  N
  H15      1.0000 0.14440  0.89800  0.45140  Biso   1.000  H
  C8       1.0000 0.18320  0.00380  0.42800  Biso   1.000  C
  H16      1.0000 0.96100  0.01130  0.83410  Biso   1.000  H
  O9       1.0000 0.96520  0.38070  0.73310  Biso   1.000  O
  N9       1.0000 0.07700  0.31350  0.67230  Biso   1.000  N
  H17      1.0000 0.10200  0.35560  0.70140  Biso   1.000  H
  C9       1.0000 0.99620  0.31680  0.67800  Biso   1.000  C
  H18      1.0000 0.98870  0.53900  0.08410  Biso   1.000  H
  O10      1.0000 0.46520  0.88070  0.23310  Biso   1.000  O
  N10      1.0000 0.57700  0.81350  0.17230  Biso   1.000  N
  H19      1.0000 0.60200  0.85560  0.20140  Biso   1.000  H
  C10      1.0000 0.49620  0.81680  0.17800  Biso   1.000  C
  H20      1.0000 0.48870  0.03900  0.58410  Biso   1.000  H
  O11      1.0000 0.03480  0.61930  0.73310  Biso   1.000  O
  N11      1.0000 0.92300  0.68650  0.67230  Biso   1.000  N
  H21      1.0000 0.89800  0.64440  0.70140  Biso   1.000  H
  C11      1.0000 0.00380  0.68320  0.67800  Biso   1.000  C
  H22      1.0000 0.01130  0.46100  0.08410  Biso   1.000  H
  O12      1.0000 0.53480  0.11930  0.23310  Biso   1.000  O
  N12      1.0000 0.42300  0.18650  0.17230  Biso   1.000  N
  H23      1.0000 0.39800  0.14440  0.20140  Biso   1.000  H
  C12      1.0000 0.50380  0.18320  0.17800  Biso   1.000  C
  H24      1.0000 0.51130  0.96100  0.58410  Biso   1.000  H
  O13      1.0000 0.11930  0.46520  0.76690  Biso   1.000  O
  N13      1.0000 0.18650  0.57700  0.82770  Biso   1.000  N
  H25      1.0000 0.14440  0.60200  0.79860  Biso   1.000  H
  C13      1.0000 0.18320  0.49620  0.82200  Biso   1.000  C
  H26      1.0000 0.96100  0.48870  0.41590  Biso   1.000  H
  O14      1.0000 0.61930  0.96520  0.26690  Biso   1.000  O
  N14      1.0000 0.68650  0.07700  0.32770  Biso   1.000  N
  H27      1.0000 0.64440  0.10200  0.29860  Biso   1.000  H
  C14      1.0000 0.68320  0.99620  0.32200  Biso   1.000  C
  H28      1.0000 0.46100  0.98870  0.91590  Biso   1.000  H
  O15      1.0000 0.88070  0.53480  0.76690  Biso   1.000  O
  N15      1.0000 0.81350  0.42300  0.82770  Biso   1.000  N
  H29      1.0000 0.85560  0.39800  0.79860  Biso   1.000  H
  C15      1.0000 0.81680  0.50380  0.82200  Biso   1.000  C
  H30      1.0000 0.03900  0.51130  0.41590  Biso   1.000  H
  O16      1.0000 0.38070  0.03480  0.26690  Biso   1.000  O
  N16      1.0000 0.31350  0.92300  0.32770  Biso   1.000  N
  H31      1.0000 0.35560  0.89800  0.29860  Biso   1.000  H
  C16      1.0000 0.31680  0.00380  0.32200  Biso   1.000  C
  H32      1.0000 0.53900  0.01130  0.91590  Biso   1.000  H
  Mg1      1.0000 0.50000  0.50000  0.00000  Biso   1.000  Mg
  Mg2      1.0000 0.00000  0.00000  0.50000  Biso   1.000  Mg
  Mg3      1.0000 0.00000  0.50000  0.75000  Biso   1.000  Mg
  Mg4      1.0000 0.50000  0.00000  0.25000  Biso   1.000  Mg
  S1       1.0000 0.28243  0.25000  0.12500  Biso   1.000  S
  C17      1.0000 0.37840  0.25000  0.12500  Biso   1.000  C
  C18      1.0000 0.54580  0.25000  0.12500  Biso   1.000  C
  H33      1.0000 0.60060  0.25000  0.12500  Biso   1.000  H
  S2       1.0000 0.71757  0.75000  0.12500  Biso   1.000  S
  C19      1.0000 0.62160  0.75000  0.12500  Biso   1.000  C
  C20      1.0000 0.45420  0.75000  0.12500  Biso   1.000  C
  H34      1.0000 0.39940  0.75000  0.12500  Biso   1.000  H
  S3       1.0000 0.21757  0.25000  0.62500  Biso   1.000  S
  C21      1.0000 0.12160  0.25000  0.62500  Biso   1.000  C
  C22      1.0000 0.95420  0.25000  0.62500  Biso   1.000  C
  H35      1.0000 0.89940  0.25000  0.62500  Biso   1.000  H
  S4       1.0000 0.25000  0.71757  0.87500  Biso   1.000  S
  C23      1.0000 0.25000  0.62160  0.87500  Biso   1.000  C
  C24      1.0000 0.25000  0.45420  0.87500  Biso   1.000  C
  H36      1.0000 0.25000  0.39940  0.87500  Biso   1.000  H
  S5       1.0000 0.75000  0.21757  0.37500  Biso   1.000  S
  C25      1.0000 0.75000  0.12160  0.37500  Biso   1.000  C
  C26      1.0000 0.75000  0.95420  0.37500  Biso   1.000  C
  H37      1.0000 0.75000  0.89940  0.37500  Biso   1.000  H
  S6       1.0000 0.75000  0.28243  0.87500  Biso   1.000  S
  C27      1.0000 0.75000  0.37840  0.87500  Biso   1.000  C
  C28      1.0000 0.75000  0.54580  0.87500  Biso   1.000  C
  H38      1.0000 0.75000  0.60060  0.87500  Biso   1.000  H
  S7       1.0000 0.25000  0.78243  0.37500  Biso   1.000  S
  C29      1.0000 0.25000  0.87840  0.37500  Biso   1.000  C
  C30      1.0000 0.25000  0.04580  0.37500  Biso   1.000  C
  H39      1.0000 0.25000  0.10060  0.37500  Biso   1.000  H
  S8       1.0000 0.78243  0.75000  0.62500  Biso   1.000  S
  C31      1.0000 0.87840  0.75000  0.62500  Biso   1.000  C
  C32      1.0000 0.04580  0.75000  0.62500  Biso   1.000  C
  H40      1.0000 0.10060  0.75000  0.62500  Biso   1.000  H
  O17      1.0000 0.50000  0.50000  0.73130  Biso   1.000  O
  O18      1.0000 0.00000  0.00000  0.23130  Biso   1.000  O
  O19      1.0000 0.50000  0.50000  0.26870  Biso   1.000  O
  O20      1.0000 0.00000  0.00000  0.76870  Biso   1.000  O
  O21      1.0000 0.00000  0.50000  0.01870  Biso   1.000  O
  O22      1.0000 0.50000  0.00000  0.51870  Biso   1.000  O
  O23      1.0000 0.00000  0.50000  0.48130  Biso   1.000  O
  O24      1.0000 0.50000  0.00000  0.98130  Biso   1.000  O
