data_image0
_cell_length_a       6.0627
_cell_length_b       10.7122
_cell_length_c       10.3872
_cell_angle_alpha    90
_cell_angle_beta     97.956
_cell_angle_gamma    90

_symmetry_space_group_name_H-M    "P 1"
_symmetry_int_tables_number       1

loop_
  _symmetry_equiv_pos_as_xyz
  'x, y, z'

loop_
  _atom_site_label
  _atom_site_occupancy
  _atom_site_fract_x
  _atom_site_fract_y
  _atom_site_fract_z
  _atom_site_thermal_displace_type
  _atom_site_B_iso_or_equiv
  _atom_site_type_symbol
  Mn1      1.0000 0.88642  0.61295  0.40845  Biso   1.000  Mn
  P1       1.0000 0.03461  0.84356  0.22871  Biso   1.000  P
  H1       1.0000 0.17810  0.80110  0.23000  Biso   1.000  H
  O1       1.0000 0.93280  0.79350  0.34478  Biso   1.000  O
  O2       1.0000 0.89850  0.81073  0.10090  Biso   1.000  O
  O3       1.0000 0.08740  0.98304  0.24742  Biso   1.000  O
  O4       1.0000 0.76920  0.05855  0.01646  Biso   1.000  O
  O5       1.0000 0.51780  0.88335  0.88402  Biso   1.000  O
  C1       1.0000 0.57200  0.05091  0.03926  Biso   1.000  C
  Mn2      1.0000 0.11358  0.11295  0.09155  Biso   1.000  Mn
  P2       1.0000 0.96539  0.34356  0.27129  Biso   1.000  P
  H2       1.0000 0.82190  0.30110  0.27000  Biso   1.000  H
  O6       1.0000 0.06720  0.29350  0.15522  Biso   1.000  O
  O7       1.0000 0.10150  0.31073  0.39910  Biso   1.000  O
  O8       1.0000 0.91260  0.48304  0.25258  Biso   1.000  O
  O9       1.0000 0.23080  0.55855  0.48354  Biso   1.000  O
  O10      1.0000 0.48220  0.38335  0.61598  Biso   1.000  O
  C2       1.0000 0.42800  0.55091  0.46074  Biso   1.000  C
  Mn3      1.0000 0.11358  0.38705  0.59155  Biso   1.000  Mn
  P3       1.0000 0.96539  0.15644  0.77129  Biso   1.000  P
  H3       1.0000 0.82190  0.19890  0.77000  Biso   1.000  H
  O11      1.0000 0.06720  0.20650  0.65522  Biso   1.000  O
  O12      1.0000 0.10150  0.18927  0.89910  Biso   1.000  O
  O13      1.0000 0.91260  0.01696  0.75258  Biso   1.000  O
  O14      1.0000 0.23080  0.94145  0.98354  Biso   1.000  O
  O15      1.0000 0.48220  0.11665  0.11598  Biso   1.000  O
  C3       1.0000 0.42800  0.94909  0.96074  Biso   1.000  C
  Mn4      1.0000 0.88642  0.88705  0.90845  Biso   1.000  Mn
  P4       1.0000 0.03461  0.65644  0.72871  Biso   1.000  P
  H4       1.0000 0.17810  0.69890  0.73000  Biso   1.000  H
  O16      1.0000 0.93280  0.70650  0.84478  Biso   1.000  O
  O17      1.0000 0.89850  0.68927  0.60090  Biso   1.000  O
  O18      1.0000 0.08740  0.51696  0.74742  Biso   1.000  O
  O19      1.0000 0.76920  0.44145  0.51646  Biso   1.000  O
  O20      1.0000 0.51780  0.61665  0.38402  Biso   1.000  O
  C4       1.0000 0.57200  0.44909  0.53926  Biso   1.000  C
