data_image0
_cell_length_a       11.2668
_cell_length_b       13.3604
_cell_length_c       26.282
_cell_angle_alpha    90
_cell_angle_beta     90
_cell_angle_gamma    90

_symmetry_space_group_name_H-M    P 1
_symmetry_int_tables_number       1

loop_
  _symmetry_equiv_pos_as_xyz
  'x, y, z'

loop_
  _atom_site_label
  _atom_site_occupancy
  _atom_site_fract_x
  _atom_site_fract_y
  _atom_site_fract_z
  _atom_site_thermal_displace_type
  _atom_site_B_iso_or_equiv
  _atom_site_type_symbol
  La1      1.0000 0.97221  0.65859  0.21852  Biso   1.000  La
  La2      1.0000 0.47221  0.84141  0.28148  Biso   1.000  La
  La3      1.0000 0.52779  0.65859  0.78148  Biso   1.000  La
  La4      1.0000 0.02779  0.84141  0.71852  Biso   1.000  La
  La5      1.0000 0.02779  0.34141  0.78148  Biso   1.000  La
  La6      1.0000 0.52779  0.15859  0.71852  Biso   1.000  La
  La7      1.0000 0.47221  0.34141  0.21852  Biso   1.000  La
  La8      1.0000 0.97221  0.15859  0.28148  Biso   1.000  La
  La9      1.0000 0.25000  0.48870  0.00000  Biso   1.000  La
  La10     1.0000 0.75000  0.01130  0.50000  Biso   1.000  La
  La11     1.0000 0.75000  0.51130  0.00000  Biso   1.000  La
  La12     1.0000 0.25000  0.98870  0.50000  Biso   1.000  La
  P1       1.0000 0.13990  0.81630  0.31108  Biso   1.000  P
  P2       1.0000 0.29460  0.70750  0.08599  Biso   1.000  P
  P3       1.0000 0.63990  0.68370  0.18892  Biso   1.000  P
  P4       1.0000 0.79460  0.79250  0.41401  Biso   1.000  P
  P5       1.0000 0.36010  0.81630  0.68892  Biso   1.000  P
  P6       1.0000 0.20540  0.70750  0.91401  Biso   1.000  P
  P7       1.0000 0.86010  0.68370  0.81108  Biso   1.000  P
  P8       1.0000 0.70540  0.79250  0.58599  Biso   1.000  P
  P9       1.0000 0.86010  0.18370  0.68892  Biso   1.000  P
  P10      1.0000 0.70540  0.29250  0.91401  Biso   1.000  P
  P11      1.0000 0.36010  0.31630  0.81108  Biso   1.000  P
  P12      1.0000 0.20540  0.20750  0.58599  Biso   1.000  P
  P13      1.0000 0.63990  0.18370  0.31108  Biso   1.000  P
  P14      1.0000 0.79460  0.29250  0.08599  Biso   1.000  P
  P15      1.0000 0.13990  0.31630  0.18892  Biso   1.000  P
  P16      1.0000 0.29460  0.20750  0.41401  Biso   1.000  P
  C1       1.0000 0.06100  0.91060  0.27460  Biso   1.000  C
  C2       1.0000 0.92730  0.90620  0.27650  Biso   1.000  C
  C3       1.0000 0.20240  0.64790  0.13360  Biso   1.000  C
  C4       1.0000 0.09530  0.60040  0.10910  Biso   1.000  C
  C5       1.0000 0.56100  0.58940  0.22540  Biso   1.000  C
  C6       1.0000 0.42730  0.59380  0.22350  Biso   1.000  C
  C7       1.0000 0.70240  0.85210  0.36640  Biso   1.000  C
  C8       1.0000 0.59530  0.89960  0.39090  Biso   1.000  C
  C9       1.0000 0.43900  0.91060  0.72540  Biso   1.000  C
  C10      1.0000 0.57270  0.90620  0.72350  Biso   1.000  C
  C11      1.0000 0.29760  0.64790  0.86640  Biso   1.000  C
  C12      1.0000 0.40470  0.60040  0.89090  Biso   1.000  C
  C13      1.0000 0.93900  0.58940  0.77460  Biso   1.000  C
  C14      1.0000 0.07270  0.59380  0.77650  Biso   1.000  C
  C15      1.0000 0.79760  0.85210  0.63360  Biso   1.000  C
  C16      1.0000 0.90470  0.89960  0.60910  Biso   1.000  C
  C17      1.0000 0.93900  0.08940  0.72540  Biso   1.000  C
  C18      1.0000 0.07270  0.09380  0.72350  Biso   1.000  C
  C19      1.0000 0.79760  0.35210  0.86640  Biso   1.000  C
  C20      1.0000 0.90470  0.39960  0.89090  Biso   1.000  C
  C21      1.0000 0.43900  0.41060  0.77460  Biso   1.000  C
  C22      1.0000 0.57270  0.40620  0.77650  Biso   1.000  C
  C23      1.0000 0.29760  0.14790  0.63360  Biso   1.000  C
  C24      1.0000 0.40470  0.10040  0.60910  Biso   1.000  C
  C25      1.0000 0.56100  0.08940  0.27460  Biso   1.000  C
  C26      1.0000 0.42730  0.09380  0.27650  Biso   1.000  C
  C27      1.0000 0.70240  0.35210  0.13360  Biso   1.000  C
  C28      1.0000 0.59530  0.39960  0.10910  Biso   1.000  C
  C29      1.0000 0.06100  0.41060  0.22540  Biso   1.000  C
  C30      1.0000 0.92730  0.40620  0.22350  Biso   1.000  C
  C31      1.0000 0.20240  0.14790  0.36640  Biso   1.000  C
  C32      1.0000 0.09530  0.10040  0.39090  Biso   1.000  C
  O1       1.0000 0.13080  0.71600  0.28290  Biso   1.000  O
  O2       1.0000 0.08300  0.81170  0.36430  Biso   1.000  O
  O3       1.0000 0.26960  0.85130  0.31530  Biso   1.000  O
  O4       1.0000 0.13100  0.99690  0.26970  Biso   1.000  O
  O5       1.0000 0.87960  0.82380  0.26960  Biso   1.000  O
  O6       1.0000 0.87350  0.98260  0.28970  Biso   1.000  O
  O7       1.0000 0.34830  0.62520  0.05200  Biso   1.000  O
  O8       1.0000 0.21570  0.77880  0.05480  Biso   1.000  O
  O9       1.0000 0.39300  0.76620  0.11400  Biso   1.000  O
  O10      1.0000 0.20610  0.69820  0.18030  Biso   1.000  O
  O11      1.0000 0.11380  0.54560  0.07190  Biso   1.000  O
  O12      1.0000 0.99920  0.61110  0.13120  Biso   1.000  O
  O13      1.0000 0.86590  0.61400  0.31040  Biso   1.000  O
  O14      1.0000 0.95580  0.82710  0.15880  Biso   1.000  O
  O15      1.0000 0.29110  0.42160  0.09690  Biso   1.000  O
  O16      1.0000 0.06420  0.36130  0.01430  Biso   1.000  O
  O17      1.0000 0.63080  0.78400  0.21710  Biso   1.000  O
  O18      1.0000 0.58300  0.68830  0.13570  Biso   1.000  O
  O19      1.0000 0.76960  0.64870  0.18470  Biso   1.000  O
  O20      1.0000 0.63100  0.50310  0.23030  Biso   1.000  O
  O21      1.0000 0.37960  0.67620  0.23040  Biso   1.000  O
  O22      1.0000 0.37350  0.51740  0.21030  Biso   1.000  O
  O23      1.0000 0.84830  0.87480  0.44800  Biso   1.000  O
  O24      1.0000 0.71570  0.72120  0.44520  Biso   1.000  O
  O25      1.0000 0.89300  0.73380  0.38600  Biso   1.000  O
  O26      1.0000 0.70610  0.80180  0.31970  Biso   1.000  O
  O27      1.0000 0.61380  0.95440  0.42810  Biso   1.000  O
  O28      1.0000 0.49920  0.88890  0.36880  Biso   1.000  O
  O29      1.0000 0.36590  0.88600  0.18960  Biso   1.000  O
  O30      1.0000 0.45580  0.67290  0.34120  Biso   1.000  O
  O31      1.0000 0.79110  0.07840  0.40310  Biso   1.000  O
  O32      1.0000 0.56420  0.13870  0.48570  Biso   1.000  O
  O33      1.0000 0.36920  0.71600  0.71710  Biso   1.000  O
  O34      1.0000 0.41700  0.81170  0.63570  Biso   1.000  O
  O35      1.0000 0.23040  0.85130  0.68470  Biso   1.000  O
  O36      1.0000 0.36900  0.99690  0.73030  Biso   1.000  O
  O37      1.0000 0.62040  0.82380  0.73040  Biso   1.000  O
  O38      1.0000 0.62650  0.98260  0.71030  Biso   1.000  O
  O39      1.0000 0.15170  0.62520  0.94800  Biso   1.000  O
  O40      1.0000 0.28430  0.77880  0.94520  Biso   1.000  O
  O41      1.0000 0.10700  0.76620  0.88600  Biso   1.000  O
  O42      1.0000 0.29390  0.69820  0.81970  Biso   1.000  O
  O43      1.0000 0.38620  0.54560  0.92810  Biso   1.000  O
  O44      1.0000 0.50080  0.61110  0.86880  Biso   1.000  O
  O45      1.0000 0.63410  0.61400  0.68960  Biso   1.000  O
  O46      1.0000 0.54420  0.82710  0.84120  Biso   1.000  O
  O47      1.0000 0.20890  0.42160  0.90310  Biso   1.000  O
  O48      1.0000 0.43580  0.36130  0.98570  Biso   1.000  O
  O49      1.0000 0.86920  0.78400  0.78290  Biso   1.000  O
  O50      1.0000 0.91700  0.68830  0.86430  Biso   1.000  O
  O51      1.0000 0.73040  0.64870  0.81530  Biso   1.000  O
  O52      1.0000 0.86900  0.50310  0.76970  Biso   1.000  O
  O53      1.0000 0.12040  0.67620  0.76960  Biso   1.000  O
  O54      1.0000 0.12650  0.51740  0.78970  Biso   1.000  O
  O55      1.0000 0.65170  0.87480  0.55200  Biso   1.000  O
  O56      1.0000 0.78430  0.72120  0.55480  Biso   1.000  O
  O57      1.0000 0.60700  0.73380  0.61400  Biso   1.000  O
  O58      1.0000 0.79390  0.80180  0.68030  Biso   1.000  O
  O59      1.0000 0.88620  0.95440  0.57190  Biso   1.000  O
  O60      1.0000 0.00080  0.88890  0.63120  Biso   1.000  O
  O61      1.0000 0.13410  0.88600  0.81040  Biso   1.000  O
  O62      1.0000 0.04420  0.67290  0.65880  Biso   1.000  O
  O63      1.0000 0.70890  0.07840  0.59690  Biso   1.000  O
  O64      1.0000 0.93580  0.13870  0.51430  Biso   1.000  O
  O65      1.0000 0.86920  0.28400  0.71710  Biso   1.000  O
  O66      1.0000 0.91700  0.18830  0.63570  Biso   1.000  O
  O67      1.0000 0.73040  0.14870  0.68470  Biso   1.000  O
  O68      1.0000 0.86900  0.00310  0.73030  Biso   1.000  O
  O69      1.0000 0.12040  0.17620  0.73040  Biso   1.000  O
  O70      1.0000 0.12650  0.01740  0.71030  Biso   1.000  O
  O71      1.0000 0.65170  0.37480  0.94800  Biso   1.000  O
  O72      1.0000 0.78430  0.22120  0.94520  Biso   1.000  O
  O73      1.0000 0.60700  0.23380  0.88600  Biso   1.000  O
  O74      1.0000 0.79390  0.30180  0.81970  Biso   1.000  O
  O75      1.0000 0.88620  0.45440  0.92810  Biso   1.000  O
  O76      1.0000 0.00080  0.38890  0.86880  Biso   1.000  O
  O77      1.0000 0.13410  0.38600  0.68960  Biso   1.000  O
  O78      1.0000 0.04420  0.17290  0.84120  Biso   1.000  O
  O79      1.0000 0.70890  0.57840  0.90310  Biso   1.000  O
  O80      1.0000 0.93580  0.63870  0.98570  Biso   1.000  O
  O81      1.0000 0.36920  0.21600  0.78290  Biso   1.000  O
  O82      1.0000 0.41700  0.31170  0.86430  Biso   1.000  O
  O83      1.0000 0.23040  0.35130  0.81530  Biso   1.000  O
  O84      1.0000 0.36900  0.49690  0.76970  Biso   1.000  O
  O85      1.0000 0.62040  0.32380  0.76960  Biso   1.000  O
  O86      1.0000 0.62650  0.48260  0.78970  Biso   1.000  O
  O87      1.0000 0.15170  0.12520  0.55200  Biso   1.000  O
  O88      1.0000 0.28430  0.27880  0.55480  Biso   1.000  O
  O89      1.0000 0.10700  0.26620  0.61400  Biso   1.000  O
  O90      1.0000 0.29390  0.19820  0.68030  Biso   1.000  O
  O91      1.0000 0.38620  0.04560  0.57190  Biso   1.000  O
  O92      1.0000 0.50080  0.11110  0.63120  Biso   1.000  O
  O93      1.0000 0.63410  0.11400  0.81040  Biso   1.000  O
  O94      1.0000 0.54420  0.32710  0.65880  Biso   1.000  O
  O95      1.0000 0.20890  0.92160  0.59690  Biso   1.000  O
  O96      1.0000 0.43580  0.86130  0.51430  Biso   1.000  O
  O97      1.0000 0.63080  0.28400  0.28290  Biso   1.000  O
  O98      1.0000 0.58300  0.18830  0.36430  Biso   1.000  O
  O99      1.0000 0.76960  0.14870  0.31530  Biso   1.000  O
  O100     1.0000 0.63100  0.00310  0.26970  Biso   1.000  O
  O101     1.0000 0.37960  0.17620  0.26960  Biso   1.000  O
  O102     1.0000 0.37350  0.01740  0.28970  Biso   1.000  O
  O103     1.0000 0.84830  0.37480  0.05200  Biso   1.000  O
  O104     1.0000 0.71570  0.22120  0.05480  Biso   1.000  O
  O105     1.0000 0.89300  0.23380  0.11400  Biso   1.000  O
  O106     1.0000 0.70610  0.30180  0.18030  Biso   1.000  O
  O107     1.0000 0.61380  0.45440  0.07190  Biso   1.000  O
  O108     1.0000 0.49920  0.38890  0.13120  Biso   1.000  O
  O109     1.0000 0.36590  0.38600  0.31040  Biso   1.000  O
  O110     1.0000 0.45580  0.17290  0.15880  Biso   1.000  O
  O111     1.0000 0.79110  0.57840  0.09690  Biso   1.000  O
  O112     1.0000 0.56420  0.63870  0.01430  Biso   1.000  O
  O113     1.0000 0.13080  0.21600  0.21710  Biso   1.000  O
  O114     1.0000 0.08300  0.31170  0.13570  Biso   1.000  O
  O115     1.0000 0.26960  0.35130  0.18470  Biso   1.000  O
  O116     1.0000 0.13100  0.49690  0.23030  Biso   1.000  O
  O117     1.0000 0.87960  0.32380  0.23040  Biso   1.000  O
  O118     1.0000 0.87350  0.48260  0.21030  Biso   1.000  O
  O119     1.0000 0.34830  0.12520  0.44800  Biso   1.000  O
  O120     1.0000 0.21570  0.27880  0.44520  Biso   1.000  O
  O121     1.0000 0.39300  0.26620  0.38600  Biso   1.000  O
  O122     1.0000 0.20610  0.19820  0.31970  Biso   1.000  O
  O123     1.0000 0.11380  0.04560  0.42810  Biso   1.000  O
  O124     1.0000 0.99920  0.11110  0.36880  Biso   1.000  O
  O125     1.0000 0.86590  0.11400  0.18960  Biso   1.000  O
  O126     1.0000 0.95580  0.32710  0.34120  Biso   1.000  O
  O127     1.0000 0.29110  0.92160  0.40310  Biso   1.000  O
  O128     1.0000 0.06420  0.86130  0.48570  Biso   1.000  O
