data_image0
_cell_length_a       12.564
_cell_length_b       16.581
_cell_length_c       16.581
_cell_angle_alpha    66.1523
_cell_angle_beta     75.3699
_cell_angle_gamma    104.63

_symmetry_space_group_name_H-M    P 1
_symmetry_int_tables_number       1

loop_
  _symmetry_equiv_pos_as_xyz
  'x, y, z'

loop_
  _atom_site_label
  _atom_site_occupancy
  _atom_site_fract_x
  _atom_site_fract_y
  _atom_site_fract_z
  _atom_site_thermal_displace_type
  _atom_site_B_iso_or_equiv
  _atom_site_type_symbol
  Ba1      1.0000 0.70493  0.40986  0.29507  Biso   1.000  Ba
  Ba2      1.0000 0.00000  0.29507  0.29507  Biso   1.000  Ba
  Ba3      1.0000 0.29507  0.29507  0.40986  Biso   1.000  Ba
  Ba4      1.0000 0.29507  0.59014  0.70493  Biso   1.000  Ba
  Ba5      1.0000 0.00000  0.70493  0.70493  Biso   1.000  Ba
  Ba6      1.0000 0.70493  0.70493  0.59014  Biso   1.000  Ba
  Cu1      1.0000 0.89257  0.62747  0.37253  Biso   1.000  Cu
  Cu2      1.0000 0.26510  0.37253  0.00000  Biso   1.000  Cu
  Cu3      1.0000 0.26510  0.00000  0.62747  Biso   1.000  Cu
  Cu4      1.0000 0.73490  0.00000  0.37253  Biso   1.000  Cu
  Cu5      1.0000 0.73490  0.62747  0.00000  Biso   1.000  Cu
  Cu6      1.0000 0.10743  0.37253  0.62747  Biso   1.000  Cu
  H1       1.0000 0.53300  0.45690  0.19090  Biso   1.000  H
  H2       1.0000 0.49990  0.36840  0.21070  Biso   1.000  H
  H3       1.0000 0.77170  0.33270  0.15310  Biso   1.000  H
  H4       1.0000 0.74820  0.49450  0.54890  Biso   1.000  H
  H5       1.0000 0.65780  0.28900  0.18860  Biso   1.000  H
  H6       1.0000 0.72390  0.19090  0.35220  Biso   1.000  H
  H7       1.0000 0.71060  0.21070  0.42090  Biso   1.000  H
  H8       1.0000 0.92480  0.15310  0.51420  Biso   1.000  H
  H9       1.0000 0.29710  0.54890  0.95660  Biso   1.000  H
  H10      1.0000 0.84640  0.18860  0.52240  Biso   1.000  H
  H11      1.0000 0.07610  0.35220  0.45690  Biso   1.000  H
  H12      1.0000 0.13150  0.42090  0.36840  Biso   1.000  H
  H13      1.0000 0.43900  0.51420  0.33270  Biso   1.000  H
  H14      1.0000 0.25370  0.95660  0.49450  Biso   1.000  H
  H15      1.0000 0.36880  0.52240  0.28900  Biso   1.000  H
  H16      1.0000 0.27610  0.35220  0.19090  Biso   1.000  H
  H17      1.0000 0.28940  0.42090  0.21070  Biso   1.000  H
  H18      1.0000 0.07520  0.51420  0.15310  Biso   1.000  H
  H19      1.0000 0.70290  0.95660  0.54890  Biso   1.000  H
  H20      1.0000 0.15360  0.52240  0.18860  Biso   1.000  H
  H21      1.0000 0.92390  0.45690  0.35220  Biso   1.000  H
  H22      1.0000 0.86850  0.36840  0.42090  Biso   1.000  H
  H23      1.0000 0.56100  0.33270  0.51420  Biso   1.000  H
  H24      1.0000 0.74630  0.49450  0.95660  Biso   1.000  H
  H25      1.0000 0.63120  0.28900  0.52240  Biso   1.000  H
  H26      1.0000 0.46700  0.19090  0.45690  Biso   1.000  H
  H27      1.0000 0.50010  0.21070  0.36840  Biso   1.000  H
  H28      1.0000 0.22830  0.15310  0.33270  Biso   1.000  H
  H29      1.0000 0.25180  0.54890  0.49450  Biso   1.000  H
  H30      1.0000 0.34220  0.18860  0.28900  Biso   1.000  H
  H31      1.0000 0.46700  0.54310  0.80910  Biso   1.000  H
  H32      1.0000 0.50010  0.63160  0.78930  Biso   1.000  H
  H33      1.0000 0.22830  0.66730  0.84690  Biso   1.000  H
  H34      1.0000 0.25180  0.50550  0.45110  Biso   1.000  H
  H35      1.0000 0.34220  0.71100  0.81140  Biso   1.000  H
  H36      1.0000 0.27610  0.80910  0.64780  Biso   1.000  H
  H37      1.0000 0.28940  0.78930  0.57910  Biso   1.000  H
  H38      1.0000 0.07520  0.84690  0.48580  Biso   1.000  H
  H39      1.0000 0.70290  0.45110  0.04340  Biso   1.000  H
  H40      1.0000 0.15360  0.81140  0.47760  Biso   1.000  H
  H41      1.0000 0.92390  0.64780  0.54310  Biso   1.000  H
  H42      1.0000 0.86850  0.57910  0.63160  Biso   1.000  H
  H43      1.0000 0.56100  0.48580  0.66730  Biso   1.000  H
  H44      1.0000 0.74630  0.04340  0.50550  Biso   1.000  H
  H45      1.0000 0.63120  0.47760  0.71100  Biso   1.000  H
  H46      1.0000 0.72390  0.64780  0.80910  Biso   1.000  H
  H47      1.0000 0.71060  0.57910  0.78930  Biso   1.000  H
  H48      1.0000 0.92480  0.48580  0.84690  Biso   1.000  H
  H49      1.0000 0.29710  0.04340  0.45110  Biso   1.000  H
  H50      1.0000 0.84640  0.47760  0.81140  Biso   1.000  H
  H51      1.0000 0.07610  0.54310  0.64780  Biso   1.000  H
  H52      1.0000 0.13150  0.63160  0.57910  Biso   1.000  H
  H53      1.0000 0.43900  0.66730  0.48580  Biso   1.000  H
  H54      1.0000 0.25370  0.50550  0.04340  Biso   1.000  H
  H55      1.0000 0.36880  0.71100  0.47760  Biso   1.000  H
  H56      1.0000 0.53300  0.80910  0.54310  Biso   1.000  H
  H57      1.0000 0.49990  0.78930  0.63160  Biso   1.000  H
  H58      1.0000 0.77170  0.84690  0.66730  Biso   1.000  H
  H59      1.0000 0.74820  0.45110  0.50550  Biso   1.000  H
  H60      1.0000 0.65780  0.81140  0.71100  Biso   1.000  H
  C1       1.0000 0.11855  0.70250  0.38745  Biso   1.000  C
  C2       1.0000 0.69318  0.59579  0.31545  Biso   1.000  C
  C3       1.0000 0.50600  0.38745  0.91005  Biso   1.000  C
  C4       1.0000 0.00863  0.31545  0.08876  Biso   1.000  C
  C5       1.0000 0.41605  0.91005  0.70250  Biso   1.000  C
  C6       1.0000 0.09739  0.08876  0.59579  Biso   1.000  C
  C7       1.0000 0.49400  0.91005  0.38745  Biso   1.000  C
  C8       1.0000 0.99137  0.08876  0.31545  Biso   1.000  C
  C9       1.0000 0.58395  0.70250  0.91005  Biso   1.000  C
  C10      1.0000 0.90261  0.59579  0.08876  Biso   1.000  C
  C11      1.0000 0.88145  0.38745  0.70250  Biso   1.000  C
  C12      1.0000 0.30682  0.31545  0.59579  Biso   1.000  C
  C13      1.0000 0.88145  0.29750  0.61255  Biso   1.000  C
  C14      1.0000 0.30682  0.40421  0.68455  Biso   1.000  C
  C15      1.0000 0.49400  0.61255  0.08995  Biso   1.000  C
  C16      1.0000 0.99137  0.68455  0.91124  Biso   1.000  C
  C17      1.0000 0.58395  0.08995  0.29750  Biso   1.000  C
  C18      1.0000 0.90261  0.91124  0.40421  Biso   1.000  C
  C19      1.0000 0.50600  0.08995  0.61255  Biso   1.000  C
  C20      1.0000 0.00863  0.91124  0.68455  Biso   1.000  C
  C21      1.0000 0.41605  0.29750  0.08995  Biso   1.000  C
  C22      1.0000 0.09739  0.40421  0.91124  Biso   1.000  C
  C23      1.0000 0.11855  0.61255  0.29750  Biso   1.000  C
  C24      1.0000 0.69318  0.68455  0.40421  Biso   1.000  C
  C25      1.0000 0.31502  0.73068  0.26932  Biso   1.000  C
  C26      1.0000 0.18196  0.70899  0.29101  Biso   1.000  C
  C27      1.0000 0.16970  0.79020  0.20980  Biso   1.000  C
  C28      1.0000 0.68742  0.68883  0.31117  Biso   1.000  C
  C29      1.0000 0.57374  0.69891  0.30109  Biso   1.000  C
  C30      1.0000 0.79714  0.77571  0.22429  Biso   1.000  C
  C31      1.0000 0.58434  0.26932  0.00000  Biso   1.000  C
  C32      1.0000 0.47297  0.29101  0.00000  Biso   1.000  C
  C33      1.0000 0.37950  0.20980  1.00000  Biso   1.000  C
  C34      1.0000 0.99859  0.31117  0.00000  Biso   1.000  C
  C35      1.0000 0.87483  0.30109  0.00000  Biso   1.000  C
  C36      1.0000 0.02143  0.22429  0.00000  Biso   1.000  C
  C37      1.0000 0.58434  0.00000  0.73068  Biso   1.000  C
  C38      1.0000 0.47297  1.00000  0.70899  Biso   1.000  C
  C39      1.0000 0.37950  0.00000  0.79020  Biso   1.000  C
  C40      1.0000 0.99859  0.00000  0.68883  Biso   1.000  C
  C41      1.0000 0.87483  0.00000  0.69891  Biso   1.000  C
  C42      1.0000 0.02143  1.00000  0.77571  Biso   1.000  C
  C43      1.0000 0.41566  0.00000  0.26932  Biso   1.000  C
  C44      1.0000 0.52703  0.00000  0.29101  Biso   1.000  C
  C45      1.0000 0.62050  0.00000  0.20980  Biso   1.000  C
  C46      1.0000 0.00141  0.00000  0.31117  Biso   1.000  C
  C47      1.0000 0.12517  0.00000  0.30109  Biso   1.000  C
  C48      1.0000 0.97857  1.00000  0.22429  Biso   1.000  C
  C49      1.0000 0.41566  0.73068  1.00000  Biso   1.000  C
  C50      1.0000 0.52703  0.70899  1.00000  Biso   1.000  C
  C51      1.0000 0.62050  0.79020  0.00000  Biso   1.000  C
  C52      1.0000 0.00141  0.68883  1.00000  Biso   1.000  C
  C53      1.0000 0.12517  0.69891  0.00000  Biso   1.000  C
  C54      1.0000 0.97857  0.77571  0.00000  Biso   1.000  C
  C55      1.0000 0.68498  0.26932  0.73068  Biso   1.000  C
  C56      1.0000 0.81804  0.29101  0.70899  Biso   1.000  C
  C57      1.0000 0.83030  0.20980  0.79020  Biso   1.000  C
  C58      1.0000 0.31258  0.31117  0.68883  Biso   1.000  C
  C59      1.0000 0.42626  0.30109  0.69891  Biso   1.000  C
  C60      1.0000 0.20286  0.22429  0.77571  Biso   1.000  C
  O1       1.0000 0.00545  0.68454  0.41491  Biso   1.000  O
  O2       1.0000 0.78827  0.58148  0.31641  Biso   1.000  O
  O3       1.0000 0.17649  0.71704  0.43355  Biso   1.000  O
  O4       1.0000 0.51077  0.40032  0.23635  Biso   1.000  O
  O5       1.0000 0.71399  0.34388  0.16326  Biso   1.000  O
  O6       1.0000 0.60732  0.53724  0.31702  Biso   1.000  O
  O7       1.0000 0.42036  0.41491  0.90055  Biso   1.000  O
  O8       1.0000 0.10468  0.31641  0.10211  Biso   1.000  O
  O9       1.0000 0.61004  0.43355  0.84941  Biso   1.000  O
  O10      1.0000 0.74712  0.23635  0.36333  Biso   1.000  O
  O11      1.0000 0.87725  0.16326  0.49286  Biso   1.000  O
  O12      1.0000 0.92434  0.31702  0.14574  Biso   1.000  O
  O13      1.0000 0.32091  0.90055  0.68454  Biso   1.000  O
  O14      1.0000 0.20679  0.10211  0.58148  Biso   1.000  O
  O15      1.0000 0.45945  0.84941  0.71704  Biso   1.000  O
  O16      1.0000 0.11045  0.36333  0.40032  Biso   1.000  O
  O17      1.0000 0.37011  0.49286  0.34388  Biso   1.000  O
  O18      1.0000 0.07008  0.14574  0.53724  Biso   1.000  O
  O19      1.0000 0.57964  0.90055  0.41491  Biso   1.000  O
  O20      1.0000 0.89532  0.10211  0.31641  Biso   1.000  O
  O21      1.0000 0.38996  0.84941  0.43355  Biso   1.000  O
  O22      1.0000 0.25288  0.36333  0.23635  Biso   1.000  O
  O23      1.0000 0.12275  0.49286  0.16326  Biso   1.000  O
  O24      1.0000 0.07566  0.14574  0.31702  Biso   1.000  O
  O25      1.0000 0.67909  0.68454  0.90055  Biso   1.000  O
  O26      1.0000 0.79321  0.58148  0.10211  Biso   1.000  O
  O27      1.0000 0.54055  0.71704  0.84941  Biso   1.000  O
  O28      1.0000 0.88955  0.40032  0.36333  Biso   1.000  O
  O29      1.0000 0.62989  0.34388  0.49286  Biso   1.000  O
  O30      1.0000 0.92992  0.53724  0.14574  Biso   1.000  O
  O31      1.0000 0.99455  0.41491  0.68454  Biso   1.000  O
  O32      1.0000 0.21173  0.31641  0.58148  Biso   1.000  O
  O33      1.0000 0.82351  0.43355  0.71704  Biso   1.000  O
  O34      1.0000 0.48923  0.23635  0.40032  Biso   1.000  O
  O35      1.0000 0.28601  0.16326  0.34388  Biso   1.000  O
  O36      1.0000 0.39268  0.31702  0.53724  Biso   1.000  O
  O37      1.0000 0.99455  0.31546  0.58509  Biso   1.000  O
  O38      1.0000 0.21173  0.41852  0.68359  Biso   1.000  O
  O39      1.0000 0.82351  0.28296  0.56645  Biso   1.000  O
  O40      1.0000 0.48923  0.59968  0.76365  Biso   1.000  O
  O41      1.0000 0.28601  0.65612  0.83674  Biso   1.000  O
  O42      1.0000 0.39268  0.46276  0.68298  Biso   1.000  O
  O43      1.0000 0.57964  0.58509  0.09945  Biso   1.000  O
  O44      1.0000 0.89532  0.68359  0.89789  Biso   1.000  O
  O45      1.0000 0.38996  0.56645  0.15059  Biso   1.000  O
  O46      1.0000 0.25288  0.76365  0.63667  Biso   1.000  O
  O47      1.0000 0.12275  0.83674  0.50714  Biso   1.000  O
  O48      1.0000 0.07566  0.68298  0.85426  Biso   1.000  O
  O49      1.0000 0.67909  0.09945  0.31546  Biso   1.000  O
  O50      1.0000 0.79321  0.89789  0.41852  Biso   1.000  O
  O51      1.0000 0.54055  0.15059  0.28296  Biso   1.000  O
  O52      1.0000 0.88955  0.63667  0.59968  Biso   1.000  O
  O53      1.0000 0.62989  0.50714  0.65612  Biso   1.000  O
  O54      1.0000 0.92992  0.85426  0.46276  Biso   1.000  O
  O55      1.0000 0.42036  0.09945  0.58509  Biso   1.000  O
  O56      1.0000 0.10468  0.89789  0.68359  Biso   1.000  O
  O57      1.0000 0.61004  0.15059  0.56645  Biso   1.000  O
  O58      1.0000 0.74712  0.63667  0.76365  Biso   1.000  O
  O59      1.0000 0.87725  0.50714  0.83674  Biso   1.000  O
  O60      1.0000 0.92434  0.85426  0.68298  Biso   1.000  O
  O61      1.0000 0.32091  0.31546  0.09945  Biso   1.000  O
  O62      1.0000 0.20679  0.41852  0.89789  Biso   1.000  O
  O63      1.0000 0.45945  0.28296  0.15059  Biso   1.000  O
  O64      1.0000 0.11045  0.59968  0.63667  Biso   1.000  O
  O65      1.0000 0.37011  0.65612  0.50714  Biso   1.000  O
  O66      1.0000 0.07008  0.46276  0.85426  Biso   1.000  O
  O67      1.0000 0.00545  0.58509  0.31546  Biso   1.000  O
  O68      1.0000 0.78827  0.68359  0.41852  Biso   1.000  O
  O69      1.0000 0.17649  0.56645  0.28296  Biso   1.000  O
  O70      1.0000 0.51077  0.76365  0.59968  Biso   1.000  O
  O71      1.0000 0.71399  0.83674  0.65612  Biso   1.000  O
  O72      1.0000 0.60732  0.68298  0.46276  Biso   1.000  O
  O73      1.0000 0.78844  0.48831  0.51169  Biso   1.000  O
  O74      1.0000 0.30013  0.51169  1.00000  Biso   1.000  O
  O75      1.0000 0.30013  0.00000  0.48831  Biso   1.000  O
  O76      1.0000 0.69987  0.00000  0.51169  Biso   1.000  O
  O77      1.0000 0.69987  0.48831  1.00000  Biso   1.000  O
  O78      1.0000 0.21156  0.51169  0.48831  Biso   1.000  O
