data_image0
_cell_length_a       19.505
_cell_length_b       19.505
_cell_length_c       19.505
_cell_angle_alpha    90
_cell_angle_beta     90
_cell_angle_gamma    90

_symmetry_space_group_name_H-M    "P 1"
_symmetry_int_tables_number       1

loop_
  _symmetry_equiv_pos_as_xyz
  'x, y, z'

loop_
  _atom_site_label
  _atom_site_occupancy
  _atom_site_fract_x
  _atom_site_fract_y
  _atom_site_fract_z
  _atom_site_thermal_displace_type
  _atom_site_B_iso_or_equiv
  _atom_site_type_symbol
  N1       1.0000 0.52890  0.33720  0.17530  Biso   1.000  N
  C1       1.0000 0.53190  0.39410  0.13700  Biso   1.000  C
  C2       1.0000 0.53640  0.45990  0.16210  Biso   1.000  C
  C3       1.0000 0.53710  0.46680  0.23410  Biso   1.000  C
  C4       1.0000 0.53610  0.40810  0.27590  Biso   1.000  C
  C5       1.0000 0.53250  0.34550  0.24400  Biso   1.000  C
  C6       1.0000 0.53940  0.52080  0.12080  Biso   1.000  C
  C7       1.0000 0.53830  0.41510  0.35020  Biso   1.000  C
  H1       1.0000 0.53090  0.38860  0.08860  Biso   1.000  H
  H2       1.0000 0.53250  0.30560  0.27190  Biso   1.000  H
  H3       1.0000 0.54230  0.51660  0.07240  Biso   1.000  H
  H4       1.0000 0.53900  0.37550  0.37850  Biso   1.000  H
  N2       1.0000 0.02890  0.83720  0.67530  Biso   1.000  N
  C8       1.0000 0.03190  0.89410  0.63700  Biso   1.000  C
  C9       1.0000 0.03640  0.95990  0.66210  Biso   1.000  C
  C10      1.0000 0.03710  0.96680  0.73410  Biso   1.000  C
  C11      1.0000 0.03610  0.90810  0.77590  Biso   1.000  C
  C12      1.0000 0.03250  0.84550  0.74400  Biso   1.000  C
  C13      1.0000 0.03940  0.02080  0.62080  Biso   1.000  C
  C14      1.0000 0.03830  0.91510  0.85020  Biso   1.000  C
  H5       1.0000 0.03090  0.88860  0.58860  Biso   1.000  H
  H6       1.0000 0.03250  0.80560  0.77190  Biso   1.000  H
  H7       1.0000 0.04230  0.01660  0.57240  Biso   1.000  H
  H8       1.0000 0.03900  0.87550  0.87850  Biso   1.000  H
  N3       1.0000 0.97110  0.66280  0.67530  Biso   1.000  N
  C15      1.0000 0.96810  0.60590  0.63700  Biso   1.000  C
  C16      1.0000 0.96360  0.54010  0.66210  Biso   1.000  C
  C17      1.0000 0.96290  0.53320  0.73410  Biso   1.000  C
  C18      1.0000 0.96390  0.59190  0.77590  Biso   1.000  C
  C19      1.0000 0.96750  0.65450  0.74400  Biso   1.000  C
  C20      1.0000 0.96060  0.47920  0.62080  Biso   1.000  C
  C21      1.0000 0.96170  0.58490  0.85020  Biso   1.000  C
  H9       1.0000 0.96910  0.61140  0.58860  Biso   1.000  H
  H10      1.0000 0.96750  0.69440  0.77190  Biso   1.000  H
  H11      1.0000 0.95770  0.48340  0.57240  Biso   1.000  H
  H12      1.0000 0.96100  0.62450  0.87850  Biso   1.000  H
  N4       1.0000 0.47110  0.16280  0.17530  Biso   1.000  N
  C22      1.0000 0.46810  0.10590  0.13700  Biso   1.000  C
  C23      1.0000 0.46360  0.04010  0.16210  Biso   1.000  C
  C24      1.0000 0.46290  0.03320  0.23410  Biso   1.000  C
  C25      1.0000 0.46390  0.09190  0.27590  Biso   1.000  C
  C26      1.0000 0.46750  0.15450  0.24400  Biso   1.000  C
  C27      1.0000 0.46060  0.97920  0.12080  Biso   1.000  C
  C28      1.0000 0.46170  0.08490  0.35020  Biso   1.000  C
  H13      1.0000 0.46910  0.11140  0.08860  Biso   1.000  H
  H14      1.0000 0.46750  0.19440  0.27190  Biso   1.000  H
  H15      1.0000 0.45770  0.98340  0.07240  Biso   1.000  H
  H16      1.0000 0.46100  0.12450  0.37850  Biso   1.000  H
  N5       1.0000 0.47110  0.83720  0.32470  Biso   1.000  N
  C29      1.0000 0.46810  0.89410  0.36300  Biso   1.000  C
  C30      1.0000 0.46360  0.95990  0.33790  Biso   1.000  C
  C31      1.0000 0.46290  0.96680  0.26590  Biso   1.000  C
  C32      1.0000 0.46390  0.90810  0.22410  Biso   1.000  C
  C33      1.0000 0.46750  0.84550  0.25600  Biso   1.000  C
  C34      1.0000 0.46060  0.02080  0.37920  Biso   1.000  C
  C35      1.0000 0.46170  0.91510  0.14980  Biso   1.000  C
  H17      1.0000 0.46910  0.88860  0.41140  Biso   1.000  H
  H18      1.0000 0.46750  0.80560  0.22810  Biso   1.000  H
  H19      1.0000 0.45770  0.01660  0.42760  Biso   1.000  H
  H20      1.0000 0.46100  0.87550  0.12150  Biso   1.000  H
  N6       1.0000 0.97110  0.33720  0.82470  Biso   1.000  N
  C36      1.0000 0.96810  0.39410  0.86300  Biso   1.000  C
  C37      1.0000 0.96360  0.45990  0.83790  Biso   1.000  C
  C38      1.0000 0.96290  0.46680  0.76590  Biso   1.000  C
  C39      1.0000 0.96390  0.40810  0.72410  Biso   1.000  C
  C40      1.0000 0.96750  0.34550  0.75600  Biso   1.000  C
  C41      1.0000 0.96060  0.52080  0.87920  Biso   1.000  C
  C42      1.0000 0.96170  0.41510  0.64980  Biso   1.000  C
  H21      1.0000 0.96910  0.38860  0.91140  Biso   1.000  H
  H22      1.0000 0.96750  0.30560  0.72810  Biso   1.000  H
  H23      1.0000 0.95770  0.51660  0.92760  Biso   1.000  H
  H24      1.0000 0.96100  0.37550  0.62150  Biso   1.000  H
  N7       1.0000 0.02890  0.16280  0.82470  Biso   1.000  N
  C43      1.0000 0.03190  0.10590  0.86300  Biso   1.000  C
  C44      1.0000 0.03640  0.04010  0.83790  Biso   1.000  C
  C45      1.0000 0.03710  0.03320  0.76590  Biso   1.000  C
  C46      1.0000 0.03610  0.09190  0.72410  Biso   1.000  C
  C47      1.0000 0.03250  0.15450  0.75600  Biso   1.000  C
  C48      1.0000 0.03940  0.97920  0.87920  Biso   1.000  C
  C49      1.0000 0.03830  0.08490  0.64980  Biso   1.000  C
  H25      1.0000 0.03090  0.11140  0.91140  Biso   1.000  H
  H26      1.0000 0.03250  0.19440  0.72810  Biso   1.000  H
  H27      1.0000 0.04230  0.98340  0.92760  Biso   1.000  H
  H28      1.0000 0.03900  0.12450  0.62150  Biso   1.000  H
  N8       1.0000 0.52890  0.66280  0.32470  Biso   1.000  N
  C50      1.0000 0.53190  0.60590  0.36300  Biso   1.000  C
  C51      1.0000 0.53640  0.54010  0.33790  Biso   1.000  C
  C52      1.0000 0.53710  0.53320  0.26590  Biso   1.000  C
  C53      1.0000 0.53610  0.59190  0.22410  Biso   1.000  C
  C54      1.0000 0.53250  0.65450  0.25600  Biso   1.000  C
  C55      1.0000 0.53940  0.47920  0.37920  Biso   1.000  C
  C56      1.0000 0.53830  0.58490  0.14980  Biso   1.000  C
  H29      1.0000 0.53090  0.61140  0.41140  Biso   1.000  H
  H30      1.0000 0.53250  0.69440  0.22810  Biso   1.000  H
  H31      1.0000 0.54230  0.48340  0.42760  Biso   1.000  H
  H32      1.0000 0.53900  0.62450  0.12150  Biso   1.000  H
  N9       1.0000 0.58720  0.77890  0.42530  Biso   1.000  N
  C57      1.0000 0.64410  0.78190  0.38700  Biso   1.000  C
  C58      1.0000 0.70990  0.78640  0.41210  Biso   1.000  C
  C59      1.0000 0.71680  0.78710  0.48410  Biso   1.000  C
  C60      1.0000 0.65810  0.78610  0.52590  Biso   1.000  C
  C61      1.0000 0.59550  0.78250  0.49400  Biso   1.000  C
  C62      1.0000 0.77080  0.78940  0.37080  Biso   1.000  C
  C63      1.0000 0.66510  0.78830  0.60020  Biso   1.000  C
  H33      1.0000 0.63860  0.78090  0.33860  Biso   1.000  H
  H34      1.0000 0.55560  0.78250  0.52190  Biso   1.000  H
  H35      1.0000 0.76660  0.79230  0.32240  Biso   1.000  H
  H36      1.0000 0.62550  0.78900  0.62850  Biso   1.000  H
  N10      1.0000 0.08720  0.27890  0.92530  Biso   1.000  N
  C64      1.0000 0.14410  0.28190  0.88700  Biso   1.000  C
  C65      1.0000 0.20990  0.28640  0.91210  Biso   1.000  C
  C66      1.0000 0.21680  0.28710  0.98410  Biso   1.000  C
  C67      1.0000 0.15810  0.28610  0.02590  Biso   1.000  C
  C68      1.0000 0.09550  0.28250  0.99400  Biso   1.000  C
  C69      1.0000 0.27080  0.28940  0.87080  Biso   1.000  C
  C70      1.0000 0.16510  0.28830  0.10020  Biso   1.000  C
  H37      1.0000 0.13860  0.28090  0.83860  Biso   1.000  H
  H38      1.0000 0.05560  0.28250  0.02190  Biso   1.000  H
  H39      1.0000 0.26660  0.29230  0.82240  Biso   1.000  H
  H40      1.0000 0.12550  0.28900  0.12850  Biso   1.000  H
  N11      1.0000 0.91280  0.22110  0.92530  Biso   1.000  N
  C71      1.0000 0.85590  0.21810  0.88700  Biso   1.000  C
  C72      1.0000 0.79010  0.21360  0.91210  Biso   1.000  C
  C73      1.0000 0.78320  0.21290  0.98410  Biso   1.000  C
  C74      1.0000 0.84190  0.21390  0.02590  Biso   1.000  C
  C75      1.0000 0.90450  0.21750  0.99400  Biso   1.000  C
  C76      1.0000 0.72920  0.21060  0.87080  Biso   1.000  C
  C77      1.0000 0.83490  0.21170  0.10020  Biso   1.000  C
  H41      1.0000 0.86140  0.21910  0.83860  Biso   1.000  H
  H42      1.0000 0.94440  0.21750  0.02190  Biso   1.000  H
  H43      1.0000 0.73340  0.20770  0.82240  Biso   1.000  H
  H44      1.0000 0.87450  0.21100  0.12850  Biso   1.000  H
  N12      1.0000 0.41280  0.72110  0.42530  Biso   1.000  N
  C78      1.0000 0.35590  0.71810  0.38700  Biso   1.000  C
  C79      1.0000 0.29010  0.71360  0.41210  Biso   1.000  C
  C80      1.0000 0.28320  0.71290  0.48410  Biso   1.000  C
  C81      1.0000 0.34190  0.71390  0.52590  Biso   1.000  C
  C82      1.0000 0.40450  0.71750  0.49400  Biso   1.000  C
  C83      1.0000 0.22920  0.71060  0.37080  Biso   1.000  C
  C84      1.0000 0.33490  0.71170  0.60020  Biso   1.000  C
  H45      1.0000 0.36140  0.71910  0.33860  Biso   1.000  H
  H46      1.0000 0.44440  0.71750  0.52190  Biso   1.000  H
  H47      1.0000 0.23340  0.70770  0.32240  Biso   1.000  H
  H48      1.0000 0.37450  0.71100  0.62850  Biso   1.000  H
  N13      1.0000 0.08720  0.72110  0.57470  Biso   1.000  N
  C85      1.0000 0.14410  0.71810  0.61300  Biso   1.000  C
  C86      1.0000 0.20990  0.71360  0.58790  Biso   1.000  C
  C87      1.0000 0.21680  0.71290  0.51590  Biso   1.000  C
  C88      1.0000 0.15810  0.71390  0.47410  Biso   1.000  C
  C89      1.0000 0.09550  0.71750  0.50600  Biso   1.000  C
  C90      1.0000 0.27080  0.71060  0.62920  Biso   1.000  C
  C91      1.0000 0.16510  0.71170  0.39980  Biso   1.000  C
  H49      1.0000 0.13860  0.71910  0.66140  Biso   1.000  H
  H50      1.0000 0.05560  0.71750  0.47810  Biso   1.000  H
  H51      1.0000 0.26660  0.70770  0.67760  Biso   1.000  H
  H52      1.0000 0.12550  0.71100  0.37150  Biso   1.000  H
  N14      1.0000 0.58720  0.22110  0.07470  Biso   1.000  N
  C92      1.0000 0.64410  0.21810  0.11300  Biso   1.000  C
  C93      1.0000 0.70990  0.21360  0.08790  Biso   1.000  C
  C94      1.0000 0.71680  0.21290  0.01590  Biso   1.000  C
  C95      1.0000 0.65810  0.21390  0.97410  Biso   1.000  C
  C96      1.0000 0.59550  0.21750  0.00600  Biso   1.000  C
  C97      1.0000 0.77080  0.21060  0.12920  Biso   1.000  C
  C98      1.0000 0.66510  0.21170  0.89980  Biso   1.000  C
  H53      1.0000 0.63860  0.21910  0.16140  Biso   1.000  H
  H54      1.0000 0.55560  0.21750  0.97810  Biso   1.000  H
  H55      1.0000 0.76660  0.20770  0.17760  Biso   1.000  H
  H56      1.0000 0.62550  0.21100  0.87150  Biso   1.000  H
  N15      1.0000 0.41280  0.27890  0.07470  Biso   1.000  N
  C99      1.0000 0.35590  0.28190  0.11300  Biso   1.000  C
  C100     1.0000 0.29010  0.28640  0.08790  Biso   1.000  C
  C101     1.0000 0.28320  0.28710  0.01590  Biso   1.000  C
  C102     1.0000 0.34190  0.28610  0.97410  Biso   1.000  C
  C103     1.0000 0.40450  0.28250  0.00600  Biso   1.000  C
  C104     1.0000 0.22920  0.28940  0.12920  Biso   1.000  C
  C105     1.0000 0.33490  0.28830  0.89980  Biso   1.000  C
  H57      1.0000 0.36140  0.28090  0.16140  Biso   1.000  H
  H58      1.0000 0.44440  0.28250  0.97810  Biso   1.000  H
  H59      1.0000 0.23340  0.29230  0.17760  Biso   1.000  H
  H60      1.0000 0.37450  0.28900  0.87150  Biso   1.000  H
  N16      1.0000 0.91280  0.77890  0.57470  Biso   1.000  N
  C106     1.0000 0.85590  0.78190  0.61300  Biso   1.000  C
  C107     1.0000 0.79010  0.78640  0.58790  Biso   1.000  C
  C108     1.0000 0.78320  0.78710  0.51590  Biso   1.000  C
  C109     1.0000 0.84190  0.78610  0.47410  Biso   1.000  C
  C110     1.0000 0.90450  0.78250  0.50600  Biso   1.000  C
  C111     1.0000 0.72920  0.78940  0.62920  Biso   1.000  C
  C112     1.0000 0.83490  0.78830  0.39980  Biso   1.000  C
  H61      1.0000 0.86140  0.78090  0.66140  Biso   1.000  H
  H62      1.0000 0.94440  0.78250  0.47810  Biso   1.000  H
  H63      1.0000 0.73340  0.79230  0.67760  Biso   1.000  H
  H64      1.0000 0.87450  0.78900  0.37150  Biso   1.000  H
  Cu1      1.0000 0.50000  0.25000  0.12500  Biso   1.000  Cu
  Cu2      1.0000 0.00000  0.75000  0.62500  Biso   1.000  Cu
  Cu3      1.0000 0.50000  0.75000  0.37500  Biso   1.000  Cu
  Cu4      1.0000 0.00000  0.25000  0.87500  Biso   1.000  Cu
  N17      1.0000 0.17530  0.52890  0.33720  Biso   1.000  N
  C113     1.0000 0.13700  0.53190  0.39410  Biso   1.000  C
  C114     1.0000 0.16210  0.53640  0.45990  Biso   1.000  C
  C115     1.0000 0.23410  0.53710  0.46680  Biso   1.000  C
  C116     1.0000 0.27590  0.53610  0.40810  Biso   1.000  C
  C117     1.0000 0.24400  0.53250  0.34550  Biso   1.000  C
  C118     1.0000 0.12080  0.53940  0.52080  Biso   1.000  C
  C119     1.0000 0.35020  0.53830  0.41510  Biso   1.000  C
  H65      1.0000 0.08860  0.53090  0.38860  Biso   1.000  H
  H66      1.0000 0.27190  0.53250  0.30560  Biso   1.000  H
  H67      1.0000 0.07240  0.54230  0.51660  Biso   1.000  H
  H68      1.0000 0.37850  0.53900  0.37550  Biso   1.000  H
  N18      1.0000 0.67530  0.02890  0.83720  Biso   1.000  N
  C120     1.0000 0.63700  0.03190  0.89410  Biso   1.000  C
  C121     1.0000 0.66210  0.03640  0.95990  Biso   1.000  C
  C122     1.0000 0.73410  0.03710  0.96680  Biso   1.000  C
  C123     1.0000 0.77590  0.03610  0.90810  Biso   1.000  C
  C124     1.0000 0.74400  0.03250  0.84550  Biso   1.000  C
  C125     1.0000 0.62080  0.03940  0.02080  Biso   1.000  C
  C126     1.0000 0.85020  0.03830  0.91510  Biso   1.000  C
  H69      1.0000 0.58860  0.03090  0.88860  Biso   1.000  H
  H70      1.0000 0.77190  0.03250  0.80560  Biso   1.000  H
  H71      1.0000 0.57240  0.04230  0.01660  Biso   1.000  H
  H72      1.0000 0.87850  0.03900  0.87550  Biso   1.000  H
  N19      1.0000 0.67530  0.97110  0.66280  Biso   1.000  N
  C127     1.0000 0.63700  0.96810  0.60590  Biso   1.000  C
  C128     1.0000 0.66210  0.96360  0.54010  Biso   1.000  C
  C129     1.0000 0.73410  0.96290  0.53320  Biso   1.000  C
  C130     1.0000 0.77590  0.96390  0.59190  Biso   1.000  C
  C131     1.0000 0.74400  0.96750  0.65450  Biso   1.000  C
  C132     1.0000 0.62080  0.96060  0.47920  Biso   1.000  C
  C133     1.0000 0.85020  0.96170  0.58490  Biso   1.000  C
  H73      1.0000 0.58860  0.96910  0.61140  Biso   1.000  H
  H74      1.0000 0.77190  0.96750  0.69440  Biso   1.000  H
  H75      1.0000 0.57240  0.95770  0.48340  Biso   1.000  H
  H76      1.0000 0.87850  0.96100  0.62450  Biso   1.000  H
  N20      1.0000 0.17530  0.47110  0.16280  Biso   1.000  N
  C134     1.0000 0.13700  0.46810  0.10590  Biso   1.000  C
  C135     1.0000 0.16210  0.46360  0.04010  Biso   1.000  C
  C136     1.0000 0.23410  0.46290  0.03320  Biso   1.000  C
  C137     1.0000 0.27590  0.46390  0.09190  Biso   1.000  C
  C138     1.0000 0.24400  0.46750  0.15450  Biso   1.000  C
  C139     1.0000 0.12080  0.46060  0.97920  Biso   1.000  C
  C140     1.0000 0.35020  0.46170  0.08490  Biso   1.000  C
  H77      1.0000 0.08860  0.46910  0.11140  Biso   1.000  H
  H78      1.0000 0.27190  0.46750  0.19440  Biso   1.000  H
  H79      1.0000 0.07240  0.45770  0.98340  Biso   1.000  H
  H80      1.0000 0.37850  0.46100  0.12450  Biso   1.000  H
  N21      1.0000 0.32470  0.47110  0.83720  Biso   1.000  N
  C141     1.0000 0.36300  0.46810  0.89410  Biso   1.000  C
  C142     1.0000 0.33790  0.46360  0.95990  Biso   1.000  C
  C143     1.0000 0.26590  0.46290  0.96680  Biso   1.000  C
  C144     1.0000 0.22410  0.46390  0.90810  Biso   1.000  C
  C145     1.0000 0.25600  0.46750  0.84550  Biso   1.000  C
  C146     1.0000 0.37920  0.46060  0.02080  Biso   1.000  C
  C147     1.0000 0.14980  0.46170  0.91510  Biso   1.000  C
  H81      1.0000 0.41140  0.46910  0.88860  Biso   1.000  H
  H82      1.0000 0.22810  0.46750  0.80560  Biso   1.000  H
  H83      1.0000 0.42760  0.45770  0.01660  Biso   1.000  H
  H84      1.0000 0.12150  0.46100  0.87550  Biso   1.000  H
  N22      1.0000 0.82470  0.97110  0.33720  Biso   1.000  N
  C148     1.0000 0.86300  0.96810  0.39410  Biso   1.000  C
  C149     1.0000 0.83790  0.96360  0.45990  Biso   1.000  C
  C150     1.0000 0.76590  0.96290  0.46680  Biso   1.000  C
  C151     1.0000 0.72410  0.96390  0.40810  Biso   1.000  C
  C152     1.0000 0.75600  0.96750  0.34550  Biso   1.000  C
  C153     1.0000 0.87920  0.96060  0.52080  Biso   1.000  C
  C154     1.0000 0.64980  0.96170  0.41510  Biso   1.000  C
  H85      1.0000 0.91140  0.96910  0.38860  Biso   1.000  H
  H86      1.0000 0.72810  0.96750  0.30560  Biso   1.000  H
  H87      1.0000 0.92760  0.95770  0.51660  Biso   1.000  H
  H88      1.0000 0.62150  0.96100  0.37550  Biso   1.000  H
  N23      1.0000 0.82470  0.02890  0.16280  Biso   1.000  N
  C155     1.0000 0.86300  0.03190  0.10590  Biso   1.000  C
  C156     1.0000 0.83790  0.03640  0.04010  Biso   1.000  C
  C157     1.0000 0.76590  0.03710  0.03320  Biso   1.000  C
  C158     1.0000 0.72410  0.03610  0.09190  Biso   1.000  C
  C159     1.0000 0.75600  0.03250  0.15450  Biso   1.000  C
  C160     1.0000 0.87920  0.03940  0.97920  Biso   1.000  C
  C161     1.0000 0.64980  0.03830  0.08490  Biso   1.000  C
  H89      1.0000 0.91140  0.03090  0.11140  Biso   1.000  H
  H90      1.0000 0.72810  0.03250  0.19440  Biso   1.000  H
  H91      1.0000 0.92760  0.04230  0.98340  Biso   1.000  H
  H92      1.0000 0.62150  0.03900  0.12450  Biso   1.000  H
  N24      1.0000 0.32470  0.52890  0.66280  Biso   1.000  N
  C162     1.0000 0.36300  0.53190  0.60590  Biso   1.000  C
  C163     1.0000 0.33790  0.53640  0.54010  Biso   1.000  C
  C164     1.0000 0.26590  0.53710  0.53320  Biso   1.000  C
  C165     1.0000 0.22410  0.53610  0.59190  Biso   1.000  C
  C166     1.0000 0.25600  0.53250  0.65450  Biso   1.000  C
  C167     1.0000 0.37920  0.53940  0.47920  Biso   1.000  C
  C168     1.0000 0.14980  0.53830  0.58490  Biso   1.000  C
  H93      1.0000 0.41140  0.53090  0.61140  Biso   1.000  H
  H94      1.0000 0.22810  0.53250  0.69440  Biso   1.000  H
  H95      1.0000 0.42760  0.54230  0.48340  Biso   1.000  H
  H96      1.0000 0.12150  0.53900  0.62450  Biso   1.000  H
  N25      1.0000 0.42530  0.58720  0.77890  Biso   1.000  N
  C169     1.0000 0.38700  0.64410  0.78190  Biso   1.000  C
  C170     1.0000 0.41210  0.70990  0.78640  Biso   1.000  C
  C171     1.0000 0.48410  0.71680  0.78710  Biso   1.000  C
  C172     1.0000 0.52590  0.65810  0.78610  Biso   1.000  C
  C173     1.0000 0.49400  0.59550  0.78250  Biso   1.000  C
  C174     1.0000 0.37080  0.77080  0.78940  Biso   1.000  C
  C175     1.0000 0.60020  0.66510  0.78830  Biso   1.000  C
  H97      1.0000 0.33860  0.63860  0.78090  Biso   1.000  H
  H98      1.0000 0.52190  0.55560  0.78250  Biso   1.000  H
  H99      1.0000 0.32240  0.76660  0.79230  Biso   1.000  H
  H100     1.0000 0.62850  0.62550  0.78900  Biso   1.000  H
  N26      1.0000 0.92530  0.08720  0.27890  Biso   1.000  N
  C176     1.0000 0.88700  0.14410  0.28190  Biso   1.000  C
  C177     1.0000 0.91210  0.20990  0.28640  Biso   1.000  C
  C178     1.0000 0.98410  0.21680  0.28710  Biso   1.000  C
  C179     1.0000 0.02590  0.15810  0.28610  Biso   1.000  C
  C180     1.0000 0.99400  0.09550  0.28250  Biso   1.000  C
  C181     1.0000 0.87080  0.27080  0.28940  Biso   1.000  C
  C182     1.0000 0.10020  0.16510  0.28830  Biso   1.000  C
  H101     1.0000 0.83860  0.13860  0.28090  Biso   1.000  H
  H102     1.0000 0.02190  0.05560  0.28250  Biso   1.000  H
  H103     1.0000 0.82240  0.26660  0.29230  Biso   1.000  H
  H104     1.0000 0.12850  0.12550  0.28900  Biso   1.000  H
  N27      1.0000 0.92530  0.91280  0.22110  Biso   1.000  N
  C183     1.0000 0.88700  0.85590  0.21810  Biso   1.000  C
  C184     1.0000 0.91210  0.79010  0.21360  Biso   1.000  C
  C185     1.0000 0.98410  0.78320  0.21290  Biso   1.000  C
  C186     1.0000 0.02590  0.84190  0.21390  Biso   1.000  C
  C187     1.0000 0.99400  0.90450  0.21750  Biso   1.000  C
  C188     1.0000 0.87080  0.72920  0.21060  Biso   1.000  C
  C189     1.0000 0.10020  0.83490  0.21170  Biso   1.000  C
  H105     1.0000 0.83860  0.86140  0.21910  Biso   1.000  H
  H106     1.0000 0.02190  0.94440  0.21750  Biso   1.000  H
  H107     1.0000 0.82240  0.73340  0.20770  Biso   1.000  H
  H108     1.0000 0.12850  0.87450  0.21100  Biso   1.000  H
  N28      1.0000 0.42530  0.41280  0.72110  Biso   1.000  N
  C190     1.0000 0.38700  0.35590  0.71810  Biso   1.000  C
  C191     1.0000 0.41210  0.29010  0.71360  Biso   1.000  C
  C192     1.0000 0.48410  0.28320  0.71290  Biso   1.000  C
  C193     1.0000 0.52590  0.34190  0.71390  Biso   1.000  C
  C194     1.0000 0.49400  0.40450  0.71750  Biso   1.000  C
  C195     1.0000 0.37080  0.22920  0.71060  Biso   1.000  C
  C196     1.0000 0.60020  0.33490  0.71170  Biso   1.000  C
  H109     1.0000 0.33860  0.36140  0.71910  Biso   1.000  H
  H110     1.0000 0.52190  0.44440  0.71750  Biso   1.000  H
  H111     1.0000 0.32240  0.23340  0.70770  Biso   1.000  H
  H112     1.0000 0.62850  0.37450  0.71100  Biso   1.000  H
  N29      1.0000 0.57470  0.08720  0.72110  Biso   1.000  N
  C197     1.0000 0.61300  0.14410  0.71810  Biso   1.000  C
  C198     1.0000 0.58790  0.20990  0.71360  Biso   1.000  C
  C199     1.0000 0.51590  0.21680  0.71290  Biso   1.000  C
  C200     1.0000 0.47410  0.15810  0.71390  Biso   1.000  C
  C201     1.0000 0.50600  0.09550  0.71750  Biso   1.000  C
  C202     1.0000 0.62920  0.27080  0.71060  Biso   1.000  C
  C203     1.0000 0.39980  0.16510  0.71170  Biso   1.000  C
  H113     1.0000 0.66140  0.13860  0.71910  Biso   1.000  H
  H114     1.0000 0.47810  0.05560  0.71750  Biso   1.000  H
  H115     1.0000 0.67760  0.26660  0.70770  Biso   1.000  H
  H116     1.0000 0.37150  0.12550  0.71100  Biso   1.000  H
  N30      1.0000 0.07470  0.58720  0.22110  Biso   1.000  N
  C204     1.0000 0.11300  0.64410  0.21810  Biso   1.000  C
  C205     1.0000 0.08790  0.70990  0.21360  Biso   1.000  C
  C206     1.0000 0.01590  0.71680  0.21290  Biso   1.000  C
  C207     1.0000 0.97410  0.65810  0.21390  Biso   1.000  C
  C208     1.0000 0.00600  0.59550  0.21750  Biso   1.000  C
  C209     1.0000 0.12920  0.77080  0.21060  Biso   1.000  C
  C210     1.0000 0.89980  0.66510  0.21170  Biso   1.000  C
  H117     1.0000 0.16140  0.63860  0.21910  Biso   1.000  H
  H118     1.0000 0.97810  0.55560  0.21750  Biso   1.000  H
  H119     1.0000 0.17760  0.76660  0.20770  Biso   1.000  H
  H120     1.0000 0.87150  0.62550  0.21100  Biso   1.000  H
  N31      1.0000 0.07470  0.41280  0.27890  Biso   1.000  N
  C211     1.0000 0.11300  0.35590  0.28190  Biso   1.000  C
  C212     1.0000 0.08790  0.29010  0.28640  Biso   1.000  C
  C213     1.0000 0.01590  0.28320  0.28710  Biso   1.000  C
  C214     1.0000 0.97410  0.34190  0.28610  Biso   1.000  C
  C215     1.0000 0.00600  0.40450  0.28250  Biso   1.000  C
  C216     1.0000 0.12920  0.22920  0.28940  Biso   1.000  C
  C217     1.0000 0.89980  0.33490  0.28830  Biso   1.000  C
  H121     1.0000 0.16140  0.36140  0.28090  Biso   1.000  H
  H122     1.0000 0.97810  0.44440  0.28250  Biso   1.000  H
  H123     1.0000 0.17760  0.23340  0.29230  Biso   1.000  H
  H124     1.0000 0.87150  0.37450  0.28900  Biso   1.000  H
  N32      1.0000 0.57470  0.91280  0.77890  Biso   1.000  N
  C218     1.0000 0.61300  0.85590  0.78190  Biso   1.000  C
  C219     1.0000 0.58790  0.79010  0.78640  Biso   1.000  C
  C220     1.0000 0.51590  0.78320  0.78710  Biso   1.000  C
  C221     1.0000 0.47410  0.84190  0.78610  Biso   1.000  C
  C222     1.0000 0.50600  0.90450  0.78250  Biso   1.000  C
  C223     1.0000 0.62920  0.72920  0.78940  Biso   1.000  C
  C224     1.0000 0.39980  0.83490  0.78830  Biso   1.000  C
  H125     1.0000 0.66140  0.86140  0.78090  Biso   1.000  H
  H126     1.0000 0.47810  0.94440  0.78250  Biso   1.000  H
  H127     1.0000 0.67760  0.73340  0.79230  Biso   1.000  H
  H128     1.0000 0.37150  0.87450  0.78900  Biso   1.000  H
  Cu5      1.0000 0.12500  0.50000  0.25000  Biso   1.000  Cu
  Cu6      1.0000 0.62500  0.00000  0.75000  Biso   1.000  Cu
  Cu7      1.0000 0.37500  0.50000  0.75000  Biso   1.000  Cu
  Cu8      1.0000 0.87500  0.00000  0.25000  Biso   1.000  Cu
  N33      1.0000 0.33720  0.17530  0.52890  Biso   1.000  N
  C225     1.0000 0.39410  0.13700  0.53190  Biso   1.000  C
  C226     1.0000 0.45990  0.16210  0.53640  Biso   1.000  C
  C227     1.0000 0.46680  0.23410  0.53710  Biso   1.000  C
  C228     1.0000 0.40810  0.27590  0.53610  Biso   1.000  C
  C229     1.0000 0.34550  0.24400  0.53250  Biso   1.000  C
  C230     1.0000 0.52080  0.12080  0.53940  Biso   1.000  C
  C231     1.0000 0.41510  0.35020  0.53830  Biso   1.000  C
  H129     1.0000 0.38860  0.08860  0.53090  Biso   1.000  H
  H130     1.0000 0.30560  0.27190  0.53250  Biso   1.000  H
  H131     1.0000 0.51660  0.07240  0.54230  Biso   1.000  H
  H132     1.0000 0.37550  0.37850  0.53900  Biso   1.000  H
  N34      1.0000 0.83720  0.67530  0.02890  Biso   1.000  N
  C232     1.0000 0.89410  0.63700  0.03190  Biso   1.000  C
  C233     1.0000 0.95990  0.66210  0.03640  Biso   1.000  C
  C234     1.0000 0.96680  0.73410  0.03710  Biso   1.000  C
  C235     1.0000 0.90810  0.77590  0.03610  Biso   1.000  C
  C236     1.0000 0.84550  0.74400  0.03250  Biso   1.000  C
  C237     1.0000 0.02080  0.62080  0.03940  Biso   1.000  C
  C238     1.0000 0.91510  0.85020  0.03830  Biso   1.000  C
  H133     1.0000 0.88860  0.58860  0.03090  Biso   1.000  H
  H134     1.0000 0.80560  0.77190  0.03250  Biso   1.000  H
  H135     1.0000 0.01660  0.57240  0.04230  Biso   1.000  H
  H136     1.0000 0.87550  0.87850  0.03900  Biso   1.000  H
  N35      1.0000 0.66280  0.67530  0.97110  Biso   1.000  N
  C239     1.0000 0.60590  0.63700  0.96810  Biso   1.000  C
  C240     1.0000 0.54010  0.66210  0.96360  Biso   1.000  C
  C241     1.0000 0.53320  0.73410  0.96290  Biso   1.000  C
  C242     1.0000 0.59190  0.77590  0.96390  Biso   1.000  C
  C243     1.0000 0.65450  0.74400  0.96750  Biso   1.000  C
  C244     1.0000 0.47920  0.62080  0.96060  Biso   1.000  C
  C245     1.0000 0.58490  0.85020  0.96170  Biso   1.000  C
  H137     1.0000 0.61140  0.58860  0.96910  Biso   1.000  H
  H138     1.0000 0.69440  0.77190  0.96750  Biso   1.000  H
  H139     1.0000 0.48340  0.57240  0.95770  Biso   1.000  H
  H140     1.0000 0.62450  0.87850  0.96100  Biso   1.000  H
  N36      1.0000 0.16280  0.17530  0.47110  Biso   1.000  N
  C246     1.0000 0.10590  0.13700  0.46810  Biso   1.000  C
  C247     1.0000 0.04010  0.16210  0.46360  Biso   1.000  C
  C248     1.0000 0.03320  0.23410  0.46290  Biso   1.000  C
  C249     1.0000 0.09190  0.27590  0.46390  Biso   1.000  C
  C250     1.0000 0.15450  0.24400  0.46750  Biso   1.000  C
  C251     1.0000 0.97920  0.12080  0.46060  Biso   1.000  C
  C252     1.0000 0.08490  0.35020  0.46170  Biso   1.000  C
  H141     1.0000 0.11140  0.08860  0.46910  Biso   1.000  H
  H142     1.0000 0.19440  0.27190  0.46750  Biso   1.000  H
  H143     1.0000 0.98340  0.07240  0.45770  Biso   1.000  H
  H144     1.0000 0.12450  0.37850  0.46100  Biso   1.000  H
  N37      1.0000 0.83720  0.32470  0.47110  Biso   1.000  N
  C253     1.0000 0.89410  0.36300  0.46810  Biso   1.000  C
  C254     1.0000 0.95990  0.33790  0.46360  Biso   1.000  C
  C255     1.0000 0.96680  0.26590  0.46290  Biso   1.000  C
  C256     1.0000 0.90810  0.22410  0.46390  Biso   1.000  C
  C257     1.0000 0.84550  0.25600  0.46750  Biso   1.000  C
  C258     1.0000 0.02080  0.37920  0.46060  Biso   1.000  C
  C259     1.0000 0.91510  0.14980  0.46170  Biso   1.000  C
  H145     1.0000 0.88860  0.41140  0.46910  Biso   1.000  H
  H146     1.0000 0.80560  0.22810  0.46750  Biso   1.000  H
  H147     1.0000 0.01660  0.42760  0.45770  Biso   1.000  H
  H148     1.0000 0.87550  0.12150  0.46100  Biso   1.000  H
  N38      1.0000 0.33720  0.82470  0.97110  Biso   1.000  N
  C260     1.0000 0.39410  0.86300  0.96810  Biso   1.000  C
  C261     1.0000 0.45990  0.83790  0.96360  Biso   1.000  C
  C262     1.0000 0.46680  0.76590  0.96290  Biso   1.000  C
  C263     1.0000 0.40810  0.72410  0.96390  Biso   1.000  C
  C264     1.0000 0.34550  0.75600  0.96750  Biso   1.000  C
  C265     1.0000 0.52080  0.87920  0.96060  Biso   1.000  C
  C266     1.0000 0.41510  0.64980  0.96170  Biso   1.000  C
  H149     1.0000 0.38860  0.91140  0.96910  Biso   1.000  H
  H150     1.0000 0.30560  0.72810  0.96750  Biso   1.000  H
  H151     1.0000 0.51660  0.92760  0.95770  Biso   1.000  H
  H152     1.0000 0.37550  0.62150  0.96100  Biso   1.000  H
  N39      1.0000 0.16280  0.82470  0.02890  Biso   1.000  N
  C267     1.0000 0.10590  0.86300  0.03190  Biso   1.000  C
  C268     1.0000 0.04010  0.83790  0.03640  Biso   1.000  C
  C269     1.0000 0.03320  0.76590  0.03710  Biso   1.000  C
  C270     1.0000 0.09190  0.72410  0.03610  Biso   1.000  C
  C271     1.0000 0.15450  0.75600  0.03250  Biso   1.000  C
  C272     1.0000 0.97920  0.87920  0.03940  Biso   1.000  C
  C273     1.0000 0.08490  0.64980  0.03830  Biso   1.000  C
  H153     1.0000 0.11140  0.91140  0.03090  Biso   1.000  H
  H154     1.0000 0.19440  0.72810  0.03250  Biso   1.000  H
  H155     1.0000 0.98340  0.92760  0.04230  Biso   1.000  H
  H156     1.0000 0.12450  0.62150  0.03900  Biso   1.000  H
  N40      1.0000 0.66280  0.32470  0.52890  Biso   1.000  N
  C274     1.0000 0.60590  0.36300  0.53190  Biso   1.000  C
  C275     1.0000 0.54010  0.33790  0.53640  Biso   1.000  C
  C276     1.0000 0.53320  0.26590  0.53710  Biso   1.000  C
  C277     1.0000 0.59190  0.22410  0.53610  Biso   1.000  C
  C278     1.0000 0.65450  0.25600  0.53250  Biso   1.000  C
  C279     1.0000 0.47920  0.37920  0.53940  Biso   1.000  C
  C280     1.0000 0.58490  0.14980  0.53830  Biso   1.000  C
  H157     1.0000 0.61140  0.41140  0.53090  Biso   1.000  H
  H158     1.0000 0.69440  0.22810  0.53250  Biso   1.000  H
  H159     1.0000 0.48340  0.42760  0.54230  Biso   1.000  H
  H160     1.0000 0.62450  0.12150  0.53900  Biso   1.000  H
  N41      1.0000 0.77890  0.42530  0.58720  Biso   1.000  N
  C281     1.0000 0.78190  0.38700  0.64410  Biso   1.000  C
  C282     1.0000 0.78640  0.41210  0.70990  Biso   1.000  C
  C283     1.0000 0.78710  0.48410  0.71680  Biso   1.000  C
  C284     1.0000 0.78610  0.52590  0.65810  Biso   1.000  C
  C285     1.0000 0.78250  0.49400  0.59550  Biso   1.000  C
  C286     1.0000 0.78940  0.37080  0.77080  Biso   1.000  C
  C287     1.0000 0.78830  0.60020  0.66510  Biso   1.000  C
  H161     1.0000 0.78090  0.33860  0.63860  Biso   1.000  H
  H162     1.0000 0.78250  0.52190  0.55560  Biso   1.000  H
  H163     1.0000 0.79230  0.32240  0.76660  Biso   1.000  H
  H164     1.0000 0.78900  0.62850  0.62550  Biso   1.000  H
  N42      1.0000 0.27890  0.92530  0.08720  Biso   1.000  N
  C288     1.0000 0.28190  0.88700  0.14410  Biso   1.000  C
  C289     1.0000 0.28640  0.91210  0.20990  Biso   1.000  C
  C290     1.0000 0.28710  0.98410  0.21680  Biso   1.000  C
  C291     1.0000 0.28610  0.02590  0.15810  Biso   1.000  C
  C292     1.0000 0.28250  0.99400  0.09550  Biso   1.000  C
  C293     1.0000 0.28940  0.87080  0.27080  Biso   1.000  C
  C294     1.0000 0.28830  0.10020  0.16510  Biso   1.000  C
  H165     1.0000 0.28090  0.83860  0.13860  Biso   1.000  H
  H166     1.0000 0.28250  0.02190  0.05560  Biso   1.000  H
  H167     1.0000 0.29230  0.82240  0.26660  Biso   1.000  H
  H168     1.0000 0.28900  0.12850  0.12550  Biso   1.000  H
  N43      1.0000 0.22110  0.92530  0.91280  Biso   1.000  N
  C295     1.0000 0.21810  0.88700  0.85590  Biso   1.000  C
  C296     1.0000 0.21360  0.91210  0.79010  Biso   1.000  C
  C297     1.0000 0.21290  0.98410  0.78320  Biso   1.000  C
  C298     1.0000 0.21390  0.02590  0.84190  Biso   1.000  C
  C299     1.0000 0.21750  0.99400  0.90450  Biso   1.000  C
  C300     1.0000 0.21060  0.87080  0.72920  Biso   1.000  C
  C301     1.0000 0.21170  0.10020  0.83490  Biso   1.000  C
  H169     1.0000 0.21910  0.83860  0.86140  Biso   1.000  H
  H170     1.0000 0.21750  0.02190  0.94440  Biso   1.000  H
  H171     1.0000 0.20770  0.82240  0.73340  Biso   1.000  H
  H172     1.0000 0.21100  0.12850  0.87450  Biso   1.000  H
  N44      1.0000 0.72110  0.42530  0.41280  Biso   1.000  N
  C302     1.0000 0.71810  0.38700  0.35590  Biso   1.000  C
  C303     1.0000 0.71360  0.41210  0.29010  Biso   1.000  C
  C304     1.0000 0.71290  0.48410  0.28320  Biso   1.000  C
  C305     1.0000 0.71390  0.52590  0.34190  Biso   1.000  C
  C306     1.0000 0.71750  0.49400  0.40450  Biso   1.000  C
  C307     1.0000 0.71060  0.37080  0.22920  Biso   1.000  C
  C308     1.0000 0.71170  0.60020  0.33490  Biso   1.000  C
  H173     1.0000 0.71910  0.33860  0.36140  Biso   1.000  H
  H174     1.0000 0.71750  0.52190  0.44440  Biso   1.000  H
  H175     1.0000 0.70770  0.32240  0.23340  Biso   1.000  H
  H176     1.0000 0.71100  0.62850  0.37450  Biso   1.000  H
  N45      1.0000 0.72110  0.57470  0.08720  Biso   1.000  N
  C309     1.0000 0.71810  0.61300  0.14410  Biso   1.000  C
  C310     1.0000 0.71360  0.58790  0.20990  Biso   1.000  C
  C311     1.0000 0.71290  0.51590  0.21680  Biso   1.000  C
  C312     1.0000 0.71390  0.47410  0.15810  Biso   1.000  C
  C313     1.0000 0.71750  0.50600  0.09550  Biso   1.000  C
  C314     1.0000 0.71060  0.62920  0.27080  Biso   1.000  C
  C315     1.0000 0.71170  0.39980  0.16510  Biso   1.000  C
  H177     1.0000 0.71910  0.66140  0.13860  Biso   1.000  H
  H178     1.0000 0.71750  0.47810  0.05560  Biso   1.000  H
  H179     1.0000 0.70770  0.67760  0.26660  Biso   1.000  H
  H180     1.0000 0.71100  0.37150  0.12550  Biso   1.000  H
  N46      1.0000 0.22110  0.07470  0.58720  Biso   1.000  N
  C316     1.0000 0.21810  0.11300  0.64410  Biso   1.000  C
  C317     1.0000 0.21360  0.08790  0.70990  Biso   1.000  C
  C318     1.0000 0.21290  0.01590  0.71680  Biso   1.000  C
  C319     1.0000 0.21390  0.97410  0.65810  Biso   1.000  C
  C320     1.0000 0.21750  0.00600  0.59550  Biso   1.000  C
  C321     1.0000 0.21060  0.12920  0.77080  Biso   1.000  C
  C322     1.0000 0.21170  0.89980  0.66510  Biso   1.000  C
  H181     1.0000 0.21910  0.16140  0.63860  Biso   1.000  H
  H182     1.0000 0.21750  0.97810  0.55560  Biso   1.000  H
  H183     1.0000 0.20770  0.17760  0.76660  Biso   1.000  H
  H184     1.0000 0.21100  0.87150  0.62550  Biso   1.000  H
  N47      1.0000 0.27890  0.07470  0.41280  Biso   1.000  N
  C323     1.0000 0.28190  0.11300  0.35590  Biso   1.000  C
  C324     1.0000 0.28640  0.08790  0.29010  Biso   1.000  C
  C325     1.0000 0.28710  0.01590  0.28320  Biso   1.000  C
  C326     1.0000 0.28610  0.97410  0.34190  Biso   1.000  C
  C327     1.0000 0.28250  0.00600  0.40450  Biso   1.000  C
  C328     1.0000 0.28940  0.12920  0.22920  Biso   1.000  C
  C329     1.0000 0.28830  0.89980  0.33490  Biso   1.000  C
  H185     1.0000 0.28090  0.16140  0.36140  Biso   1.000  H
  H186     1.0000 0.28250  0.97810  0.44440  Biso   1.000  H
  H187     1.0000 0.29230  0.17760  0.23340  Biso   1.000  H
  H188     1.0000 0.28900  0.87150  0.37450  Biso   1.000  H
  N48      1.0000 0.77890  0.57470  0.91280  Biso   1.000  N
  C330     1.0000 0.78190  0.61300  0.85590  Biso   1.000  C
  C331     1.0000 0.78640  0.58790  0.79010  Biso   1.000  C
  C332     1.0000 0.78710  0.51590  0.78320  Biso   1.000  C
  C333     1.0000 0.78610  0.47410  0.84190  Biso   1.000  C
  C334     1.0000 0.78250  0.50600  0.90450  Biso   1.000  C
  C335     1.0000 0.78940  0.62920  0.72920  Biso   1.000  C
  C336     1.0000 0.78830  0.39980  0.83490  Biso   1.000  C
  H189     1.0000 0.78090  0.66140  0.86140  Biso   1.000  H
  H190     1.0000 0.78250  0.47810  0.94440  Biso   1.000  H
  H191     1.0000 0.79230  0.67760  0.73340  Biso   1.000  H
  H192     1.0000 0.78900  0.37150  0.87450  Biso   1.000  H
  Cu9      1.0000 0.25000  0.12500  0.50000  Biso   1.000  Cu
  Cu10     1.0000 0.75000  0.62500  0.00000  Biso   1.000  Cu
  Cu11     1.0000 0.75000  0.37500  0.50000  Biso   1.000  Cu
  Cu12     1.0000 0.25000  0.87500  0.00000  Biso   1.000  Cu
