data_image0
_cell_length_a       23.7151
_cell_length_b       23.7151
_cell_length_c       23.7151
_cell_angle_alpha    109.471
_cell_angle_beta     109.471
_cell_angle_gamma    109.471

_symmetry_space_group_name_H-M    P 1
_symmetry_int_tables_number       1

loop_
  _symmetry_equiv_pos_as_xyz
  'x, y, z'

loop_
  _atom_site_label
  _atom_site_occupancy
  _atom_site_fract_x
  _atom_site_fract_y
  _atom_site_fract_z
  _atom_site_thermal_displace_type
  _atom_site_B_iso_or_equiv
  _atom_site_type_symbol
  Co1      1.0000 0.44512  0.55914  0.00426  Biso   1.000  Co
  Co2      1.0000 0.55488  0.44086  0.99574  Biso   1.000  Co
  Co3      1.0000 0.44512  0.44085  0.88598  Biso   1.000  Co
  Co4      1.0000 0.55488  0.55915  0.11402  Biso   1.000  Co
  Co5      1.0000 0.88598  0.44512  0.44086  Biso   1.000  Co
  Co6      1.0000 0.11402  0.55488  0.55914  Biso   1.000  Co
  Co7      1.0000 0.00427  0.44513  0.55915  Biso   1.000  Co
  Co8      1.0000 0.99573  0.55487  0.44085  Biso   1.000  Co
  Co9      1.0000 0.44086  0.99574  0.55488  Biso   1.000  Co
  Co10     1.0000 0.55914  0.00426  0.44512  Biso   1.000  Co
  Co11     1.0000 0.55914  0.11402  0.55487  Biso   1.000  Co
  Co12     1.0000 0.44086  0.88598  0.44513  Biso   1.000  Co
  Co13     1.0000 0.50000  0.66879  0.16879  Biso   1.000  Co
  Co14     1.0000 0.50000  0.33121  0.83121  Biso   1.000  Co
  Co15     1.0000 0.83121  0.50000  0.33121  Biso   1.000  Co
  Co16     1.0000 0.16879  0.50000  0.66879  Biso   1.000  Co
  Co17     1.0000 0.33121  0.83121  0.50000  Biso   1.000  Co
  Co18     1.0000 0.66879  0.16879  0.50000  Biso   1.000  Co
  H1       1.0000 0.50620  0.88800  0.90680  Biso   1.000  H
  H2       1.0000 0.54020  0.81730  0.94030  Biso   1.000  H
  H3       1.0000 0.51220  0.72530  0.95890  Biso   1.000  H
  H4       1.0000 0.51450  0.83710  0.12960  Biso   1.000  H
  H5       1.0000 0.54370  0.93070  0.11280  Biso   1.000  H
  H6       1.0000 0.98120  0.59940  0.09320  Biso   1.000  H
  H7       1.0000 0.87700  0.59990  0.05970  Biso   1.000  H
  H8       1.0000 0.76640  0.55330  0.04110  Biso   1.000  H
  H9       1.0000 0.70750  0.38490  0.87040  Biso   1.000  H
  H10      1.0000 0.81790  0.43090  0.88720  Biso   1.000  H
  H11      1.0000 0.01880  0.11200  0.61820  Biso   1.000  H
  H12      1.0000 0.12300  0.18270  0.72290  Biso   1.000  H
  H13      1.0000 0.23360  0.27470  0.78690  Biso   1.000  H
  H14      1.0000 0.29250  0.16290  0.67740  Biso   1.000  H
  H15      1.0000 0.18210  0.06930  0.61300  Biso   1.000  H
  H16      1.0000 0.49380  0.40060  0.38180  Biso   1.000  H
  H17      1.0000 0.45980  0.40010  0.27710  Biso   1.000  H
  H18      1.0000 0.48780  0.44670  0.21310  Biso   1.000  H
  H19      1.0000 0.48550  0.61510  0.32260  Biso   1.000  H
  H20      1.0000 0.45630  0.56910  0.38700  Biso   1.000  H
  H21      1.0000 0.61820  0.01880  0.11200  Biso   1.000  H
  H22      1.0000 0.72290  0.12300  0.18270  Biso   1.000  H
  H23      1.0000 0.78690  0.23360  0.27470  Biso   1.000  H
  H24      1.0000 0.67740  0.29250  0.16290  Biso   1.000  H
  H25      1.0000 0.61300  0.18210  0.06930  Biso   1.000  H
  H26      1.0000 0.38180  0.49380  0.40060  Biso   1.000  H
  H27      1.0000 0.27710  0.45980  0.40010  Biso   1.000  H
  H28      1.0000 0.21310  0.48780  0.44670  Biso   1.000  H
  H29      1.0000 0.32260  0.48550  0.61510  Biso   1.000  H
  H30      1.0000 0.38700  0.45630  0.56910  Biso   1.000  H
  H31      1.0000 0.90680  0.50620  0.88800  Biso   1.000  H
  H32      1.0000 0.94030  0.54020  0.81730  Biso   1.000  H
  H33      1.0000 0.95890  0.51220  0.72530  Biso   1.000  H
  H34      1.0000 0.12960  0.51450  0.83710  Biso   1.000  H
  H35      1.0000 0.11280  0.54370  0.93070  Biso   1.000  H
  H36      1.0000 0.09320  0.98120  0.59940  Biso   1.000  H
  H37      1.0000 0.05970  0.87700  0.59990  Biso   1.000  H
  H38      1.0000 0.04110  0.76640  0.55330  Biso   1.000  H
  H39      1.0000 0.87040  0.70750  0.38490  Biso   1.000  H
  H40      1.0000 0.88720  0.81790  0.43090  Biso   1.000  H
  H41      1.0000 0.59940  0.09320  0.98120  Biso   1.000  H
  H42      1.0000 0.59990  0.05970  0.87700  Biso   1.000  H
  H43      1.0000 0.55330  0.04110  0.76640  Biso   1.000  H
  H44      1.0000 0.38490  0.87040  0.70750  Biso   1.000  H
  H45      1.0000 0.43090  0.88720  0.81790  Biso   1.000  H
  H46      1.0000 0.88800  0.90680  0.50620  Biso   1.000  H
  H47      1.0000 0.81730  0.94030  0.54020  Biso   1.000  H
  H48      1.0000 0.72530  0.95890  0.51220  Biso   1.000  H
  H49      1.0000 0.83710  0.12960  0.51450  Biso   1.000  H
  H50      1.0000 0.93070  0.11280  0.54370  Biso   1.000  H
  H51      1.0000 0.40060  0.38180  0.49380  Biso   1.000  H
  H52      1.0000 0.40010  0.27710  0.45980  Biso   1.000  H
  H53      1.0000 0.44670  0.21310  0.48780  Biso   1.000  H
  H54      1.0000 0.61510  0.32260  0.48550  Biso   1.000  H
  H55      1.0000 0.56910  0.38700  0.45630  Biso   1.000  H
  H56      1.0000 0.11200  0.61820  0.01880  Biso   1.000  H
  H57      1.0000 0.18270  0.72290  0.12300  Biso   1.000  H
  H58      1.0000 0.27470  0.78690  0.23360  Biso   1.000  H
  H59      1.0000 0.16290  0.67740  0.29250  Biso   1.000  H
  H60      1.0000 0.06930  0.61300  0.18210  Biso   1.000  H
  H61      1.0000 0.49380  0.11200  0.09320  Biso   1.000  H
  H62      1.0000 0.45980  0.18270  0.05970  Biso   1.000  H
  H63      1.0000 0.48780  0.27470  0.04110  Biso   1.000  H
  H64      1.0000 0.48550  0.16290  0.87040  Biso   1.000  H
  H65      1.0000 0.45630  0.06930  0.88720  Biso   1.000  H
  H66      1.0000 0.01880  0.40060  0.90680  Biso   1.000  H
  H67      1.0000 0.12300  0.40010  0.94030  Biso   1.000  H
  H68      1.0000 0.23360  0.44670  0.95890  Biso   1.000  H
  H69      1.0000 0.29250  0.61510  0.12960  Biso   1.000  H
  H70      1.0000 0.18210  0.56910  0.11280  Biso   1.000  H
  H71      1.0000 0.98120  0.88800  0.38180  Biso   1.000  H
  H72      1.0000 0.87700  0.81730  0.27710  Biso   1.000  H
  H73      1.0000 0.76640  0.72530  0.21310  Biso   1.000  H
  H74      1.0000 0.70750  0.83710  0.32260  Biso   1.000  H
  H75      1.0000 0.81790  0.93070  0.38700  Biso   1.000  H
  H76      1.0000 0.50620  0.59940  0.61820  Biso   1.000  H
  H77      1.0000 0.54020  0.59990  0.72290  Biso   1.000  H
  H78      1.0000 0.51220  0.55330  0.78690  Biso   1.000  H
  H79      1.0000 0.51450  0.38490  0.67740  Biso   1.000  H
  H80      1.0000 0.54370  0.43090  0.61300  Biso   1.000  H
  H81      1.0000 0.38180  0.98120  0.88800  Biso   1.000  H
  H82      1.0000 0.27710  0.87700  0.81730  Biso   1.000  H
  H83      1.0000 0.21310  0.76640  0.72530  Biso   1.000  H
  H84      1.0000 0.32260  0.70750  0.83710  Biso   1.000  H
  H85      1.0000 0.38700  0.81790  0.93070  Biso   1.000  H
  H86      1.0000 0.61820  0.50620  0.59940  Biso   1.000  H
  H87      1.0000 0.72290  0.54020  0.59990  Biso   1.000  H
  H88      1.0000 0.78690  0.51220  0.55330  Biso   1.000  H
  H89      1.0000 0.67740  0.51450  0.38490  Biso   1.000  H
  H90      1.0000 0.61300  0.54370  0.43090  Biso   1.000  H
  H91      1.0000 0.09320  0.49380  0.11200  Biso   1.000  H
  H92      1.0000 0.05970  0.45980  0.18270  Biso   1.000  H
  H93      1.0000 0.04110  0.48780  0.27470  Biso   1.000  H
  H94      1.0000 0.87040  0.48550  0.16290  Biso   1.000  H
  H95      1.0000 0.88720  0.45630  0.06930  Biso   1.000  H
  H96      1.0000 0.90680  0.01880  0.40060  Biso   1.000  H
  H97      1.0000 0.94030  0.12300  0.40010  Biso   1.000  H
  H98      1.0000 0.95890  0.23360  0.44670  Biso   1.000  H
  H99      1.0000 0.12960  0.29250  0.61510  Biso   1.000  H
  H100     1.0000 0.11280  0.18210  0.56910  Biso   1.000  H
  H101     1.0000 0.40060  0.90680  0.01880  Biso   1.000  H
  H102     1.0000 0.40010  0.94030  0.12300  Biso   1.000  H
  H103     1.0000 0.44670  0.95890  0.23360  Biso   1.000  H
  H104     1.0000 0.61510  0.12960  0.29250  Biso   1.000  H
  H105     1.0000 0.56910  0.11280  0.18210  Biso   1.000  H
  H106     1.0000 0.11200  0.09320  0.49380  Biso   1.000  H
  H107     1.0000 0.18270  0.05970  0.45980  Biso   1.000  H
  H108     1.0000 0.27470  0.04110  0.48780  Biso   1.000  H
  H109     1.0000 0.16290  0.87040  0.48550  Biso   1.000  H
  H110     1.0000 0.06930  0.88720  0.45630  Biso   1.000  H
  H111     1.0000 0.59940  0.61820  0.50620  Biso   1.000  H
  H112     1.0000 0.59990  0.72290  0.54020  Biso   1.000  H
  H113     1.0000 0.55330  0.78690  0.51220  Biso   1.000  H
  H114     1.0000 0.38490  0.67740  0.51450  Biso   1.000  H
  H115     1.0000 0.43090  0.61300  0.54370  Biso   1.000  H
  H116     1.0000 0.88800  0.38180  0.98120  Biso   1.000  H
  H117     1.0000 0.81730  0.27710  0.87700  Biso   1.000  H
  H118     1.0000 0.72530  0.21310  0.76640  Biso   1.000  H
  H119     1.0000 0.83710  0.32260  0.70750  Biso   1.000  H
  H120     1.0000 0.93070  0.38700  0.81790  Biso   1.000  H
  C1       1.0000 0.53455  0.93299  0.94404  Biso   1.000  C
  C2       1.0000 0.56152  0.94361  0.01229  Biso   1.000  C
  C3       1.0000 0.54439  0.88472  0.02423  Biso   1.000  C
  C4       1.0000 0.53525  0.82162  0.97855  Biso   1.000  C
  C5       1.0000 0.51929  0.76688  0.99005  Biso   1.000  C
  C6       1.0000 0.51360  0.77332  0.04832  Biso   1.000  C
  C7       1.0000 0.52081  0.83376  0.09221  Biso   1.000  C
  C8       1.0000 0.53732  0.88965  0.08155  Biso   1.000  C
  C9       1.0000 0.49884  0.71422  0.06232  Biso   1.000  C
  C10      1.0000 0.98895  0.59051  0.05596  Biso   1.000  C
  C11      1.0000 0.93132  0.54923  0.98771  Biso   1.000  C
  C12      1.0000 0.86049  0.52016  0.97577  Biso   1.000  C
  C13      1.0000 0.84307  0.55670  0.02145  Biso   1.000  C
  C14      1.0000 0.77683  0.52924  0.00995  Biso   1.000  C
  C15      1.0000 0.72500  0.46528  0.95168  Biso   1.000  C
  C16      1.0000 0.74155  0.42860  0.90779  Biso   1.000  C
  C17      1.0000 0.80810  0.45577  0.91845  Biso   1.000  C
  C18      1.0000 0.65190  0.43652  0.93768  Biso   1.000  C
  C19      1.0000 0.01105  0.06701  0.60156  Biso   1.000  C
  C20      1.0000 0.06868  0.05639  0.61791  Biso   1.000  C
  C21      1.0000 0.13951  0.11528  0.65967  Biso   1.000  C
  C22      1.0000 0.15693  0.17838  0.71363  Biso   1.000  C
  C23      1.0000 0.22317  0.23312  0.75241  Biso   1.000  C
  C24      1.0000 0.27500  0.22668  0.74028  Biso   1.000  C
  C25      1.0000 0.25845  0.16624  0.68705  Biso   1.000  C
  C26      1.0000 0.19190  0.11035  0.64767  Biso   1.000  C
  C27      1.0000 0.34810  0.28578  0.78462  Biso   1.000  C
  C28      1.0000 0.46545  0.40949  0.39844  Biso   1.000  C
  C29      1.0000 0.43848  0.45077  0.38209  Biso   1.000  C
  C30      1.0000 0.45561  0.47984  0.34033  Biso   1.000  C
  C31      1.0000 0.46475  0.44330  0.28637  Biso   1.000  C
  C32      1.0000 0.48071  0.47076  0.24759  Biso   1.000  C
  C33      1.0000 0.48640  0.53472  0.25972  Biso   1.000  C
  C34      1.0000 0.47919  0.57140  0.31295  Biso   1.000  C
  C35      1.0000 0.46268  0.54423  0.35233  Biso   1.000  C
  C36      1.0000 0.50116  0.56348  0.21538  Biso   1.000  C
  C37      1.0000 0.60156  0.01105  0.06701  Biso   1.000  C
  C38      1.0000 0.61791  0.06868  0.05639  Biso   1.000  C
  C39      1.0000 0.65967  0.13951  0.11528  Biso   1.000  C
  C40      1.0000 0.71363  0.15693  0.17838  Biso   1.000  C
  C41      1.0000 0.75241  0.22317  0.23312  Biso   1.000  C
  C42      1.0000 0.74028  0.27500  0.22668  Biso   1.000  C
  C43      1.0000 0.68705  0.25845  0.16624  Biso   1.000  C
  C44      1.0000 0.64767  0.19190  0.11035  Biso   1.000  C
  C45      1.0000 0.78462  0.34810  0.28578  Biso   1.000  C
  C46      1.0000 0.39844  0.46545  0.40949  Biso   1.000  C
  C47      1.0000 0.38209  0.43848  0.45077  Biso   1.000  C
  C48      1.0000 0.34033  0.45561  0.47984  Biso   1.000  C
  C49      1.0000 0.28637  0.46475  0.44330  Biso   1.000  C
  C50      1.0000 0.24759  0.48071  0.47076  Biso   1.000  C
  C51      1.0000 0.25972  0.48640  0.53472  Biso   1.000  C
  C52      1.0000 0.31295  0.47919  0.57140  Biso   1.000  C
  C53      1.0000 0.35233  0.46268  0.54423  Biso   1.000  C
  C54      1.0000 0.21538  0.50116  0.56348  Biso   1.000  C
  C55      1.0000 0.94404  0.53455  0.93299  Biso   1.000  C
  C56      1.0000 0.01229  0.56152  0.94361  Biso   1.000  C
  C57      1.0000 0.02423  0.54439  0.88472  Biso   1.000  C
  C58      1.0000 0.97855  0.53525  0.82162  Biso   1.000  C
  C59      1.0000 0.99005  0.51929  0.76688  Biso   1.000  C
  C60      1.0000 0.04832  0.51360  0.77332  Biso   1.000  C
  C61      1.0000 0.09221  0.52081  0.83376  Biso   1.000  C
  C62      1.0000 0.08155  0.53732  0.88965  Biso   1.000  C
  C63      1.0000 0.06232  0.49884  0.71422  Biso   1.000  C
  C64      1.0000 0.05596  0.98895  0.59051  Biso   1.000  C
  C65      1.0000 0.98771  0.93132  0.54923  Biso   1.000  C
  C66      1.0000 0.97577  0.86049  0.52016  Biso   1.000  C
  C67      1.0000 0.02145  0.84307  0.55670  Biso   1.000  C
  C68      1.0000 0.00995  0.77683  0.52924  Biso   1.000  C
  C69      1.0000 0.95168  0.72500  0.46528  Biso   1.000  C
  C70      1.0000 0.90779  0.74155  0.42860  Biso   1.000  C
  C71      1.0000 0.91845  0.80810  0.45577  Biso   1.000  C
  C72      1.0000 0.93768  0.65190  0.43652  Biso   1.000  C
  C73      1.0000 0.59051  0.05596  0.98895  Biso   1.000  C
  C74      1.0000 0.54923  0.98771  0.93132  Biso   1.000  C
  C75      1.0000 0.52016  0.97577  0.86049  Biso   1.000  C
  C76      1.0000 0.55670  0.02145  0.84307  Biso   1.000  C
  C77      1.0000 0.52924  0.00995  0.77683  Biso   1.000  C
  C78      1.0000 0.46528  0.95168  0.72500  Biso   1.000  C
  C79      1.0000 0.42860  0.90779  0.74155  Biso   1.000  C
  C80      1.0000 0.45577  0.91845  0.80810  Biso   1.000  C
  C81      1.0000 0.43652  0.93768  0.65190  Biso   1.000  C
  C82      1.0000 0.93299  0.94404  0.53455  Biso   1.000  C
  C83      1.0000 0.94361  0.01229  0.56152  Biso   1.000  C
  C84      1.0000 0.88472  0.02423  0.54439  Biso   1.000  C
  C85      1.0000 0.82162  0.97855  0.53525  Biso   1.000  C
  C86      1.0000 0.76688  0.99005  0.51929  Biso   1.000  C
  C87      1.0000 0.77332  0.04832  0.51360  Biso   1.000  C
  C88      1.0000 0.83376  0.09221  0.52081  Biso   1.000  C
  C89      1.0000 0.88965  0.08155  0.53732  Biso   1.000  C
  C90      1.0000 0.71422  0.06232  0.49884  Biso   1.000  C
  C91      1.0000 0.40949  0.39844  0.46545  Biso   1.000  C
  C92      1.0000 0.45077  0.38209  0.43848  Biso   1.000  C
  C93      1.0000 0.47984  0.34033  0.45561  Biso   1.000  C
  C94      1.0000 0.44330  0.28637  0.46475  Biso   1.000  C
  C95      1.0000 0.47076  0.24759  0.48071  Biso   1.000  C
  C96      1.0000 0.53472  0.25972  0.48640  Biso   1.000  C
  C97      1.0000 0.57140  0.31295  0.47919  Biso   1.000  C
  C98      1.0000 0.54423  0.35233  0.46268  Biso   1.000  C
  C99      1.0000 0.56348  0.21538  0.50116  Biso   1.000  C
  C100     1.0000 0.06701  0.60156  0.01105  Biso   1.000  C
  C101     1.0000 0.05639  0.61791  0.06868  Biso   1.000  C
  C102     1.0000 0.11528  0.65967  0.13951  Biso   1.000  C
  C103     1.0000 0.17838  0.71363  0.15693  Biso   1.000  C
  C104     1.0000 0.23312  0.75241  0.22317  Biso   1.000  C
  C105     1.0000 0.22668  0.74028  0.27500  Biso   1.000  C
  C106     1.0000 0.16624  0.68705  0.25845  Biso   1.000  C
  C107     1.0000 0.11035  0.64767  0.19190  Biso   1.000  C
  C108     1.0000 0.28578  0.78462  0.34810  Biso   1.000  C
  C109     1.0000 0.46545  0.06701  0.05596  Biso   1.000  C
  C110     1.0000 0.43848  0.05639  0.98771  Biso   1.000  C
  C111     1.0000 0.45561  0.11528  0.97577  Biso   1.000  C
  C112     1.0000 0.46475  0.17838  0.02145  Biso   1.000  C
  C113     1.0000 0.48071  0.23312  0.00995  Biso   1.000  C
  C114     1.0000 0.48640  0.22668  0.95168  Biso   1.000  C
  C115     1.0000 0.47919  0.16624  0.90779  Biso   1.000  C
  C116     1.0000 0.46268  0.11035  0.91845  Biso   1.000  C
  C117     1.0000 0.50116  0.28578  0.93768  Biso   1.000  C
  C118     1.0000 0.01105  0.40949  0.94404  Biso   1.000  C
  C119     1.0000 0.06868  0.45077  0.01229  Biso   1.000  C
  C120     1.0000 0.13951  0.47984  0.02423  Biso   1.000  C
  C121     1.0000 0.15693  0.44330  0.97855  Biso   1.000  C
  C122     1.0000 0.22317  0.47076  0.99005  Biso   1.000  C
  C123     1.0000 0.27500  0.53472  0.04832  Biso   1.000  C
  C124     1.0000 0.25845  0.57140  0.09221  Biso   1.000  C
  C125     1.0000 0.19190  0.54423  0.08155  Biso   1.000  C
  C126     1.0000 0.34810  0.56348  0.06232  Biso   1.000  C
  C127     1.0000 0.98895  0.93299  0.39844  Biso   1.000  C
  C128     1.0000 0.93132  0.94361  0.38209  Biso   1.000  C
  C129     1.0000 0.86049  0.88472  0.34033  Biso   1.000  C
  C130     1.0000 0.84307  0.82162  0.28637  Biso   1.000  C
  C131     1.0000 0.77683  0.76688  0.24759  Biso   1.000  C
  C132     1.0000 0.72500  0.77332  0.25972  Biso   1.000  C
  C133     1.0000 0.74155  0.83376  0.31295  Biso   1.000  C
  C134     1.0000 0.80810  0.88965  0.35233  Biso   1.000  C
  C135     1.0000 0.65190  0.71422  0.21538  Biso   1.000  C
  C136     1.0000 0.53455  0.59051  0.60156  Biso   1.000  C
  C137     1.0000 0.56152  0.54923  0.61791  Biso   1.000  C
  C138     1.0000 0.54439  0.52016  0.65967  Biso   1.000  C
  C139     1.0000 0.53525  0.55670  0.71363  Biso   1.000  C
  C140     1.0000 0.51929  0.52924  0.75241  Biso   1.000  C
  C141     1.0000 0.51360  0.46528  0.74028  Biso   1.000  C
  C142     1.0000 0.52081  0.42860  0.68705  Biso   1.000  C
  C143     1.0000 0.53732  0.45577  0.64767  Biso   1.000  C
  C144     1.0000 0.49884  0.43652  0.78462  Biso   1.000  C
  C145     1.0000 0.39844  0.98895  0.93299  Biso   1.000  C
  C146     1.0000 0.38209  0.93132  0.94361  Biso   1.000  C
  C147     1.0000 0.34033  0.86049  0.88472  Biso   1.000  C
  C148     1.0000 0.28637  0.84307  0.82162  Biso   1.000  C
  C149     1.0000 0.24759  0.77683  0.76688  Biso   1.000  C
  C150     1.0000 0.25972  0.72500  0.77332  Biso   1.000  C
  C151     1.0000 0.31295  0.74155  0.83376  Biso   1.000  C
  C152     1.0000 0.35233  0.80810  0.88965  Biso   1.000  C
  C153     1.0000 0.21538  0.65190  0.71422  Biso   1.000  C
  C154     1.0000 0.60156  0.53455  0.59051  Biso   1.000  C
  C155     1.0000 0.61791  0.56152  0.54923  Biso   1.000  C
  C156     1.0000 0.65967  0.54439  0.52016  Biso   1.000  C
  C157     1.0000 0.71363  0.53525  0.55670  Biso   1.000  C
  C158     1.0000 0.75241  0.51929  0.52924  Biso   1.000  C
  C159     1.0000 0.74028  0.51360  0.46528  Biso   1.000  C
  C160     1.0000 0.68705  0.52081  0.42860  Biso   1.000  C
  C161     1.0000 0.64767  0.53732  0.45577  Biso   1.000  C
  C162     1.0000 0.78462  0.49884  0.43652  Biso   1.000  C
  C163     1.0000 0.05596  0.46545  0.06701  Biso   1.000  C
  C164     1.0000 0.98771  0.43848  0.05639  Biso   1.000  C
  C165     1.0000 0.97577  0.45561  0.11528  Biso   1.000  C
  C166     1.0000 0.02145  0.46475  0.17838  Biso   1.000  C
  C167     1.0000 0.00995  0.48071  0.23312  Biso   1.000  C
  C168     1.0000 0.95168  0.48640  0.22668  Biso   1.000  C
  C169     1.0000 0.90779  0.47919  0.16624  Biso   1.000  C
  C170     1.0000 0.91845  0.46268  0.11035  Biso   1.000  C
  C171     1.0000 0.93768  0.50116  0.28578  Biso   1.000  C
  C172     1.0000 0.94404  0.01105  0.40949  Biso   1.000  C
  C173     1.0000 0.01229  0.06868  0.45077  Biso   1.000  C
  C174     1.0000 0.02423  0.13951  0.47984  Biso   1.000  C
  C175     1.0000 0.97855  0.15693  0.44330  Biso   1.000  C
  C176     1.0000 0.99005  0.22317  0.47076  Biso   1.000  C
  C177     1.0000 0.04832  0.27500  0.53472  Biso   1.000  C
  C178     1.0000 0.09221  0.25845  0.57140  Biso   1.000  C
  C179     1.0000 0.08155  0.19190  0.54423  Biso   1.000  C
  C180     1.0000 0.06232  0.34810  0.56348  Biso   1.000  C
  C181     1.0000 0.40949  0.94404  0.01105  Biso   1.000  C
  C182     1.0000 0.45077  0.01229  0.06868  Biso   1.000  C
  C183     1.0000 0.47984  0.02423  0.13951  Biso   1.000  C
  C184     1.0000 0.44330  0.97855  0.15693  Biso   1.000  C
  C185     1.0000 0.47076  0.99005  0.22317  Biso   1.000  C
  C186     1.0000 0.53472  0.04832  0.27500  Biso   1.000  C
  C187     1.0000 0.57140  0.09221  0.25845  Biso   1.000  C
  C188     1.0000 0.54423  0.08155  0.19190  Biso   1.000  C
  C189     1.0000 0.56348  0.06232  0.34810  Biso   1.000  C
  C190     1.0000 0.06701  0.05596  0.46545  Biso   1.000  C
  C191     1.0000 0.05639  0.98771  0.43848  Biso   1.000  C
  C192     1.0000 0.11528  0.97577  0.45561  Biso   1.000  C
  C193     1.0000 0.17838  0.02145  0.46475  Biso   1.000  C
  C194     1.0000 0.23312  0.00995  0.48071  Biso   1.000  C
  C195     1.0000 0.22668  0.95168  0.48640  Biso   1.000  C
  C196     1.0000 0.16624  0.90779  0.47919  Biso   1.000  C
  C197     1.0000 0.11035  0.91845  0.46268  Biso   1.000  C
  C198     1.0000 0.28578  0.93768  0.50116  Biso   1.000  C
  C199     1.0000 0.59051  0.60156  0.53455  Biso   1.000  C
  C200     1.0000 0.54923  0.61791  0.56152  Biso   1.000  C
  C201     1.0000 0.52016  0.65967  0.54439  Biso   1.000  C
  C202     1.0000 0.55670  0.71363  0.53525  Biso   1.000  C
  C203     1.0000 0.52924  0.75241  0.51929  Biso   1.000  C
  C204     1.0000 0.46528  0.74028  0.51360  Biso   1.000  C
  C205     1.0000 0.42860  0.68705  0.52081  Biso   1.000  C
  C206     1.0000 0.45577  0.64767  0.53732  Biso   1.000  C
  C207     1.0000 0.43652  0.78462  0.49884  Biso   1.000  C
  C208     1.0000 0.93299  0.39844  0.98895  Biso   1.000  C
  C209     1.0000 0.94361  0.38209  0.93132  Biso   1.000  C
  C210     1.0000 0.88472  0.34033  0.86049  Biso   1.000  C
  C211     1.0000 0.82162  0.28637  0.84307  Biso   1.000  C
  C212     1.0000 0.76688  0.24759  0.77683  Biso   1.000  C
  C213     1.0000 0.77332  0.25972  0.72500  Biso   1.000  C
  C214     1.0000 0.83376  0.31295  0.74155  Biso   1.000  C
  C215     1.0000 0.88965  0.35233  0.80810  Biso   1.000  C
  C216     1.0000 0.71422  0.21538  0.65190  Biso   1.000  C
  O1       1.0000 0.50004  0.72459  0.11715  Biso   1.000  O
  O2       1.0000 0.48193  0.65593  0.01448  Biso   1.000  O
  O3       1.0000 0.60744  0.38289  0.88285  Biso   1.000  O
  O4       1.0000 0.64145  0.46745  0.98552  Biso   1.000  O
  O5       1.0000 0.39256  0.27541  0.77545  Biso   1.000  O
  O6       1.0000 0.35855  0.34407  0.82600  Biso   1.000  O
  O7       1.0000 0.49996  0.61711  0.22455  Biso   1.000  O
  O8       1.0000 0.51807  0.53255  0.17400  Biso   1.000  O
  O9       1.0000 0.77545  0.39256  0.27541  Biso   1.000  O
  O10      1.0000 0.82600  0.35855  0.34407  Biso   1.000  O
  O11      1.0000 0.22455  0.49996  0.61711  Biso   1.000  O
  O12      1.0000 0.17400  0.51807  0.53255  Biso   1.000  O
  O13      1.0000 0.11715  0.50004  0.72459  Biso   1.000  O
  O14      1.0000 0.01448  0.48193  0.65593  Biso   1.000  O
  O15      1.0000 0.88285  0.60744  0.38289  Biso   1.000  O
  O16      1.0000 0.98552  0.64145  0.46745  Biso   1.000  O
  O17      1.0000 0.38289  0.88285  0.60744  Biso   1.000  O
  O18      1.0000 0.46745  0.98552  0.64145  Biso   1.000  O
  O19      1.0000 0.72459  0.11715  0.50004  Biso   1.000  O
  O20      1.0000 0.65593  0.01448  0.48193  Biso   1.000  O
  O21      1.0000 0.61711  0.22455  0.49996  Biso   1.000  O
  O22      1.0000 0.53255  0.17400  0.51807  Biso   1.000  O
  O23      1.0000 0.27541  0.77545  0.39256  Biso   1.000  O
  O24      1.0000 0.34407  0.82600  0.35855  Biso   1.000  O
  O25      1.0000 0.49996  0.27541  0.88285  Biso   1.000  O
  O26      1.0000 0.51807  0.34407  0.98552  Biso   1.000  O
  O27      1.0000 0.39256  0.61711  0.11715  Biso   1.000  O
  O28      1.0000 0.35855  0.53255  0.01448  Biso   1.000  O
  O29      1.0000 0.60744  0.72459  0.22455  Biso   1.000  O
  O30      1.0000 0.64145  0.65593  0.17400  Biso   1.000  O
  O31      1.0000 0.50004  0.38289  0.77545  Biso   1.000  O
  O32      1.0000 0.48193  0.46745  0.82600  Biso   1.000  O
  O33      1.0000 0.22455  0.60744  0.72459  Biso   1.000  O
  O34      1.0000 0.17400  0.64145  0.65593  Biso   1.000  O
  O35      1.0000 0.77545  0.50004  0.38289  Biso   1.000  O
  O36      1.0000 0.82600  0.48193  0.46745  Biso   1.000  O
  O37      1.0000 0.88285  0.49996  0.27541  Biso   1.000  O
  O38      1.0000 0.98552  0.51807  0.34407  Biso   1.000  O
  O39      1.0000 0.11715  0.39256  0.61711  Biso   1.000  O
  O40      1.0000 0.01448  0.35855  0.53255  Biso   1.000  O
  O41      1.0000 0.61711  0.11715  0.39256  Biso   1.000  O
  O42      1.0000 0.53255  0.01448  0.35855  Biso   1.000  O
  O43      1.0000 0.27541  0.88285  0.49996  Biso   1.000  O
  O44      1.0000 0.34407  0.98552  0.51807  Biso   1.000  O
  O45      1.0000 0.38289  0.77545  0.50004  Biso   1.000  O
  O46      1.0000 0.46745  0.82600  0.48193  Biso   1.000  O
  O47      1.0000 0.72459  0.22455  0.60744  Biso   1.000  O
  O48      1.0000 0.65593  0.17400  0.64145  Biso   1.000  O
  O49      1.0000 0.50000  0.58965  0.08965  Biso   1.000  O
  O50      1.0000 0.50000  0.74406  0.24406  Biso   1.000  O
  O51      1.0000 0.50000  0.41035  0.91035  Biso   1.000  O
  O52      1.0000 0.50000  0.25594  0.75594  Biso   1.000  O
  O53      1.0000 0.91035  0.50000  0.41035  Biso   1.000  O
  O54      1.0000 0.75594  0.50000  0.25594  Biso   1.000  O
  O55      1.0000 0.08965  0.50000  0.58965  Biso   1.000  O
  O56      1.0000 0.24406  0.50000  0.74406  Biso   1.000  O
  O57      1.0000 0.41035  0.91035  0.50000  Biso   1.000  O
  O58      1.0000 0.25594  0.75594  0.50000  Biso   1.000  O
  O59      1.0000 0.58965  0.08965  0.50000  Biso   1.000  O
  O60      1.0000 0.74406  0.24406  0.50000  Biso   1.000  O
  O61      1.0000 0.39889  0.50000  0.89889  Biso   1.000  O
  O62      1.0000 0.60111  0.50000  0.10111  Biso   1.000  O
  O63      1.0000 0.89889  0.39889  0.50000  Biso   1.000  O
  O64      1.0000 0.10111  0.60111  0.50000  Biso   1.000  O
  O65      1.0000 0.50000  0.10111  0.60111  Biso   1.000  O
  O66      1.0000 0.50000  0.89889  0.39889  Biso   1.000  O
  O67      1.0000 0.50000  0.50000  0.00000  Biso   1.000  O
  O68      1.0000 0.00000  0.50000  0.50000  Biso   1.000  O
  O69      1.0000 0.50000  0.00000  0.50000  Biso   1.000  O
