data_image0
_cell_length_a       10.0224
_cell_length_b       11.4488
_cell_length_c       15.1754
_cell_angle_alpha    90.8601
_cell_angle_beta     90
_cell_angle_gamma    90

_symmetry_space_group_name_H-M    P 1
_symmetry_int_tables_number       1

loop_
  _symmetry_equiv_pos_as_xyz
  'x, y, z'

loop_
  _atom_site_label
  _atom_site_occupancy
  _atom_site_fract_x
  _atom_site_fract_y
  _atom_site_fract_z
  _atom_site_thermal_displace_type
  _atom_site_B_iso_or_equiv
  _atom_site_type_symbol
  Fe1      1.0000 0.92630  0.75432  0.13442  Biso   1.000  Fe
  Fe2      1.0000 0.87877  0.25961  0.69674  Biso   1.000  Fe
  Fe3      1.0000 0.42630  0.74568  0.36558  Biso   1.000  Fe
  Fe4      1.0000 0.37877  0.24039  0.80326  Biso   1.000  Fe
  Fe5      1.0000 0.07370  0.24568  0.86558  Biso   1.000  Fe
  Fe6      1.0000 0.12123  0.74039  0.30326  Biso   1.000  Fe
  Fe7      1.0000 0.57370  0.25432  0.63442  Biso   1.000  Fe
  Fe8      1.0000 0.62123  0.75961  0.19674  Biso   1.000  Fe
  Fe9      1.0000 0.00000  0.50000  0.00000  Biso   1.000  Fe
  Fe10     1.0000 0.50000  0.00000  0.50000  Biso   1.000  Fe
  Fe11     1.0000 0.00000  0.00000  0.00000  Biso   1.000  Fe
  Fe12     1.0000 0.50000  0.50000  0.50000  Biso   1.000  Fe
  H1       1.0000 0.77300  0.85340  0.36840  Biso   1.000  H
  H2       1.0000 0.05600  0.47610  0.25710  Biso   1.000  H
  H3       1.0000 0.62800  0.53450  0.07550  Biso   1.000  H
  H4       1.0000 0.23000  0.96470  0.20670  Biso   1.000  H
  H5       1.0000 0.12800  0.69560  0.91660  Biso   1.000  H
  H6       1.0000 0.71400  0.99560  0.02660  Biso   1.000  H
  H7       1.0000 0.27300  0.64660  0.13160  Biso   1.000  H
  H8       1.0000 0.55600  0.02390  0.24290  Biso   1.000  H
  H9       1.0000 0.12800  0.96550  0.42450  Biso   1.000  H
  H10      1.0000 0.73000  0.53530  0.29330  Biso   1.000  H
  H11      1.0000 0.62800  0.80440  0.58340  Biso   1.000  H
  H12      1.0000 0.21400  0.50440  0.47340  Biso   1.000  H
  H13      1.0000 0.22700  0.14660  0.63160  Biso   1.000  H
  H14      1.0000 0.94400  0.52390  0.74290  Biso   1.000  H
  H15      1.0000 0.37200  0.46550  0.92450  Biso   1.000  H
  H16      1.0000 0.77000  0.03530  0.79330  Biso   1.000  H
  H17      1.0000 0.87200  0.30440  0.08340  Biso   1.000  H
  H18      1.0000 0.28600  0.00440  0.97340  Biso   1.000  H
  H19      1.0000 0.72700  0.35340  0.86840  Biso   1.000  H
  H20      1.0000 0.44400  0.97610  0.75710  Biso   1.000  H
  H21      1.0000 0.87200  0.03450  0.57550  Biso   1.000  H
  H22      1.0000 0.27000  0.46470  0.70670  Biso   1.000  H
  H23      1.0000 0.37200  0.19560  0.41660  Biso   1.000  H
  H24      1.0000 0.78600  0.49560  0.52660  Biso   1.000  H
  C1       1.0000 0.84240  0.82611  0.32951  Biso   1.000  C
  C2       1.0000 0.03680  0.51856  0.20416  Biso   1.000  C
  C3       1.0000 0.71780  0.56176  0.06976  Biso   1.000  C
  C4       1.0000 0.15580  0.94050  0.17030  Biso   1.000  C
  C5       1.0000 0.08330  0.74142  0.96142  Biso   1.000  C
  C6       1.0000 0.72990  0.93501  0.06571  Biso   1.000  C
  C7       1.0000 0.34240  0.67389  0.17049  Biso   1.000  C
  C8       1.0000 0.53680  0.98144  0.29584  Biso   1.000  C
  C9       1.0000 0.21780  0.93824  0.43024  Biso   1.000  C
  C10      1.0000 0.65580  0.55950  0.32970  Biso   1.000  C
  C11      1.0000 0.58330  0.75858  0.53858  Biso   1.000  C
  C12      1.0000 0.22990  0.56499  0.43429  Biso   1.000  C
  C13      1.0000 0.15760  0.17389  0.67049  Biso   1.000  C
  C14      1.0000 0.96320  0.48144  0.79584  Biso   1.000  C
  C15      1.0000 0.28220  0.43824  0.93024  Biso   1.000  C
  C16      1.0000 0.84420  0.05950  0.82970  Biso   1.000  C
  C17      1.0000 0.91670  0.25858  0.03858  Biso   1.000  C
  C18      1.0000 0.27010  0.06499  0.93429  Biso   1.000  C
  C19      1.0000 0.65760  0.32611  0.82951  Biso   1.000  C
  C20      1.0000 0.46320  0.01856  0.70416  Biso   1.000  C
  C21      1.0000 0.78220  0.06176  0.56976  Biso   1.000  C
  C22      1.0000 0.34420  0.44050  0.67030  Biso   1.000  C
  C23      1.0000 0.41670  0.24142  0.46142  Biso   1.000  C
  C24      1.0000 0.77010  0.43501  0.56571  Biso   1.000  C
  O1       1.0000 0.81140  0.80737  0.24903  Biso   1.000  O
  O2       1.0000 0.95381  0.81103  0.36305  Biso   1.000  O
  O3       1.0000 0.01487  0.62776  0.21448  Biso   1.000  O
  O4       1.0000 0.02901  0.46277  0.13449  Biso   1.000  O
  O5       1.0000 0.74999  0.64980  0.11860  Biso   1.000  O
  O6       1.0000 0.79346  0.50732  0.01979  Biso   1.000  O
  O7       1.0000 0.09390  0.84674  0.18956  Biso   1.000  O
  O8       1.0000 0.13186  0.00508  0.10814  Biso   1.000  O
  O9       1.0000 0.01847  0.68636  0.02079  Biso   1.000  O
  O10      1.0000 0.09163  0.84846  0.95456  Biso   1.000  O
  O11      1.0000 0.85086  0.89991  0.06935  Biso   1.000  O
  O12      1.0000 0.63333  0.89417  0.10567  Biso   1.000  O
  O13      1.0000 0.31140  0.69263  0.25097  Biso   1.000  O
  O14      1.0000 0.45381  0.68897  0.13695  Biso   1.000  O
  O15      1.0000 0.51487  0.87224  0.28552  Biso   1.000  O
  O16      1.0000 0.52901  0.03723  0.36551  Biso   1.000  O
  O17      1.0000 0.24999  0.85020  0.38140  Biso   1.000  O
  O18      1.0000 0.29346  0.99268  0.48021  Biso   1.000  O
  O19      1.0000 0.59390  0.65326  0.31044  Biso   1.000  O
  O20      1.0000 0.63186  0.49492  0.39186  Biso   1.000  O
  O21      1.0000 0.51847  0.81364  0.47921  Biso   1.000  O
  O22      1.0000 0.59163  0.65154  0.54544  Biso   1.000  O
  O23      1.0000 0.35086  0.60009  0.43065  Biso   1.000  O
  O24      1.0000 0.13333  0.60583  0.39433  Biso   1.000  O
  O25      1.0000 0.18860  0.19263  0.75097  Biso   1.000  O
  O26      1.0000 0.04619  0.18897  0.63695  Biso   1.000  O
  O27      1.0000 0.98513  0.37224  0.78552  Biso   1.000  O
  O28      1.0000 0.97099  0.53723  0.86551  Biso   1.000  O
  O29      1.0000 0.25001  0.35020  0.88140  Biso   1.000  O
  O30      1.0000 0.20654  0.49268  0.98021  Biso   1.000  O
  O31      1.0000 0.90610  0.15326  0.81044  Biso   1.000  O
  O32      1.0000 0.86814  0.99492  0.89186  Biso   1.000  O
  O33      1.0000 0.98153  0.31364  0.97921  Biso   1.000  O
  O34      1.0000 0.90837  0.15154  0.04544  Biso   1.000  O
  O35      1.0000 0.14914  0.10009  0.93065  Biso   1.000  O
  O36      1.0000 0.36667  0.10583  0.89433  Biso   1.000  O
  O37      1.0000 0.68860  0.30737  0.74903  Biso   1.000  O
  O38      1.0000 0.54619  0.31103  0.86305  Biso   1.000  O
  O39      1.0000 0.48513  0.12776  0.71448  Biso   1.000  O
  O40      1.0000 0.47099  0.96277  0.63449  Biso   1.000  O
  O41      1.0000 0.75001  0.14980  0.61860  Biso   1.000  O
  O42      1.0000 0.70654  0.00732  0.51979  Biso   1.000  O
  O43      1.0000 0.40610  0.34674  0.68956  Biso   1.000  O
  O44      1.0000 0.36814  0.50508  0.60814  Biso   1.000  O
  O45      1.0000 0.48153  0.18636  0.52079  Biso   1.000  O
  O46      1.0000 0.40837  0.34846  0.45456  Biso   1.000  O
  O47      1.0000 0.64914  0.39991  0.56935  Biso   1.000  O
  O48      1.0000 0.86667  0.39417  0.60567  Biso   1.000  O
