data_image0
_cell_length_a       11.4198
_cell_length_b       9.8979
_cell_length_c       18.4392
_cell_angle_alpha    90
_cell_angle_beta     126.853
_cell_angle_gamma    90

_symmetry_space_group_name_H-M    "P 1"
_symmetry_int_tables_number       1

loop_
  _symmetry_equiv_pos_as_xyz
  'x, y, z'

loop_
  _atom_site_label
  _atom_site_occupancy
  _atom_site_fract_x
  _atom_site_fract_y
  _atom_site_fract_z
  _atom_site_thermal_displace_type
  _atom_site_B_iso_or_equiv
  _atom_site_type_symbol
  Fe1      1.0000 0.37725  0.08216  0.13297  Biso   1.000  Fe
  Fe2      1.0000 0.42781  0.10670  0.68833  Biso   1.000  Fe
  O1       1.0000 0.43710  0.20280  0.24630  Biso   1.000  O
  O2       1.0000 0.54970  0.06430  0.36579  Biso   1.000  O
  O3       1.0000 0.58950  0.99840  0.21840  Biso   1.000  O
  O4       1.0000 0.67630  0.99990  0.13793  Biso   1.000  O
  O5       1.0000 0.45470  0.25940  0.10745  Biso   1.000  O
  O6       1.0000 0.48430  0.20980  0.00171  Biso   1.000  O
  O7       1.0000 0.34530  0.91860  0.19548  Biso   1.000  O
  O8       1.0000 0.10470  0.89450  0.11953  Biso   1.000  O
  O9       1.0000 0.33650  0.97540  0.02278  Biso   1.000  O
  O10      1.0000 0.11470  0.89550  0.96580  Biso   1.000  O
  O11      1.0000 0.15970  0.15580  0.06076  Biso   1.000  O
  O12      1.0000 0.20330  0.37700  0.09432  Biso   1.000  O
  C1       1.0000 0.49620  0.17350  0.32920  Biso   1.000  C
  H1       1.0000 0.49870  0.24130  0.36490  Biso   1.000  H
  C2       1.0000 0.69130  0.98650  0.20960  Biso   1.000  C
  H2       1.0000 0.78440  0.96590  0.26130  Biso   1.000  H
  C3       1.0000 0.47420  0.28940  0.04920  Biso   1.000  C
  H3       1.0000 0.48170  0.38080  0.04100  Biso   1.000  H
  C4       1.0000 0.23190  0.87030  0.18290  Biso   1.000  C
  H4       1.0000 0.24680  0.81010  0.22650  Biso   1.000  H
  C5       1.0000 0.22390  0.90290  0.96830  Biso   1.000  C
  H5       1.0000 0.22490  0.85100  0.92670  Biso   1.000  H
  C6       1.0000 0.11960  0.28030  0.05320  Biso   1.000  C
  H6       1.0000 0.02000  0.29870  0.01380  Biso   1.000  H
  Fe3      1.0000 0.62275  0.58216  0.36703  Biso   1.000  Fe
  Fe4      1.0000 0.57219  0.60670  0.81167  Biso   1.000  Fe
  O13      1.0000 0.56290  0.70280  0.25370  Biso   1.000  O
  O14      1.0000 0.45030  0.56430  0.13421  Biso   1.000  O
  O15      1.0000 0.41050  0.49840  0.28160  Biso   1.000  O
  O16      1.0000 0.32370  0.49990  0.36207  Biso   1.000  O
  O17      1.0000 0.54530  0.75940  0.39255  Biso   1.000  O
  O18      1.0000 0.51570  0.70980  0.49829  Biso   1.000  O
  O19      1.0000 0.65470  0.41860  0.30452  Biso   1.000  O
  O20      1.0000 0.89530  0.39450  0.38047  Biso   1.000  O
  O21      1.0000 0.66350  0.47540  0.47722  Biso   1.000  O
  O22      1.0000 0.88530  0.39550  0.53420  Biso   1.000  O
  O23      1.0000 0.84030  0.65580  0.43924  Biso   1.000  O
  O24      1.0000 0.79670  0.87700  0.40568  Biso   1.000  O
  C7       1.0000 0.50380  0.67350  0.17080  Biso   1.000  C
  H7       1.0000 0.50130  0.74130  0.13510  Biso   1.000  H
  C8       1.0000 0.30870  0.48650  0.29040  Biso   1.000  C
  H8       1.0000 0.21560  0.46590  0.23870  Biso   1.000  H
  C9       1.0000 0.52580  0.78940  0.45080  Biso   1.000  C
  H9       1.0000 0.51830  0.88080  0.45900  Biso   1.000  H
  C10      1.0000 0.76810  0.37030  0.31710  Biso   1.000  C
  H10      1.0000 0.75320  0.31010  0.27350  Biso   1.000  H
  C11      1.0000 0.77610  0.40290  0.53170  Biso   1.000  C
  H11      1.0000 0.77510  0.35100  0.57330  Biso   1.000  H
  C12      1.0000 0.88040  0.78030  0.44680  Biso   1.000  C
  H12      1.0000 0.98000  0.79870  0.48620  Biso   1.000  H
  Fe5      1.0000 0.62275  0.91784  0.86703  Biso   1.000  Fe
  Fe6      1.0000 0.57219  0.89330  0.31167  Biso   1.000  Fe
  O25      1.0000 0.56290  0.79720  0.75370  Biso   1.000  O
  O26      1.0000 0.45030  0.93570  0.63421  Biso   1.000  O
  O27      1.0000 0.41050  0.00160  0.78160  Biso   1.000  O
  O28      1.0000 0.32370  0.00010  0.86207  Biso   1.000  O
  O29      1.0000 0.54530  0.74060  0.89255  Biso   1.000  O
  O30      1.0000 0.51570  0.79020  0.99829  Biso   1.000  O
  O31      1.0000 0.65470  0.08140  0.80452  Biso   1.000  O
  O32      1.0000 0.89530  0.10550  0.88047  Biso   1.000  O
  O33      1.0000 0.66350  0.02460  0.97722  Biso   1.000  O
  O34      1.0000 0.88530  0.10450  0.03420  Biso   1.000  O
  O35      1.0000 0.84030  0.84420  0.93924  Biso   1.000  O
  O36      1.0000 0.79670  0.62300  0.90568  Biso   1.000  O
  C13      1.0000 0.50380  0.82650  0.67080  Biso   1.000  C
  H13      1.0000 0.50130  0.75870  0.63510  Biso   1.000  H
  C14      1.0000 0.30870  0.01350  0.79040  Biso   1.000  C
  H14      1.0000 0.21560  0.03410  0.73870  Biso   1.000  H
  C15      1.0000 0.52580  0.71060  0.95080  Biso   1.000  C
  H15      1.0000 0.51830  0.61920  0.95900  Biso   1.000  H
  C16      1.0000 0.76810  0.12970  0.81710  Biso   1.000  C
  H16      1.0000 0.75320  0.18990  0.77350  Biso   1.000  H
  C17      1.0000 0.77610  0.09710  0.03170  Biso   1.000  C
  H17      1.0000 0.77510  0.14900  0.07330  Biso   1.000  H
  C18      1.0000 0.88040  0.71970  0.94680  Biso   1.000  C
  H18      1.0000 0.98000  0.70130  0.98620  Biso   1.000  H
  Fe7      1.0000 0.37725  0.41784  0.63297  Biso   1.000  Fe
  Fe8      1.0000 0.42781  0.39330  0.18833  Biso   1.000  Fe
  O37      1.0000 0.43710  0.29720  0.74630  Biso   1.000  O
  O38      1.0000 0.54970  0.43570  0.86579  Biso   1.000  O
  O39      1.0000 0.58950  0.50160  0.71840  Biso   1.000  O
  O40      1.0000 0.67630  0.50010  0.63793  Biso   1.000  O
  O41      1.0000 0.45470  0.24060  0.60745  Biso   1.000  O
  O42      1.0000 0.48430  0.29020  0.50171  Biso   1.000  O
  O43      1.0000 0.34530  0.58140  0.69548  Biso   1.000  O
  O44      1.0000 0.10470  0.60550  0.61953  Biso   1.000  O
  O45      1.0000 0.33650  0.52460  0.52278  Biso   1.000  O
  O46      1.0000 0.11470  0.60450  0.46580  Biso   1.000  O
  O47      1.0000 0.15970  0.34420  0.56076  Biso   1.000  O
  O48      1.0000 0.20330  0.12300  0.59432  Biso   1.000  O
  C19      1.0000 0.49620  0.32650  0.82920  Biso   1.000  C
  H19      1.0000 0.49870  0.25870  0.86490  Biso   1.000  H
  C20      1.0000 0.69130  0.51350  0.70960  Biso   1.000  C
  H20      1.0000 0.78440  0.53410  0.76130  Biso   1.000  H
  C21      1.0000 0.47420  0.21060  0.54920  Biso   1.000  C
  H21      1.0000 0.48170  0.11920  0.54100  Biso   1.000  H
  C22      1.0000 0.23190  0.62970  0.68290  Biso   1.000  C
  H22      1.0000 0.24680  0.68990  0.72650  Biso   1.000  H
  C23      1.0000 0.22390  0.59710  0.46830  Biso   1.000  C
  H23      1.0000 0.22490  0.64900  0.42670  Biso   1.000  H
  C24      1.0000 0.11960  0.21970  0.55320  Biso   1.000  C
  H24      1.0000 0.02000  0.20130  0.51380  Biso   1.000  H
  Fe9      1.0000 0.50000  0.00000  0.00000  Biso   1.000  Fe
  Fe10     1.0000 0.50000  0.50000  0.50000  Biso   1.000  Fe
  Fe11     1.0000 0.00000  0.00000  0.00000  Biso   1.000  Fe
  Fe12     1.0000 0.00000  0.50000  0.50000  Biso   1.000  Fe
