data_image0
_cell_length_a       10.0705
_cell_length_b       11.4667
_cell_length_c       15.2124
_cell_angle_alpha    90.8908
_cell_angle_beta     90
_cell_angle_gamma    90

_symmetry_space_group_name_H-M    P 1
_symmetry_int_tables_number       1

loop_
  _symmetry_equiv_pos_as_xyz
  'x, y, z'

loop_
  _atom_site_label
  _atom_site_occupancy
  _atom_site_fract_x
  _atom_site_fract_y
  _atom_site_fract_z
  _atom_site_thermal_displace_type
  _atom_site_B_iso_or_equiv
  _atom_site_type_symbol
  Fe1      1.0000 0.92826  0.75421  0.13433  Biso   1.000  Fe
  Fe2      1.0000 0.87582  0.25948  0.69763  Biso   1.000  Fe
  Fe3      1.0000 0.42826  0.74579  0.36567  Biso   1.000  Fe
  Fe4      1.0000 0.37582  0.24052  0.80237  Biso   1.000  Fe
  Fe5      1.0000 0.07174  0.24579  0.86567  Biso   1.000  Fe
  Fe6      1.0000 0.12418  0.74052  0.30237  Biso   1.000  Fe
  Fe7      1.0000 0.57174  0.25421  0.63433  Biso   1.000  Fe
  Fe8      1.0000 0.62418  0.75948  0.19763  Biso   1.000  Fe
  Fe9      1.0000 0.00000  0.50000  0.00000  Biso   1.000  Fe
  Fe10     1.0000 0.50000  0.00000  0.50000  Biso   1.000  Fe
  Fe11     1.0000 0.00000  0.00000  0.00000  Biso   1.000  Fe
  Fe12     1.0000 0.50000  0.50000  0.50000  Biso   1.000  Fe
  H1       1.0000 0.77400  0.85020  0.36820  Biso   1.000  H
  H2       1.0000 0.05900  0.47600  0.25400  Biso   1.000  H
  H3       1.0000 0.62300  0.53460  0.07760  Biso   1.000  H
  H4       1.0000 0.22800  0.96360  0.20660  Biso   1.000  H
  H5       1.0000 0.12900  0.69640  0.91540  Biso   1.000  H
  H6       1.0000 0.71700  0.99410  0.03110  Biso   1.000  H
  H7       1.0000 0.27400  0.64980  0.13180  Biso   1.000  H
  H8       1.0000 0.55900  0.02400  0.24600  Biso   1.000  H
  H9       1.0000 0.12300  0.96540  0.42240  Biso   1.000  H
  H10      1.0000 0.72800  0.53640  0.29340  Biso   1.000  H
  H11      1.0000 0.62900  0.80360  0.58460  Biso   1.000  H
  H12      1.0000 0.21700  0.50590  0.46890  Biso   1.000  H
  H13      1.0000 0.22600  0.14980  0.63180  Biso   1.000  H
  H14      1.0000 0.94100  0.52400  0.74600  Biso   1.000  H
  H15      1.0000 0.37700  0.46540  0.92240  Biso   1.000  H
  H16      1.0000 0.77200  0.03640  0.79340  Biso   1.000  H
  H17      1.0000 0.87100  0.30360  0.08460  Biso   1.000  H
  H18      1.0000 0.28300  0.00590  0.96890  Biso   1.000  H
  H19      1.0000 0.72600  0.35020  0.86820  Biso   1.000  H
  H20      1.0000 0.44100  0.97600  0.75400  Biso   1.000  H
  H21      1.0000 0.87700  0.03460  0.57760  Biso   1.000  H
  H22      1.0000 0.27200  0.46360  0.70660  Biso   1.000  H
  H23      1.0000 0.37100  0.19640  0.41540  Biso   1.000  H
  H24      1.0000 0.78300  0.49410  0.53110  Biso   1.000  H
  C1       1.0000 0.84610  0.82473  0.32913  Biso   1.000  C
  C2       1.0000 0.03910  0.51935  0.20335  Biso   1.000  C
  C3       1.0000 0.71990  0.56253  0.07083  Biso   1.000  C
  C4       1.0000 0.15640  0.94033  0.16923  Biso   1.000  C
  C5       1.0000 0.08190  0.74168  0.96128  Biso   1.000  C
  C6       1.0000 0.73180  0.93435  0.06695  Biso   1.000  C
  C7       1.0000 0.34610  0.67527  0.17087  Biso   1.000  C
  C8       1.0000 0.53910  0.98065  0.29665  Biso   1.000  C
  C9       1.0000 0.21990  0.93747  0.42917  Biso   1.000  C
  C10      1.0000 0.65640  0.55967  0.33077  Biso   1.000  C
  C11      1.0000 0.58190  0.75832  0.53872  Biso   1.000  C
  C12      1.0000 0.23180  0.56565  0.43305  Biso   1.000  C
  C13      1.0000 0.15390  0.17527  0.67087  Biso   1.000  C
  C14      1.0000 0.96090  0.48065  0.79665  Biso   1.000  C
  C15      1.0000 0.28010  0.43747  0.92917  Biso   1.000  C
  C16      1.0000 0.84360  0.05967  0.83077  Biso   1.000  C
  C17      1.0000 0.91810  0.25832  0.03872  Biso   1.000  C
  C18      1.0000 0.26820  0.06565  0.93305  Biso   1.000  C
  C19      1.0000 0.65390  0.32473  0.82913  Biso   1.000  C
  C20      1.0000 0.46090  0.01935  0.70335  Biso   1.000  C
  C21      1.0000 0.78010  0.06253  0.57083  Biso   1.000  C
  C22      1.0000 0.34360  0.44033  0.66923  Biso   1.000  C
  C23      1.0000 0.41810  0.24168  0.46128  Biso   1.000  C
  C24      1.0000 0.76820  0.43435  0.56695  Biso   1.000  C
  O1       1.0000 0.81432  0.80622  0.24937  Biso   1.000  O
  O2       1.0000 0.95715  0.81056  0.36208  Biso   1.000  O
  O3       1.0000 0.01838  0.62782  0.21357  Biso   1.000  O
  O4       1.0000 0.03030  0.46315  0.13410  Biso   1.000  O
  O5       1.0000 0.75231  0.65013  0.11919  Biso   1.000  O
  O6       1.0000 0.79511  0.50789  0.02062  Biso   1.000  O
  O7       1.0000 0.09532  0.84694  0.18904  Biso   1.000  O
  O8       1.0000 0.13179  0.00462  0.10767  Biso   1.000  O
  O9       1.0000 0.01881  0.68628  0.02060  Biso   1.000  O
  O10      1.0000 0.09013  0.84838  0.95423  Biso   1.000  O
  O11      1.0000 0.85255  0.89993  0.06980  Biso   1.000  O
  O12      1.0000 0.63634  0.89364  0.10705  Biso   1.000  O
  O13      1.0000 0.31432  0.69378  0.25063  Biso   1.000  O
  O14      1.0000 0.45715  0.68944  0.13792  Biso   1.000  O
  O15      1.0000 0.51838  0.87218  0.28643  Biso   1.000  O
  O16      1.0000 0.53030  0.03685  0.36590  Biso   1.000  O
  O17      1.0000 0.25231  0.84987  0.38081  Biso   1.000  O
  O18      1.0000 0.29511  0.99211  0.47938  Biso   1.000  O
  O19      1.0000 0.59532  0.65306  0.31096  Biso   1.000  O
  O20      1.0000 0.63179  0.49538  0.39233  Biso   1.000  O
  O21      1.0000 0.51881  0.81372  0.47940  Biso   1.000  O
  O22      1.0000 0.59013  0.65162  0.54577  Biso   1.000  O
  O23      1.0000 0.35255  0.60007  0.43020  Biso   1.000  O
  O24      1.0000 0.13634  0.60636  0.39295  Biso   1.000  O
  O25      1.0000 0.18568  0.19378  0.75063  Biso   1.000  O
  O26      1.0000 0.04285  0.18944  0.63792  Biso   1.000  O
  O27      1.0000 0.98162  0.37218  0.78643  Biso   1.000  O
  O28      1.0000 0.96970  0.53685  0.86590  Biso   1.000  O
  O29      1.0000 0.24769  0.34987  0.88081  Biso   1.000  O
  O30      1.0000 0.20489  0.49211  0.97938  Biso   1.000  O
  O31      1.0000 0.90468  0.15306  0.81096  Biso   1.000  O
  O32      1.0000 0.86821  0.99538  0.89233  Biso   1.000  O
  O33      1.0000 0.98119  0.31372  0.97940  Biso   1.000  O
  O34      1.0000 0.90987  0.15162  0.04577  Biso   1.000  O
  O35      1.0000 0.14745  0.10007  0.93020  Biso   1.000  O
  O36      1.0000 0.36366  0.10636  0.89295  Biso   1.000  O
  O37      1.0000 0.68568  0.30622  0.74937  Biso   1.000  O
  O38      1.0000 0.54285  0.31056  0.86208  Biso   1.000  O
  O39      1.0000 0.48162  0.12782  0.71357  Biso   1.000  O
  O40      1.0000 0.46970  0.96315  0.63410  Biso   1.000  O
  O41      1.0000 0.74769  0.15013  0.61919  Biso   1.000  O
  O42      1.0000 0.70489  0.00789  0.52062  Biso   1.000  O
  O43      1.0000 0.40468  0.34694  0.68904  Biso   1.000  O
  O44      1.0000 0.36821  0.50462  0.60767  Biso   1.000  O
  O45      1.0000 0.48119  0.18628  0.52060  Biso   1.000  O
  O46      1.0000 0.40987  0.34838  0.45423  Biso   1.000  O
  O47      1.0000 0.64745  0.39993  0.56980  Biso   1.000  O
  O48      1.0000 0.86366  0.39364  0.60705  Biso   1.000  O
