data_image0
_cell_length_a       9.8459
_cell_length_b       11.2911
_cell_length_c       14.825
_cell_angle_alpha    90.8266
_cell_angle_beta     90
_cell_angle_gamma    90

_symmetry_space_group_name_H-M    P 1
_symmetry_int_tables_number       1

loop_
  _symmetry_equiv_pos_as_xyz
  'x, y, z'

loop_
  _atom_site_label
  _atom_site_occupancy
  _atom_site_fract_x
  _atom_site_fract_y
  _atom_site_fract_z
  _atom_site_thermal_displace_type
  _atom_site_B_iso_or_equiv
  _atom_site_type_symbol
  Fe1      1.0000 0.91876  0.75508  0.13350  Biso   1.000  Fe
  Fe2      1.0000 0.89216  0.26222  0.69005  Biso   1.000  Fe
  Fe3      1.0000 0.41876  0.74492  0.36650  Biso   1.000  Fe
  Fe4      1.0000 0.39216  0.23778  0.80995  Biso   1.000  Fe
  Fe5      1.0000 0.08124  0.24492  0.86650  Biso   1.000  Fe
  Fe6      1.0000 0.10784  0.73778  0.30995  Biso   1.000  Fe
  Fe7      1.0000 0.58124  0.25508  0.63350  Biso   1.000  Fe
  Fe8      1.0000 0.60784  0.76222  0.19005  Biso   1.000  Fe
  Fe9      1.0000 0.00000  0.50000  0.00000  Biso   1.000  Fe
  Fe10     1.0000 0.50000  1.00000  0.50000  Biso   1.000  Fe
  Fe11     1.0000 0.00000  0.00000  0.00000  Biso   1.000  Fe
  Fe12     1.0000 0.50000  0.50000  0.50000  Biso   1.000  Fe
  H1       1.0000 0.75400  0.86910  0.36410  Biso   1.000  H
  H2       1.0000 0.03000  0.46940  0.26440  Biso   1.000  H
  H3       1.0000 0.61300  0.55190  0.04590  Biso   1.000  H
  H4       1.0000 0.20700  0.97970  0.22570  Biso   1.000  H
  H5       1.0000 0.15400  0.68970  0.93170  Biso   1.000  H
  H6       1.0000 0.70300  0.98800  0.00700  Biso   1.000  H
  H7       1.0000 0.25400  0.63090  0.13590  Biso   1.000  H
  H8       1.0000 0.53000  0.03060  0.23560  Biso   1.000  H
  H9       1.0000 0.11300  0.94810  0.45410  Biso   1.000  H
  H10      1.0000 0.70700  0.52030  0.27430  Biso   1.000  H
  H11      1.0000 0.65400  0.81030  0.56830  Biso   1.000  H
  H12      1.0000 0.20300  0.51200  0.49300  Biso   1.000  H
  H13      1.0000 0.24600  0.13090  0.63590  Biso   1.000  H
  H14      1.0000 0.97000  0.53060  0.73560  Biso   1.000  H
  H15      1.0000 0.38700  0.44810  0.95410  Biso   1.000  H
  H16      1.0000 0.79300  0.02030  0.77430  Biso   1.000  H
  H17      1.0000 0.84600  0.31030  0.06830  Biso   1.000  H
  H18      1.0000 0.29700  0.01200  0.99300  Biso   1.000  H
  H19      1.0000 0.74600  0.36910  0.86410  Biso   1.000  H
  H20      1.0000 0.47000  0.96940  0.76440  Biso   1.000  H
  H21      1.0000 0.88700  0.05190  0.54590  Biso   1.000  H
  H22      1.0000 0.29300  0.47970  0.72570  Biso   1.000  H
  H23      1.0000 0.34600  0.18970  0.43170  Biso   1.000  H
  H24      1.0000 0.79700  0.48800  0.50700  Biso   1.000  H
  C1       1.0000 0.82630  0.83307  0.32987  Biso   1.000  C
  C2       1.0000 0.01690  0.51315  0.21015  Biso   1.000  C
  C3       1.0000 0.70840  0.57151  0.05321  Biso   1.000  C
  C4       1.0000 0.13420  0.95267  0.18387  Biso   1.000  C
  C5       1.0000 0.10500  0.74305  0.96895  Biso   1.000  C
  C6       1.0000 0.71740  0.92994  0.05144  Biso   1.000  C
  C7       1.0000 0.32630  0.66693  0.17013  Biso   1.000  C
  C8       1.0000 0.51690  0.98685  0.28985  Biso   1.000  C
  C9       1.0000 0.20840  0.92849  0.44679  Biso   1.000  C
  C10      1.0000 0.63420  0.54733  0.31613  Biso   1.000  C
  C11      1.0000 0.60500  0.75695  0.53105  Biso   1.000  C
  C12      1.0000 0.21740  0.57006  0.44856  Biso   1.000  C
  C13      1.0000 0.17370  0.16693  0.67013  Biso   1.000  C
  C14      1.0000 0.98310  0.48685  0.78985  Biso   1.000  C
  C15      1.0000 0.29160  0.42849  0.94679  Biso   1.000  C
  C16      1.0000 0.86580  0.04733  0.81613  Biso   1.000  C
  C17      1.0000 0.89500  0.25695  0.03105  Biso   1.000  C
  C18      1.0000 0.28260  0.07006  0.94856  Biso   1.000  C
  C19      1.0000 0.67370  0.33307  0.82987  Biso   1.000  C
  C20      1.0000 0.48310  0.01315  0.71015  Biso   1.000  C
  C21      1.0000 0.79160  0.07151  0.55321  Biso   1.000  C
  C22      1.0000 0.36580  0.45267  0.68387  Biso   1.000  C
  C23      1.0000 0.39500  0.24305  0.46895  Biso   1.000  C
  C24      1.0000 0.78260  0.42994  0.55144  Biso   1.000  C
  O1       1.0000 0.79913  0.81143  0.24685  Biso   1.000  O
  O2       1.0000 0.93677  0.81371  0.36791  Biso   1.000  O
  O3       1.0000 0.00235  0.62436  0.21803  Biso   1.000  O
  O4       1.0000 0.00693  0.45486  0.13886  Biso   1.000  O
  O5       1.0000 0.74017  0.65029  0.11175  Biso   1.000  O
  O6       1.0000 0.78894  0.51567  0.00427  Biso   1.000  O
  O7       1.0000 0.08484  0.84963  0.19439  Biso   1.000  O
  O8       1.0000 0.10744  0.02101  0.12191  Biso   1.000  O
  O9       1.0000 0.02643  0.68683  0.02317  Biso   1.000  O
  O10      1.0000 0.11499  0.85095  0.96285  Biso   1.000  O
  O11      1.0000 0.84097  0.89685  0.06115  Biso   1.000  O
  O12      1.0000 0.61818  0.89462  0.09492  Biso   1.000  O
  O13      1.0000 0.29913  0.68857  0.25315  Biso   1.000  O
  O14      1.0000 0.43677  0.68629  0.13209  Biso   1.000  O
  O15      1.0000 0.50235  0.87564  0.28197  Biso   1.000  O
  O16      1.0000 0.50693  0.04514  0.36114  Biso   1.000  O
  O17      1.0000 0.24017  0.84971  0.38825  Biso   1.000  O
  O18      1.0000 0.28894  0.98433  0.49573  Biso   1.000  O
  O19      1.0000 0.58484  0.65037  0.30561  Biso   1.000  O
  O20      1.0000 0.60744  0.47899  0.37809  Biso   1.000  O
  O21      1.0000 0.52643  0.81317  0.47683  Biso   1.000  O
  O22      1.0000 0.61499  0.64905  0.53715  Biso   1.000  O
  O23      1.0000 0.34097  0.60315  0.43885  Biso   1.000  O
  O24      1.0000 0.11818  0.60538  0.40508  Biso   1.000  O
  O25      1.0000 0.20087  0.18857  0.75315  Biso   1.000  O
  O26      1.0000 0.06323  0.18629  0.63209  Biso   1.000  O
  O27      1.0000 0.99765  0.37564  0.78197  Biso   1.000  O
  O28      1.0000 0.99307  0.54514  0.86114  Biso   1.000  O
  O29      1.0000 0.25983  0.34971  0.88825  Biso   1.000  O
  O30      1.0000 0.21106  0.48433  0.99573  Biso   1.000  O
  O31      1.0000 0.91516  0.15037  0.80561  Biso   1.000  O
  O32      1.0000 0.89256  0.97899  0.87809  Biso   1.000  O
  O33      1.0000 0.97357  0.31317  0.97683  Biso   1.000  O
  O34      1.0000 0.88501  0.14905  0.03715  Biso   1.000  O
  O35      1.0000 0.15903  0.10315  0.93885  Biso   1.000  O
  O36      1.0000 0.38182  0.10538  0.90508  Biso   1.000  O
  O37      1.0000 0.70087  0.31143  0.74685  Biso   1.000  O
  O38      1.0000 0.56323  0.31371  0.86791  Biso   1.000  O
  O39      1.0000 0.49765  0.12436  0.71803  Biso   1.000  O
  O40      1.0000 0.49307  0.95486  0.63886  Biso   1.000  O
  O41      1.0000 0.75983  0.15029  0.61175  Biso   1.000  O
  O42      1.0000 0.71106  0.01567  0.50427  Biso   1.000  O
  O43      1.0000 0.41516  0.34963  0.69439  Biso   1.000  O
  O44      1.0000 0.39256  0.52101  0.62191  Biso   1.000  O
  O45      1.0000 0.47357  0.18683  0.52317  Biso   1.000  O
  O46      1.0000 0.38501  0.35095  0.46285  Biso   1.000  O
  O47      1.0000 0.65903  0.39685  0.56115  Biso   1.000  O
  O48      1.0000 0.88182  0.39462  0.59492  Biso   1.000  O
