data_image0
_cell_length_a       10.1568
_cell_length_b       11.5008
_cell_length_c       15.283
_cell_angle_alpha    90.9464
_cell_angle_beta     90
_cell_angle_gamma    90

_symmetry_space_group_name_H-M    P 1
_symmetry_int_tables_number       1

loop_
  _symmetry_equiv_pos_as_xyz
  'x, y, z'

loop_
  _atom_site_label
  _atom_site_occupancy
  _atom_site_fract_x
  _atom_site_fract_y
  _atom_site_fract_z
  _atom_site_thermal_displace_type
  _atom_site_B_iso_or_equiv
  _atom_site_type_symbol
  Fe1      1.0000 0.93155  0.75415  0.13429  Biso   1.000  Fe
  Fe2      1.0000 0.87095  0.25945  0.69900  Biso   1.000  Fe
  Fe3      1.0000 0.43155  0.74585  0.36571  Biso   1.000  Fe
  Fe4      1.0000 0.37095  0.24055  0.80100  Biso   1.000  Fe
  Fe5      1.0000 0.06845  0.24585  0.86571  Biso   1.000  Fe
  Fe6      1.0000 0.12905  0.74055  0.30100  Biso   1.000  Fe
  Fe7      1.0000 0.56845  0.25415  0.63429  Biso   1.000  Fe
  Fe8      1.0000 0.62905  0.75945  0.19900  Biso   1.000  Fe
  Fe9      1.0000 0.00000  0.50000  0.00000  Biso   1.000  Fe
  Fe10     1.0000 0.50000  0.00000  0.50000  Biso   1.000  Fe
  Fe11     1.0000 0.00000  0.00000  0.00000  Biso   1.000  Fe
  Fe12     1.0000 0.50000  0.50000  0.50000  Biso   1.000  Fe
  H1       1.0000 0.78400  0.84520  0.37020  Biso   1.000  H
  H2       1.0000 0.06600  0.48000  0.25100  Biso   1.000  H
  H3       1.0000 0.63200  0.54300  0.06900  Biso   1.000  H
  H4       1.0000 0.23400  0.96200  0.20600  Biso   1.000  H
  H5       1.0000 0.12300  0.69800  0.91300  Biso   1.000  H
  H6       1.0000 0.72200  0.99880  0.03080  Biso   1.000  H
  H7       1.0000 0.28400  0.65480  0.12980  Biso   1.000  H
  H8       1.0000 0.56600  0.02000  0.24900  Biso   1.000  H
  H9       1.0000 0.13200  0.95700  0.43100  Biso   1.000  H
  H10      1.0000 0.73400  0.53800  0.29400  Biso   1.000  H
  H11      1.0000 0.62300  0.80200  0.58700  Biso   1.000  H
  H12      1.0000 0.22200  0.50120  0.46920  Biso   1.000  H
  H13      1.0000 0.21600  0.15480  0.62980  Biso   1.000  H
  H14      1.0000 0.93400  0.52000  0.74900  Biso   1.000  H
  H15      1.0000 0.36800  0.45700  0.93100  Biso   1.000  H
  H16      1.0000 0.76600  0.03800  0.79400  Biso   1.000  H
  H17      1.0000 0.87700  0.30200  0.08700  Biso   1.000  H
  H18      1.0000 0.27800  0.00120  0.96920  Biso   1.000  H
  H19      1.0000 0.71600  0.34520  0.87020  Biso   1.000  H
  H20      1.0000 0.43400  0.98000  0.75100  Biso   1.000  H
  H21      1.0000 0.86800  0.04300  0.56900  Biso   1.000  H
  H22      1.0000 0.26600  0.46200  0.70600  Biso   1.000  H
  H23      1.0000 0.37700  0.19800  0.41300  Biso   1.000  H
  H24      1.0000 0.77800  0.49880  0.53080  Biso   1.000  H
  C1       1.0000 0.85180  0.82285  0.32875  Biso   1.000  C
  C2       1.0000 0.04270  0.52060  0.20160  Biso   1.000  C
  C3       1.0000 0.72410  0.56500  0.07110  Biso   1.000  C
  C4       1.0000 0.15710  0.93960  0.16800  Biso   1.000  C
  C5       1.0000 0.08020  0.74170  0.96080  Biso   1.000  C
  C6       1.0000 0.73640  0.93504  0.06944  Biso   1.000  C
  C7       1.0000 0.35180  0.67715  0.17125  Biso   1.000  C
  C8       1.0000 0.54270  0.97940  0.29840  Biso   1.000  C
  C9       1.0000 0.22410  0.93500  0.42890  Biso   1.000  C
  C10      1.0000 0.65710  0.56040  0.33200  Biso   1.000  C
  C11      1.0000 0.58020  0.75830  0.53920  Biso   1.000  C
  C12      1.0000 0.23640  0.56496  0.43056  Biso   1.000  C
  C13      1.0000 0.14820  0.17715  0.67125  Biso   1.000  C
  C14      1.0000 0.95730  0.47940  0.79840  Biso   1.000  C
  C15      1.0000 0.27590  0.43500  0.92890  Biso   1.000  C
  C16      1.0000 0.84290  0.06040  0.83200  Biso   1.000  C
  C17      1.0000 0.91980  0.25830  0.03920  Biso   1.000  C
  C18      1.0000 0.26360  0.06496  0.93056  Biso   1.000  C
  C19      1.0000 0.64820  0.32285  0.82875  Biso   1.000  C
  C20      1.0000 0.45730  0.02060  0.70160  Biso   1.000  C
  C21      1.0000 0.77590  0.06500  0.57110  Biso   1.000  C
  C22      1.0000 0.34290  0.43960  0.66800  Biso   1.000  C
  C23      1.0000 0.41980  0.24170  0.46080  Biso   1.000  C
  C24      1.0000 0.76360  0.43504  0.56944  Biso   1.000  C
  O1       1.0000 0.81878  0.80429  0.25004  Biso   1.000  O
  O2       1.0000 0.96250  0.80941  0.36021  Biso   1.000  O
  O3       1.0000 0.02428  0.62821  0.21221  Biso   1.000  O
  O4       1.0000 0.03080  0.46359  0.13359  Biso   1.000  O
  O5       1.0000 0.75596  0.65142  0.11962  Biso   1.000  O
  O6       1.0000 0.79726  0.50944  0.02124  Biso   1.000  O
  O7       1.0000 0.09741  0.84725  0.18825  Biso   1.000  O
  O8       1.0000 0.13200  0.00356  0.10666  Biso   1.000  O
  O9       1.0000 0.01951  0.68639  0.02039  Biso   1.000  O
  O10      1.0000 0.08800  0.84830  0.95400  Biso   1.000  O
  O11      1.0000 0.85505  0.90006  0.07106  Biso   1.000  O
  O12      1.0000 0.64209  0.89404  0.10994  Biso   1.000  O
  O13      1.0000 0.31878  0.69571  0.24996  Biso   1.000  O
  O14      1.0000 0.46250  0.69059  0.13979  Biso   1.000  O
  O15      1.0000 0.52428  0.87179  0.28779  Biso   1.000  O
  O16      1.0000 0.53080  0.03641  0.36641  Biso   1.000  O
  O17      1.0000 0.25596  0.84858  0.38038  Biso   1.000  O
  O18      1.0000 0.29726  0.99056  0.47876  Biso   1.000  O
  O19      1.0000 0.59741  0.65275  0.31175  Biso   1.000  O
  O20      1.0000 0.63200  0.49644  0.39334  Biso   1.000  O
  O21      1.0000 0.51951  0.81361  0.47961  Biso   1.000  O
  O22      1.0000 0.58800  0.65170  0.54600  Biso   1.000  O
  O23      1.0000 0.35505  0.59994  0.42894  Biso   1.000  O
  O24      1.0000 0.14209  0.60596  0.39006  Biso   1.000  O
  O25      1.0000 0.18122  0.19571  0.74996  Biso   1.000  O
  O26      1.0000 0.03750  0.19059  0.63979  Biso   1.000  O
  O27      1.0000 0.97572  0.37179  0.78779  Biso   1.000  O
  O28      1.0000 0.96920  0.53641  0.86641  Biso   1.000  O
  O29      1.0000 0.24404  0.34858  0.88038  Biso   1.000  O
  O30      1.0000 0.20274  0.49056  0.97876  Biso   1.000  O
  O31      1.0000 0.90259  0.15275  0.81175  Biso   1.000  O
  O32      1.0000 0.86800  0.99644  0.89334  Biso   1.000  O
  O33      1.0000 0.98049  0.31361  0.97961  Biso   1.000  O
  O34      1.0000 0.91200  0.15170  0.04600  Biso   1.000  O
  O35      1.0000 0.14495  0.09994  0.92894  Biso   1.000  O
  O36      1.0000 0.35791  0.10596  0.89006  Biso   1.000  O
  O37      1.0000 0.68122  0.30429  0.75004  Biso   1.000  O
  O38      1.0000 0.53750  0.30941  0.86021  Biso   1.000  O
  O39      1.0000 0.47572  0.12821  0.71221  Biso   1.000  O
  O40      1.0000 0.46920  0.96359  0.63359  Biso   1.000  O
  O41      1.0000 0.74404  0.15142  0.61962  Biso   1.000  O
  O42      1.0000 0.70274  0.00944  0.52124  Biso   1.000  O
  O43      1.0000 0.40259  0.34725  0.68825  Biso   1.000  O
  O44      1.0000 0.36800  0.50356  0.60666  Biso   1.000  O
  O45      1.0000 0.48049  0.18639  0.52039  Biso   1.000  O
  O46      1.0000 0.41200  0.34830  0.45400  Biso   1.000  O
  O47      1.0000 0.64495  0.40006  0.57106  Biso   1.000  O
  O48      1.0000 0.85791  0.39404  0.60994  Biso   1.000  O
