data_image0
_cell_length_a       9.9922
_cell_length_b       11.4136
_cell_length_c       14.9707
_cell_angle_alpha    91.1216
_cell_angle_beta     90
_cell_angle_gamma    90

_symmetry_space_group_name_H-M    P 1
_symmetry_int_tables_number       1

loop_
  _symmetry_equiv_pos_as_xyz
  'x, y, z'

loop_
  _atom_site_label
  _atom_site_occupancy
  _atom_site_fract_x
  _atom_site_fract_y
  _atom_site_fract_z
  _atom_site_thermal_displace_type
  _atom_site_B_iso_or_equiv
  _atom_site_type_symbol
  Fe1      1.0000 0.92406  0.75482  0.13371  Biso   1.000  Fe
  Fe2      1.0000 0.88419  0.26132  0.69274  Biso   1.000  Fe
  Fe3      1.0000 0.42406  0.74518  0.36629  Biso   1.000  Fe
  Fe4      1.0000 0.38419  0.23868  0.80726  Biso   1.000  Fe
  Fe5      1.0000 0.07594  0.24518  0.86629  Biso   1.000  Fe
  Fe6      1.0000 0.11581  0.73868  0.30726  Biso   1.000  Fe
  Fe7      1.0000 0.57594  0.25482  0.63371  Biso   1.000  Fe
  Fe8      1.0000 0.61581  0.76132  0.19274  Biso   1.000  Fe
  Fe9      1.0000 0.00000  0.50000  0.00000  Biso   1.000  Fe
  Fe10     1.0000 0.50000  0.00000  0.50000  Biso   1.000  Fe
  Fe11     1.0000 0.00000  0.00000  0.00000  Biso   1.000  Fe
  Fe12     1.0000 0.50000  0.50000  0.50000  Biso   1.000  Fe
  H1       1.0000 0.76500  0.85900  0.36900  Biso   1.000  H
  H2       1.0000 0.05400  0.47800  0.25900  Biso   1.000  H
  H3       1.0000 0.62300  0.55800  0.05400  Biso   1.000  H
  H4       1.0000 0.22100  0.97400  0.21800  Biso   1.000  H
  H5       1.0000 0.14600  0.69700  0.92600  Biso   1.000  H
  H6       1.0000 0.71000  0.99300  0.02000  Biso   1.000  H
  H7       1.0000 0.26500  0.64100  0.13100  Biso   1.000  H
  H8       1.0000 0.55400  0.02200  0.24100  Biso   1.000  H
  H9       1.0000 0.12300  0.94200  0.44600  Biso   1.000  H
  H10      1.0000 0.72100  0.52600  0.28200  Biso   1.000  H
  H11      1.0000 0.64600  0.80300  0.57400  Biso   1.000  H
  H12      1.0000 0.21000  0.50700  0.48000  Biso   1.000  H
  H13      1.0000 0.23500  0.14100  0.63100  Biso   1.000  H
  H14      1.0000 0.94600  0.52200  0.74100  Biso   1.000  H
  H15      1.0000 0.37700  0.44200  0.94600  Biso   1.000  H
  H16      1.0000 0.77900  0.02600  0.78200  Biso   1.000  H
  H17      1.0000 0.85400  0.30300  0.07400  Biso   1.000  H
  H18      1.0000 0.29000  0.00700  0.98000  Biso   1.000  H
  H19      1.0000 0.73500  0.35900  0.86900  Biso   1.000  H
  H20      1.0000 0.44600  0.97800  0.75900  Biso   1.000  H
  H21      1.0000 0.87700  0.05800  0.55400  Biso   1.000  H
  H22      1.0000 0.27900  0.47400  0.71800  Biso   1.000  H
  H23      1.0000 0.35400  0.19700  0.42600  Biso   1.000  H
  H24      1.0000 0.79000  0.49300  0.52000  Biso   1.000  H
  C1       1.0000 0.83540  0.82760  0.32950  Biso   1.000  C
  C2       1.0000 0.02820  0.51700  0.20640  Biso   1.000  C
  C3       1.0000 0.71470  0.57090  0.05830  Biso   1.000  C
  C4       1.0000 0.14250  0.94710  0.17870  Biso   1.000  C
  C5       1.0000 0.09480  0.74270  0.96520  Biso   1.000  C
  C6       1.0000 0.72550  0.93320  0.05950  Biso   1.000  C
  C7       1.0000 0.33540  0.67240  0.17050  Biso   1.000  C
  C8       1.0000 0.52820  0.98300  0.29360  Biso   1.000  C
  C9       1.0000 0.21470  0.92910  0.44170  Biso   1.000  C
  C10      1.0000 0.64250  0.55290  0.32130  Biso   1.000  C
  C11      1.0000 0.59480  0.75730  0.53480  Biso   1.000  C
  C12      1.0000 0.22550  0.56680  0.44050  Biso   1.000  C
  C13      1.0000 0.16460  0.17240  0.67050  Biso   1.000  C
  C14      1.0000 0.97180  0.48300  0.79360  Biso   1.000  C
  C15      1.0000 0.28530  0.42910  0.94170  Biso   1.000  C
  C16      1.0000 0.85750  0.05290  0.82130  Biso   1.000  C
  C17      1.0000 0.90520  0.25730  0.03480  Biso   1.000  C
  C18      1.0000 0.27450  0.06680  0.94050  Biso   1.000  C
  C19      1.0000 0.66460  0.32760  0.82950  Biso   1.000  C
  C20      1.0000 0.47180  0.01700  0.70640  Biso   1.000  C
  C21      1.0000 0.78530  0.07090  0.55830  Biso   1.000  C
  C22      1.0000 0.35750  0.44710  0.67870  Biso   1.000  C
  C23      1.0000 0.40520  0.24270  0.46520  Biso   1.000  C
  C24      1.0000 0.77450  0.43320  0.55950  Biso   1.000  C
  O1       1.0000 0.80685  0.80759  0.24839  Biso   1.000  O
  O2       1.0000 0.94605  0.81130  0.36530  Biso   1.000  O
  O3       1.0000 0.01183  0.62623  0.21553  Biso   1.000  O
  O4       1.0000 0.01650  0.45942  0.13672  Biso   1.000  O
  O5       1.0000 0.74605  0.65256  0.11276  Biso   1.000  O
  O6       1.0000 0.79100  0.51348  0.01038  Biso   1.000  O
  O7       1.0000 0.08831  0.84886  0.19316  Biso   1.000  O
  O8       1.0000 0.11730  0.01262  0.11662  Biso   1.000  O
  O9       1.0000 0.02494  0.68654  0.02164  Biso   1.000  O
  O10      1.0000 0.10270  0.84918  0.95918  Biso   1.000  O
  O11      1.0000 0.84679  0.89897  0.06527  Biso   1.000  O
  O12      1.0000 0.62853  0.89417  0.10057  Biso   1.000  O
  O13      1.0000 0.30685  0.69241  0.25161  Biso   1.000  O
  O14      1.0000 0.44605  0.68870  0.13470  Biso   1.000  O
  O15      1.0000 0.51183  0.87377  0.28447  Biso   1.000  O
  O16      1.0000 0.51650  0.04058  0.36328  Biso   1.000  O
  O17      1.0000 0.24605  0.84744  0.38724  Biso   1.000  O
  O18      1.0000 0.29100  0.98652  0.48962  Biso   1.000  O
  O19      1.0000 0.58831  0.65114  0.30684  Biso   1.000  O
  O20      1.0000 0.61730  0.48738  0.38338  Biso   1.000  O
  O21      1.0000 0.52494  0.81346  0.47836  Biso   1.000  O
  O22      1.0000 0.60270  0.65082  0.54082  Biso   1.000  O
  O23      1.0000 0.34679  0.60103  0.43473  Biso   1.000  O
  O24      1.0000 0.12853  0.60583  0.39943  Biso   1.000  O
  O25      1.0000 0.19315  0.19241  0.75161  Biso   1.000  O
  O26      1.0000 0.05395  0.18870  0.63470  Biso   1.000  O
  O27      1.0000 0.98817  0.37377  0.78447  Biso   1.000  O
  O28      1.0000 0.98350  0.54058  0.86328  Biso   1.000  O
  O29      1.0000 0.25395  0.34744  0.88724  Biso   1.000  O
  O30      1.0000 0.20900  0.48652  0.98962  Biso   1.000  O
  O31      1.0000 0.91169  0.15114  0.80684  Biso   1.000  O
  O32      1.0000 0.88270  0.98738  0.88338  Biso   1.000  O
  O33      1.0000 0.97506  0.31346  0.97836  Biso   1.000  O
  O34      1.0000 0.89730  0.15082  0.04082  Biso   1.000  O
  O35      1.0000 0.15321  0.10103  0.93473  Biso   1.000  O
  O36      1.0000 0.37147  0.10583  0.89943  Biso   1.000  O
  O37      1.0000 0.69315  0.30759  0.74839  Biso   1.000  O
  O38      1.0000 0.55395  0.31130  0.86530  Biso   1.000  O
  O39      1.0000 0.48817  0.12623  0.71553  Biso   1.000  O
  O40      1.0000 0.48350  0.95942  0.63672  Biso   1.000  O
  O41      1.0000 0.75395  0.15256  0.61276  Biso   1.000  O
  O42      1.0000 0.70900  0.01348  0.51038  Biso   1.000  O
  O43      1.0000 0.41169  0.34886  0.69316  Biso   1.000  O
  O44      1.0000 0.38270  0.51262  0.61662  Biso   1.000  O
  O45      1.0000 0.47506  0.18654  0.52164  Biso   1.000  O
  O46      1.0000 0.39730  0.34918  0.45918  Biso   1.000  O
  O47      1.0000 0.65321  0.39897  0.56527  Biso   1.000  O
  O48      1.0000 0.87147  0.39417  0.60057  Biso   1.000  O
