data_image0
_cell_length_a       11.3806
_cell_length_b       9.8451
_cell_length_c       18.3883
_cell_angle_alpha    90
_cell_angle_beta     126.909
_cell_angle_gamma    90

_symmetry_space_group_name_H-M    "P 1"
_symmetry_int_tables_number       1

loop_
  _symmetry_equiv_pos_as_xyz
  'x, y, z'

loop_
  _atom_site_label
  _atom_site_occupancy
  _atom_site_fract_x
  _atom_site_fract_y
  _atom_site_fract_z
  _atom_site_thermal_displace_type
  _atom_site_B_iso_or_equiv
  _atom_site_type_symbol
  Fe1      1.0000 0.37754  0.08403  0.13308  Biso   1.000  Fe
  Fe2      1.0000 0.42651  0.10380  0.68738  Biso   1.000  Fe
  O1       1.0000 0.43540  0.20580  0.24569  Biso   1.000  O
  O2       1.0000 0.55050  0.06830  0.36690  Biso   1.000  O
  O3       1.0000 0.59100  0.00150  0.21935  Biso   1.000  O
  O4       1.0000 0.67830  0.00160  0.13836  Biso   1.000  O
  O5       1.0000 0.45440  0.26180  0.10717  Biso   1.000  O
  O6       1.0000 0.48250  0.21030  0.00019  Biso   1.000  O
  O7       1.0000 0.34550  0.92010  0.19594  Biso   1.000  O
  O8       1.0000 0.10380  0.89680  0.12060  Biso   1.000  O
  O9       1.0000 0.33670  0.97500  0.02309  Biso   1.000  O
  O10      1.0000 0.11490  0.89230  0.96720  Biso   1.000  O
  O11      1.0000 0.15940  0.15680  0.05986  Biso   1.000  O
  O12      1.0000 0.20100  0.38000  0.09198  Biso   1.000  O
  C1       1.0000 0.49560  0.17780  0.32910  Biso   1.000  C
  H1       1.0000 0.49810  0.24820  0.36530  Biso   1.000  H
  C2       1.0000 0.69340  0.99010  0.21070  Biso   1.000  C
  H2       1.0000 0.78930  0.97130  0.26400  Biso   1.000  H
  C3       1.0000 0.47400  0.29170  0.04790  Biso   1.000  C
  H3       1.0000 0.48300  0.38530  0.03960  Biso   1.000  H
  C4       1.0000 0.23230  0.87260  0.18490  Biso   1.000  C
  H4       1.0000 0.24800  0.81270  0.23050  Biso   1.000  H
  C5       1.0000 0.22420  0.89980  0.96930  Biso   1.000  C
  H5       1.0000 0.22590  0.84510  0.92740  Biso   1.000  H
  C6       1.0000 0.11870  0.28220  0.05100  Biso   1.000  C
  H6       1.0000 0.01650  0.30070  0.00920  Biso   1.000  H
  Fe3      1.0000 0.62246  0.58403  0.36692  Biso   1.000  Fe
  Fe4      1.0000 0.57349  0.60380  0.81262  Biso   1.000  Fe
  O13      1.0000 0.56460  0.70580  0.25431  Biso   1.000  O
  O14      1.0000 0.44950  0.56830  0.13310  Biso   1.000  O
  O15      1.0000 0.40900  0.50150  0.28065  Biso   1.000  O
  O16      1.0000 0.32170  0.50160  0.36164  Biso   1.000  O
  O17      1.0000 0.54560  0.76180  0.39283  Biso   1.000  O
  O18      1.0000 0.51750  0.71030  0.49981  Biso   1.000  O
  O19      1.0000 0.65450  0.42010  0.30406  Biso   1.000  O
  O20      1.0000 0.89620  0.39680  0.37940  Biso   1.000  O
  O21      1.0000 0.66330  0.47500  0.47691  Biso   1.000  O
  O22      1.0000 0.88510  0.39230  0.53280  Biso   1.000  O
  O23      1.0000 0.84060  0.65680  0.44014  Biso   1.000  O
  O24      1.0000 0.79900  0.88000  0.40802  Biso   1.000  O
  C7       1.0000 0.50440  0.67780  0.17090  Biso   1.000  C
  H7       1.0000 0.50190  0.74820  0.13470  Biso   1.000  H
  C8       1.0000 0.30660  0.49010  0.28930  Biso   1.000  C
  H8       1.0000 0.21070  0.47130  0.23600  Biso   1.000  H
  C9       1.0000 0.52600  0.79170  0.45210  Biso   1.000  C
  H9       1.0000 0.51700  0.88530  0.46040  Biso   1.000  H
  C10      1.0000 0.76770  0.37260  0.31510  Biso   1.000  C
  H10      1.0000 0.75200  0.31270  0.26950  Biso   1.000  H
  C11      1.0000 0.77580  0.39980  0.53070  Biso   1.000  C
  H11      1.0000 0.77410  0.34510  0.57260  Biso   1.000  H
  C12      1.0000 0.88130  0.78220  0.44900  Biso   1.000  C
  H12      1.0000 0.98350  0.80070  0.49080  Biso   1.000  H
  Fe5      1.0000 0.62246  0.91597  0.86692  Biso   1.000  Fe
  Fe6      1.0000 0.57349  0.89620  0.31262  Biso   1.000  Fe
  O25      1.0000 0.56460  0.79420  0.75431  Biso   1.000  O
  O26      1.0000 0.44950  0.93170  0.63310  Biso   1.000  O
  O27      1.0000 0.40900  0.99850  0.78065  Biso   1.000  O
  O28      1.0000 0.32170  0.99840  0.86164  Biso   1.000  O
  O29      1.0000 0.54560  0.73820  0.89283  Biso   1.000  O
  O30      1.0000 0.51750  0.78970  0.99981  Biso   1.000  O
  O31      1.0000 0.65450  0.07990  0.80406  Biso   1.000  O
  O32      1.0000 0.89620  0.10320  0.87940  Biso   1.000  O
  O33      1.0000 0.66330  0.02500  0.97691  Biso   1.000  O
  O34      1.0000 0.88510  0.10770  0.03280  Biso   1.000  O
  O35      1.0000 0.84060  0.84320  0.94014  Biso   1.000  O
  O36      1.0000 0.79900  0.62000  0.90802  Biso   1.000  O
  C13      1.0000 0.50440  0.82220  0.67090  Biso   1.000  C
  H13      1.0000 0.50190  0.75180  0.63470  Biso   1.000  H
  C14      1.0000 0.30660  0.00990  0.78930  Biso   1.000  C
  H14      1.0000 0.21070  0.02870  0.73600  Biso   1.000  H
  C15      1.0000 0.52600  0.70830  0.95210  Biso   1.000  C
  H15      1.0000 0.51700  0.61470  0.96040  Biso   1.000  H
  C16      1.0000 0.76770  0.12740  0.81510  Biso   1.000  C
  H16      1.0000 0.75200  0.18730  0.76950  Biso   1.000  H
  C17      1.0000 0.77580  0.10020  0.03070  Biso   1.000  C
  H17      1.0000 0.77410  0.15490  0.07260  Biso   1.000  H
  C18      1.0000 0.88130  0.71780  0.94900  Biso   1.000  C
  H18      1.0000 0.98350  0.69930  0.99080  Biso   1.000  H
  Fe7      1.0000 0.37754  0.41597  0.63308  Biso   1.000  Fe
  Fe8      1.0000 0.42651  0.39620  0.18738  Biso   1.000  Fe
  O37      1.0000 0.43540  0.29420  0.74569  Biso   1.000  O
  O38      1.0000 0.55050  0.43170  0.86690  Biso   1.000  O
  O39      1.0000 0.59100  0.49850  0.71935  Biso   1.000  O
  O40      1.0000 0.67830  0.49840  0.63836  Biso   1.000  O
  O41      1.0000 0.45440  0.23820  0.60717  Biso   1.000  O
  O42      1.0000 0.48250  0.28970  0.50019  Biso   1.000  O
  O43      1.0000 0.34550  0.57990  0.69594  Biso   1.000  O
  O44      1.0000 0.10380  0.60320  0.62060  Biso   1.000  O
  O45      1.0000 0.33670  0.52500  0.52309  Biso   1.000  O
  O46      1.0000 0.11490  0.60770  0.46720  Biso   1.000  O
  O47      1.0000 0.15940  0.34320  0.55986  Biso   1.000  O
  O48      1.0000 0.20100  0.12000  0.59198  Biso   1.000  O
  C19      1.0000 0.49560  0.32220  0.82910  Biso   1.000  C
  H19      1.0000 0.49810  0.25180  0.86530  Biso   1.000  H
  C20      1.0000 0.69340  0.50990  0.71070  Biso   1.000  C
  H20      1.0000 0.78930  0.52870  0.76400  Biso   1.000  H
  C21      1.0000 0.47400  0.20830  0.54790  Biso   1.000  C
  H21      1.0000 0.48300  0.11470  0.53960  Biso   1.000  H
  C22      1.0000 0.23230  0.62740  0.68490  Biso   1.000  C
  H22      1.0000 0.24800  0.68730  0.73050  Biso   1.000  H
  C23      1.0000 0.22420  0.60020  0.46930  Biso   1.000  C
  H23      1.0000 0.22590  0.65490  0.42740  Biso   1.000  H
  C24      1.0000 0.11870  0.21780  0.55100  Biso   1.000  C
  H24      1.0000 0.01650  0.19930  0.50920  Biso   1.000  H
  Fe9      1.0000 0.50000  0.00000  0.00000  Biso   1.000  Fe
  Fe10     1.0000 0.50000  0.50000  0.50000  Biso   1.000  Fe
  Fe11     1.0000 0.00000  0.00000  0.00000  Biso   1.000  Fe
  Fe12     1.0000 0.00000  0.50000  0.50000  Biso   1.000  Fe
