data_image0
_cell_length_a       9.9023
_cell_length_b       11.339
_cell_length_c       14.8766
_cell_angle_alpha    90.9594
_cell_angle_beta     90
_cell_angle_gamma    90

_symmetry_space_group_name_H-M    P 1
_symmetry_int_tables_number       1

loop_
  _symmetry_equiv_pos_as_xyz
  'x, y, z'

loop_
  _atom_site_label
  _atom_site_occupancy
  _atom_site_fract_x
  _atom_site_fract_y
  _atom_site_fract_z
  _atom_site_thermal_displace_type
  _atom_site_B_iso_or_equiv
  _atom_site_type_symbol
  Fe1      1.0000 0.92069  0.75484  0.13363  Biso   1.000  Fe
  Fe2      1.0000 0.88923  0.26200  0.69097  Biso   1.000  Fe
  Fe3      1.0000 0.42069  0.74516  0.36637  Biso   1.000  Fe
  Fe4      1.0000 0.38923  0.23800  0.80903  Biso   1.000  Fe
  Fe5      1.0000 0.07931  0.24516  0.86637  Biso   1.000  Fe
  Fe6      1.0000 0.11077  0.73800  0.30903  Biso   1.000  Fe
  Fe7      1.0000 0.57931  0.25484  0.63363  Biso   1.000  Fe
  Fe8      1.0000 0.61077  0.76200  0.19097  Biso   1.000  Fe
  Fe9      1.0000 0.00000  0.50000  0.00000  Biso   1.000  Fe
  Fe10     1.0000 0.50000  0.00000  0.50000  Biso   1.000  Fe
  Fe11     1.0000 0.00000  0.00000  0.00000  Biso   1.000  Fe
  Fe12     1.0000 0.50000  0.50000  0.50000  Biso   1.000  Fe
  H1       1.0000 0.75700  0.86510  0.36910  Biso   1.000  H
  H2       1.0000 0.03600  0.46900  0.26700  Biso   1.000  H
  H3       1.0000 0.61300  0.55200  0.05100  Biso   1.000  H
  H4       1.0000 0.21400  0.97500  0.21700  Biso   1.000  H
  H5       1.0000 0.15200  0.69570  0.93070  Biso   1.000  H
  H6       1.0000 0.70900  0.99100  0.01100  Biso   1.000  H
  H7       1.0000 0.25700  0.63490  0.13090  Biso   1.000  H
  H8       1.0000 0.53600  0.03100  0.23300  Biso   1.000  H
  H9       1.0000 0.11300  0.94800  0.44900  Biso   1.000  H
  H10      1.0000 0.71400  0.52500  0.28300  Biso   1.000  H
  H11      1.0000 0.65200  0.80430  0.56930  Biso   1.000  H
  H12      1.0000 0.20900  0.50900  0.48900  Biso   1.000  H
  H13      1.0000 0.24300  0.13490  0.63090  Biso   1.000  H
  H14      1.0000 0.96400  0.53100  0.73300  Biso   1.000  H
  H15      1.0000 0.38700  0.44800  0.94900  Biso   1.000  H
  H16      1.0000 0.78600  0.02500  0.78300  Biso   1.000  H
  H17      1.0000 0.84800  0.30430  0.06930  Biso   1.000  H
  H18      1.0000 0.29100  0.00900  0.98900  Biso   1.000  H
  H19      1.0000 0.74300  0.36510  0.86910  Biso   1.000  H
  H20      1.0000 0.46400  0.96900  0.76700  Biso   1.000  H
  H21      1.0000 0.88700  0.05200  0.55100  Biso   1.000  H
  H22      1.0000 0.28600  0.47500  0.71700  Biso   1.000  H
  H23      1.0000 0.34800  0.19570  0.43070  Biso   1.000  H
  H24      1.0000 0.79100  0.49100  0.51100  Biso   1.000  H
  C1       1.0000 0.82950  0.83106  0.32976  Biso   1.000  C
  C2       1.0000 0.02100  0.51460  0.20910  Biso   1.000  C
  C3       1.0000 0.71060  0.57120  0.05490  Biso   1.000  C
  C4       1.0000 0.13700  0.95030  0.18170  Biso   1.000  C
  C5       1.0000 0.10080  0.74300  0.96740  Biso   1.000  C
  C6       1.0000 0.72060  0.93092  0.05442  Biso   1.000  C
  C7       1.0000 0.32950  0.66894  0.17024  Biso   1.000  C
  C8       1.0000 0.52100  0.98540  0.29090  Biso   1.000  C
  C9       1.0000 0.21060  0.92880  0.44510  Biso   1.000  C
  C10      1.0000 0.63700  0.54970  0.31830  Biso   1.000  C
  C11      1.0000 0.60080  0.75700  0.53260  Biso   1.000  C
  C12      1.0000 0.22060  0.56908  0.44558  Biso   1.000  C
  C13      1.0000 0.17050  0.16894  0.67024  Biso   1.000  C
  C14      1.0000 0.97900  0.48540  0.79090  Biso   1.000  C
  C15      1.0000 0.28940  0.42880  0.94510  Biso   1.000  C
  C16      1.0000 0.86300  0.04970  0.81830  Biso   1.000  C
  C17      1.0000 0.89920  0.25700  0.03260  Biso   1.000  C
  C18      1.0000 0.27940  0.06908  0.94558  Biso   1.000  C
  C19      1.0000 0.67050  0.33106  0.82976  Biso   1.000  C
  C20      1.0000 0.47900  0.01460  0.70910  Biso   1.000  C
  C21      1.0000 0.78940  0.07120  0.55490  Biso   1.000  C
  C22      1.0000 0.36300  0.45030  0.68170  Biso   1.000  C
  C23      1.0000 0.39920  0.24300  0.46740  Biso   1.000  C
  C24      1.0000 0.77940  0.43092  0.55442  Biso   1.000  C
  O1       1.0000 0.80166  0.81001  0.24741  Biso   1.000  O
  O2       1.0000 0.94005  0.81283  0.36693  Biso   1.000  O
  O3       1.0000 0.00565  0.62494  0.21714  Biso   1.000  O
  O4       1.0000 0.01030  0.45638  0.13798  Biso   1.000  O
  O5       1.0000 0.74227  0.65142  0.11192  Biso   1.000  O
  O6       1.0000 0.78965  0.51460  0.00630  Biso   1.000  O
  O7       1.0000 0.08618  0.84928  0.19408  Biso   1.000  O
  O8       1.0000 0.11119  0.01753  0.12003  Biso   1.000  O
  O9       1.0000 0.02586  0.68641  0.02261  Biso   1.000  O
  O10      1.0000 0.11017  0.85003  0.96143  Biso   1.000  O
  O11      1.0000 0.84297  0.89748  0.06256  Biso   1.000  O
  O12      1.0000 0.62224  0.89427  0.09707  Biso   1.000  O
  O13      1.0000 0.30166  0.68999  0.25259  Biso   1.000  O
  O14      1.0000 0.44005  0.68717  0.13307  Biso   1.000  O
  O15      1.0000 0.50565  0.87506  0.28286  Biso   1.000  O
  O16      1.0000 0.51030  0.04362  0.36202  Biso   1.000  O
  O17      1.0000 0.24227  0.84858  0.38808  Biso   1.000  O
  O18      1.0000 0.28965  0.98540  0.49370  Biso   1.000  O
  O19      1.0000 0.58618  0.65072  0.30592  Biso   1.000  O
  O20      1.0000 0.61119  0.48247  0.37997  Biso   1.000  O
  O21      1.0000 0.52586  0.81359  0.47739  Biso   1.000  O
  O22      1.0000 0.61017  0.64997  0.53857  Biso   1.000  O
  O23      1.0000 0.34297  0.60252  0.43744  Biso   1.000  O
  O24      1.0000 0.12224  0.60573  0.40293  Biso   1.000  O
  O25      1.0000 0.19834  0.18999  0.75259  Biso   1.000  O
  O26      1.0000 0.05995  0.18717  0.63307  Biso   1.000  O
  O27      1.0000 0.99435  0.37506  0.78286  Biso   1.000  O
  O28      1.0000 0.98970  0.54362  0.86202  Biso   1.000  O
  O29      1.0000 0.25773  0.34858  0.88808  Biso   1.000  O
  O30      1.0000 0.21035  0.48540  0.99370  Biso   1.000  O
  O31      1.0000 0.91382  0.15072  0.80592  Biso   1.000  O
  O32      1.0000 0.88881  0.98247  0.87997  Biso   1.000  O
  O33      1.0000 0.97414  0.31359  0.97739  Biso   1.000  O
  O34      1.0000 0.88983  0.14997  0.03857  Biso   1.000  O
  O35      1.0000 0.15703  0.10252  0.93744  Biso   1.000  O
  O36      1.0000 0.37776  0.10573  0.90293  Biso   1.000  O
  O37      1.0000 0.69834  0.31001  0.74741  Biso   1.000  O
  O38      1.0000 0.55995  0.31283  0.86693  Biso   1.000  O
  O39      1.0000 0.49435  0.12494  0.71714  Biso   1.000  O
  O40      1.0000 0.48970  0.95638  0.63798  Biso   1.000  O
  O41      1.0000 0.75773  0.15142  0.61192  Biso   1.000  O
  O42      1.0000 0.71035  0.01460  0.50630  Biso   1.000  O
  O43      1.0000 0.41382  0.34928  0.69408  Biso   1.000  O
  O44      1.0000 0.38881  0.51753  0.62003  Biso   1.000  O
  O45      1.0000 0.47414  0.18641  0.52261  Biso   1.000  O
  O46      1.0000 0.38983  0.35003  0.46143  Biso   1.000  O
  O47      1.0000 0.65703  0.39748  0.56256  Biso   1.000  O
  O48      1.0000 0.87776  0.39427  0.59707  Biso   1.000  O
