data_image0
_cell_length_a       10.6974
_cell_length_b       37.268
_cell_length_c       9.4058
_cell_angle_alpha    90
_cell_angle_beta     101.263
_cell_angle_gamma    90

_symmetry_space_group_name_H-M    "P 1"
_symmetry_int_tables_number       1

loop_
  _symmetry_equiv_pos_as_xyz
  'x, y, z'

loop_
  _atom_site_label
  _atom_site_occupancy
  _atom_site_fract_x
  _atom_site_fract_y
  _atom_site_fract_z
  _atom_site_thermal_displace_type
  _atom_site_B_iso_or_equiv
  _atom_site_type_symbol
  Cd1      1.0000 0.85184  0.63296  0.25834  Biso   1.000  Cd
  C1       1.0000 0.61270  0.62078  0.32100  Biso   1.000  C
  C2       1.0000 0.48380  0.61318  0.35130  Biso   1.000  C
  C3       1.0000 0.45120  0.59538  0.46430  Biso   1.000  C
  H1       1.0000 0.51010  0.58450  0.53730  Biso   1.000  H
  C4       1.0000 0.31930  0.59512  0.45990  Biso   1.000  C
  H2       1.0000 0.28180  0.58400  0.52960  Biso   1.000  H
  C5       1.0000 0.25220  0.61275  0.34350  Biso   1.000  C
  C6       1.0000 0.11210  0.61987  0.30520  Biso   1.000  C
  C7       1.0000 0.82830  0.71215  0.40940  Biso   1.000  C
  H3       1.0000 0.75580  0.71740  0.34040  Biso   1.000  H
  C8       1.0000 0.88560  0.73492  0.51460  Biso   1.000  C
  H4       1.0000 0.86010  0.75820  0.53080  Biso   1.000  H
  C9       1.0000 0.98800  0.68405  0.53050  Biso   1.000  C
  H5       1.0000 0.04780  0.66630  0.56250  Biso   1.000  H
  C10      1.0000 0.07860  0.73028  0.71260  Biso   1.000  C
  C11      1.0000 0.09780  0.76694  0.73070  Biso   1.000  C
  H6       1.0000 0.04880  0.78300  0.66730  Biso   1.000  H
  C12      1.0000 0.19000  0.77948  0.84360  Biso   1.000  C
  H7       1.0000 0.20090  0.80410  0.85700  Biso   1.000  H
  C13      1.0000 0.26700  0.75606  0.93770  Biso   1.000  C
  C14      1.0000 0.24310  0.71961  0.92080  Biso   1.000  C
  H8       1.0000 0.29120  0.70350  0.98470  Biso   1.000  H
  C15      1.0000 0.14960  0.70681  0.81120  Biso   1.000  C
  H9       1.0000 0.13380  0.68230  0.80300  Biso   1.000  H
  C16      1.0000 0.69940  0.81716  0.48760  Biso   1.000  C
  H10      1.0000 0.63390  0.81260  0.53720  Biso   1.000  H
  C17      1.0000 0.87840  0.83304  0.43740  Biso   1.000  C
  H11      1.0000 0.96140  0.84150  0.44790  Biso   1.000  H
  C18      1.0000 0.80750  0.82093  0.31300  Biso   1.000  C
  H12      1.0000 0.83140  0.81990  0.22320  Biso   1.000  H
  C19      1.0000 0.58560  0.79616  0.24420  Biso   1.000  C
  C20      1.0000 0.54150  0.81486  0.11820  Biso   1.000  C
  H13      1.0000 0.58140  0.83590  0.09830  Biso   1.000  H
  C21      1.0000 0.43720  0.80183  0.02150  Biso   1.000  C
  H14      1.0000 0.40630  0.81470  0.93710  Biso   1.000  H
  C22      1.0000 0.37690  0.76995  0.04690  Biso   1.000  C
  C23      1.0000 0.42750  0.75116  0.17260  Biso   1.000  C
  H15      1.0000 0.39230  0.72920  0.19070  Biso   1.000  H
  C24      1.0000 0.52980  0.76479  0.27140  Biso   1.000  C
  H16      1.0000 0.56060  0.75240  0.35690  Biso   1.000  H
  C25      1.0000 0.74600  0.55392  0.10890  Biso   1.000  C
  H17      1.0000 0.69010  0.55060  0.17200  Biso   1.000  H
  C26      1.0000 0.75740  0.53179  0.99840  Biso   1.000  C
  H18      1.0000 0.71260  0.51060  0.97300  Biso   1.000  H
  C27      1.0000 0.88920  0.57666  0.00660  Biso   1.000  C
  H19      1.0000 0.95250  0.59160  0.98490  Biso   1.000  H
  C28      1.0000 0.89080  0.53312  0.80680  Biso   1.000  C
  C29      1.0000 0.90700  0.55564  0.69910  Biso   1.000  C
  H20      1.0000 0.88930  0.57990  0.70580  Biso   1.000  H
  C30      1.0000 0.94970  0.54291  0.57950  Biso   1.000  C
  H21      1.0000 0.96030  0.55890  0.50680  Biso   1.000  H
  C31      1.0000 0.97740  0.50684  0.56450  Biso   1.000  C
  C32      1.0000 0.95700  0.48433  0.67460  Biso   1.000  C
  H22      1.0000 0.97180  0.45990  0.66730  Biso   1.000  H
  C33      1.0000 0.91510  0.49714  0.79590  Biso   1.000  C
  H23      1.0000 0.90370  0.48150  0.86930  Biso   1.000  H
  N1       1.0000 0.89280  0.68040  0.41960  Biso   1.000  N
  N2       1.0000 0.98840  0.71691  0.59240  Biso   1.000  N
  N3       1.0000 0.81030  0.83103  0.54710  Biso   1.000  N
  N4       1.0000 0.69270  0.81033  0.34430  Biso   1.000  N
  N5       1.0000 0.82940  0.58211  0.11390  Biso   1.000  N
  N6       1.0000 0.84730  0.54649  0.93100  Biso   1.000  N
  O1       1.0000 0.70700  0.60556  0.39650  Biso   1.000  O
  O2       1.0000 0.62090  0.64266  0.22440  Biso   1.000  O
  O3       1.0000 0.07220  0.63751  0.19390  Biso   1.000  O
  O4       1.0000 0.04510  0.60899  0.39170  Biso   1.000  O
  S1       1.0000 0.35218  0.62972  0.23711  Biso   1.000  S
  Cd2      1.0000 0.14816  0.13296  0.24166  Biso   1.000  Cd
  C34      1.0000 0.38730  0.12078  0.17900  Biso   1.000  C
  C35      1.0000 0.51620  0.11318  0.14870  Biso   1.000  C
  C36      1.0000 0.54880  0.09538  0.03570  Biso   1.000  C
  H24      1.0000 0.48990  0.08450  0.96270  Biso   1.000  H
  C37      1.0000 0.68070  0.09512  0.04010  Biso   1.000  C
  H25      1.0000 0.71820  0.08400  0.97040  Biso   1.000  H
  C38      1.0000 0.74780  0.11275  0.15650  Biso   1.000  C
  C39      1.0000 0.88790  0.11987  0.19480  Biso   1.000  C
  C40      1.0000 0.17170  0.21215  0.09060  Biso   1.000  C
  H26      1.0000 0.24420  0.21740  0.15960  Biso   1.000  H
  C41      1.0000 0.11440  0.23492  0.98540  Biso   1.000  C
  H27      1.0000 0.13990  0.25820  0.96920  Biso   1.000  H
  C42      1.0000 0.01200  0.18405  0.96950  Biso   1.000  C
  H28      1.0000 0.95220  0.16630  0.93750  Biso   1.000  H
  C43      1.0000 0.92140  0.23028  0.78740  Biso   1.000  C
  C44      1.0000 0.90220  0.26694  0.76930  Biso   1.000  C
  H29      1.0000 0.95120  0.28300  0.83270  Biso   1.000  H
  C45      1.0000 0.81000  0.27948  0.65640  Biso   1.000  C
  H30      1.0000 0.79910  0.30410  0.64300  Biso   1.000  H
  C46      1.0000 0.73300  0.25606  0.56230  Biso   1.000  C
  C47      1.0000 0.75690  0.21961  0.57920  Biso   1.000  C
  H31      1.0000 0.70880  0.20350  0.51530  Biso   1.000  H
  C48      1.0000 0.85040  0.20681  0.68880  Biso   1.000  C
  H32      1.0000 0.86620  0.18230  0.69700  Biso   1.000  H
  C49      1.0000 0.30060  0.31716  0.01240  Biso   1.000  C
  H33      1.0000 0.36610  0.31260  0.96280  Biso   1.000  H
  C50      1.0000 0.12160  0.33304  0.06260  Biso   1.000  C
  H34      1.0000 0.03860  0.34150  0.05210  Biso   1.000  H
  C51      1.0000 0.19250  0.32093  0.18700  Biso   1.000  C
  H35      1.0000 0.16860  0.31990  0.27680  Biso   1.000  H
  C52      1.0000 0.41440  0.29616  0.25580  Biso   1.000  C
  C53      1.0000 0.45850  0.31486  0.38180  Biso   1.000  C
  H36      1.0000 0.41860  0.33590  0.40170  Biso   1.000  H
  C54      1.0000 0.56280  0.30183  0.47850  Biso   1.000  C
  H37      1.0000 0.59370  0.31470  0.56290  Biso   1.000  H
  C55      1.0000 0.62310  0.26995  0.45310  Biso   1.000  C
  C56      1.0000 0.57250  0.25116  0.32740  Biso   1.000  C
  H38      1.0000 0.60770  0.22920  0.30930  Biso   1.000  H
  C57      1.0000 0.47020  0.26479  0.22860  Biso   1.000  C
  H39      1.0000 0.43940  0.25240  0.14310  Biso   1.000  H
  C58      1.0000 0.25400  0.05392  0.39110  Biso   1.000  C
  H40      1.0000 0.30990  0.05060  0.32800  Biso   1.000  H
  C59      1.0000 0.24260  0.03179  0.50160  Biso   1.000  C
  H41      1.0000 0.28740  0.01060  0.52700  Biso   1.000  H
  C60      1.0000 0.11080  0.07666  0.49340  Biso   1.000  C
  H42      1.0000 0.04750  0.09160  0.51510  Biso   1.000  H
  C61      1.0000 0.10920  0.03312  0.69320  Biso   1.000  C
  C62      1.0000 0.09300  0.05564  0.80090  Biso   1.000  C
  H43      1.0000 0.11070  0.07990  0.79420  Biso   1.000  H
  C63      1.0000 0.05030  0.04291  0.92050  Biso   1.000  C
  H44      1.0000 0.03970  0.05890  0.99320  Biso   1.000  H
  C64      1.0000 0.02260  0.00684  0.93550  Biso   1.000  C
  C65      1.0000 0.04300  0.98433  0.82540  Biso   1.000  C
  H45      1.0000 0.02820  0.95990  0.83270  Biso   1.000  H
  C66      1.0000 0.08490  0.99714  0.70410  Biso   1.000  C
  H46      1.0000 0.09630  0.98150  0.63070  Biso   1.000  H
  N7       1.0000 0.10720  0.18040  0.08040  Biso   1.000  N
  N8       1.0000 0.01160  0.21691  0.90760  Biso   1.000  N
  N9       1.0000 0.18970  0.33103  0.95290  Biso   1.000  N
  N10      1.0000 0.30730  0.31033  0.15570  Biso   1.000  N
  N11      1.0000 0.17060  0.08211  0.38610  Biso   1.000  N
  N12      1.0000 0.15270  0.04649  0.56900  Biso   1.000  N
  O5       1.0000 0.29300  0.10556  0.10350  Biso   1.000  O
  O6       1.0000 0.37910  0.14266  0.27560  Biso   1.000  O
  O7       1.0000 0.92780  0.13751  0.30610  Biso   1.000  O
  O8       1.0000 0.95490  0.10899  0.10830  Biso   1.000  O
  S2       1.0000 0.64782  0.12972  0.26289  Biso   1.000  S
  Cd3      1.0000 0.14816  0.36704  0.74166  Biso   1.000  Cd
  C67      1.0000 0.38730  0.37922  0.67900  Biso   1.000  C
  C68      1.0000 0.51620  0.38682  0.64870  Biso   1.000  C
  C69      1.0000 0.54880  0.40462  0.53570  Biso   1.000  C
  H47      1.0000 0.48990  0.41550  0.46270  Biso   1.000  H
  C70      1.0000 0.68070  0.40488  0.54010  Biso   1.000  C
  H48      1.0000 0.71820  0.41600  0.47040  Biso   1.000  H
  C71      1.0000 0.74780  0.38725  0.65650  Biso   1.000  C
  C72      1.0000 0.88790  0.38013  0.69480  Biso   1.000  C
  C73      1.0000 0.17170  0.28785  0.59060  Biso   1.000  C
  H49      1.0000 0.24420  0.28260  0.65960  Biso   1.000  H
  C74      1.0000 0.11440  0.26508  0.48540  Biso   1.000  C
  H50      1.0000 0.13990  0.24180  0.46920  Biso   1.000  H
  C75      1.0000 0.01200  0.31595  0.46950  Biso   1.000  C
  H51      1.0000 0.95220  0.33370  0.43750  Biso   1.000  H
  C76      1.0000 0.92140  0.26972  0.28740  Biso   1.000  C
  C77      1.0000 0.90220  0.23306  0.26930  Biso   1.000  C
  H52      1.0000 0.95120  0.21700  0.33270  Biso   1.000  H
  C78      1.0000 0.81000  0.22052  0.15640  Biso   1.000  C
  H53      1.0000 0.79910  0.19590  0.14300  Biso   1.000  H
  C79      1.0000 0.73300  0.24394  0.06230  Biso   1.000  C
  C80      1.0000 0.75690  0.28039  0.07920  Biso   1.000  C
  H54      1.0000 0.70880  0.29650  0.01530  Biso   1.000  H
  C81      1.0000 0.85040  0.29319  0.18880  Biso   1.000  C
  H55      1.0000 0.86620  0.31770  0.19700  Biso   1.000  H
  C82      1.0000 0.30060  0.18284  0.51240  Biso   1.000  C
  H56      1.0000 0.36610  0.18740  0.46280  Biso   1.000  H
  C83      1.0000 0.12160  0.16696  0.56260  Biso   1.000  C
  H57      1.0000 0.03860  0.15850  0.55210  Biso   1.000  H
  C84      1.0000 0.19250  0.17907  0.68700  Biso   1.000  C
  H58      1.0000 0.16860  0.18010  0.77680  Biso   1.000  H
  C85      1.0000 0.41440  0.20384  0.75580  Biso   1.000  C
  C86      1.0000 0.45850  0.18514  0.88180  Biso   1.000  C
  H59      1.0000 0.41860  0.16410  0.90170  Biso   1.000  H
  C87      1.0000 0.56280  0.19817  0.97850  Biso   1.000  C
  H60      1.0000 0.59370  0.18530  0.06290  Biso   1.000  H
  C88      1.0000 0.62310  0.23005  0.95310  Biso   1.000  C
  C89      1.0000 0.57250  0.24884  0.82740  Biso   1.000  C
  H61      1.0000 0.60770  0.27080  0.80930  Biso   1.000  H
  C90      1.0000 0.47020  0.23521  0.72860  Biso   1.000  C
  H62      1.0000 0.43940  0.24760  0.64310  Biso   1.000  H
  C91      1.0000 0.25400  0.44608  0.89110  Biso   1.000  C
  H63      1.0000 0.30990  0.44940  0.82800  Biso   1.000  H
  C92      1.0000 0.24260  0.46821  0.00160  Biso   1.000  C
  H64      1.0000 0.28740  0.48940  0.02700  Biso   1.000  H
  C93      1.0000 0.11080  0.42334  0.99340  Biso   1.000  C
  H65      1.0000 0.04750  0.40840  0.01510  Biso   1.000  H
  C94      1.0000 0.10920  0.46688  0.19320  Biso   1.000  C
  C95      1.0000 0.09300  0.44436  0.30090  Biso   1.000  C
  H66      1.0000 0.11070  0.42010  0.29420  Biso   1.000  H
  C96      1.0000 0.05030  0.45709  0.42050  Biso   1.000  C
  H67      1.0000 0.03970  0.44110  0.49320  Biso   1.000  H
  C97      1.0000 0.02260  0.49316  0.43550  Biso   1.000  C
  C98      1.0000 0.04300  0.51567  0.32540  Biso   1.000  C
  H68      1.0000 0.02820  0.54010  0.33270  Biso   1.000  H
  C99      1.0000 0.08490  0.50286  0.20410  Biso   1.000  C
  H69      1.0000 0.09630  0.51850  0.13070  Biso   1.000  H
  N13      1.0000 0.10720  0.31960  0.58040  Biso   1.000  N
  N14      1.0000 0.01160  0.28309  0.40760  Biso   1.000  N
  N15      1.0000 0.18970  0.16897  0.45290  Biso   1.000  N
  N16      1.0000 0.30730  0.18967  0.65570  Biso   1.000  N
  N17      1.0000 0.17060  0.41789  0.88610  Biso   1.000  N
  N18      1.0000 0.15270  0.45351  0.06900  Biso   1.000  N
  O9       1.0000 0.29300  0.39444  0.60350  Biso   1.000  O
  O10      1.0000 0.37910  0.35734  0.77560  Biso   1.000  O
  O11      1.0000 0.92780  0.36249  0.80610  Biso   1.000  O
  O12      1.0000 0.95490  0.39101  0.60830  Biso   1.000  O
  S3       1.0000 0.64782  0.37028  0.76289  Biso   1.000  S
  Cd4      1.0000 0.85184  0.86704  0.75834  Biso   1.000  Cd
  C100     1.0000 0.61270  0.87922  0.82100  Biso   1.000  C
  C101     1.0000 0.48380  0.88682  0.85130  Biso   1.000  C
  C102     1.0000 0.45120  0.90462  0.96430  Biso   1.000  C
  H70      1.0000 0.51010  0.91550  0.03730  Biso   1.000  H
  C103     1.0000 0.31930  0.90488  0.95990  Biso   1.000  C
  H71      1.0000 0.28180  0.91600  0.02960  Biso   1.000  H
  C104     1.0000 0.25220  0.88725  0.84350  Biso   1.000  C
  C105     1.0000 0.11210  0.88013  0.80520  Biso   1.000  C
  C106     1.0000 0.82830  0.78785  0.90940  Biso   1.000  C
  H72      1.0000 0.75580  0.78260  0.84040  Biso   1.000  H
  C107     1.0000 0.88560  0.76508  0.01460  Biso   1.000  C
  H73      1.0000 0.86010  0.74180  0.03080  Biso   1.000  H
  C108     1.0000 0.98800  0.81595  0.03050  Biso   1.000  C
  H74      1.0000 0.04780  0.83370  0.06250  Biso   1.000  H
  C109     1.0000 0.07860  0.76972  0.21260  Biso   1.000  C
  C110     1.0000 0.09780  0.73306  0.23070  Biso   1.000  C
  H75      1.0000 0.04880  0.71700  0.16730  Biso   1.000  H
  C111     1.0000 0.19000  0.72052  0.34360  Biso   1.000  C
  H76      1.0000 0.20090  0.69590  0.35700  Biso   1.000  H
  C112     1.0000 0.26700  0.74394  0.43770  Biso   1.000  C
  C113     1.0000 0.24310  0.78039  0.42080  Biso   1.000  C
  H77      1.0000 0.29120  0.79650  0.48470  Biso   1.000  H
  C114     1.0000 0.14960  0.79319  0.31120  Biso   1.000  C
  H78      1.0000 0.13380  0.81770  0.30300  Biso   1.000  H
  C115     1.0000 0.69940  0.68284  0.98760  Biso   1.000  C
  H79      1.0000 0.63390  0.68740  0.03720  Biso   1.000  H
  C116     1.0000 0.87840  0.66696  0.93740  Biso   1.000  C
  H80      1.0000 0.96140  0.65850  0.94790  Biso   1.000  H
  C117     1.0000 0.80750  0.67907  0.81300  Biso   1.000  C
  H81      1.0000 0.83140  0.68010  0.72320  Biso   1.000  H
  C118     1.0000 0.58560  0.70384  0.74420  Biso   1.000  C
  C119     1.0000 0.54150  0.68514  0.61820  Biso   1.000  C
  H82      1.0000 0.58140  0.66410  0.59830  Biso   1.000  H
  C120     1.0000 0.43720  0.69817  0.52150  Biso   1.000  C
  H83      1.0000 0.40630  0.68530  0.43710  Biso   1.000  H
  C121     1.0000 0.37690  0.73005  0.54690  Biso   1.000  C
  C122     1.0000 0.42750  0.74884  0.67260  Biso   1.000  C
  H84      1.0000 0.39230  0.77080  0.69070  Biso   1.000  H
  C123     1.0000 0.52980  0.73521  0.77140  Biso   1.000  C
  H85      1.0000 0.56060  0.74760  0.85690  Biso   1.000  H
  C124     1.0000 0.74600  0.94608  0.60890  Biso   1.000  C
  H86      1.0000 0.69010  0.94940  0.67200  Biso   1.000  H
  C125     1.0000 0.75740  0.96821  0.49840  Biso   1.000  C
  H87      1.0000 0.71260  0.98940  0.47300  Biso   1.000  H
  C126     1.0000 0.88920  0.92334  0.50660  Biso   1.000  C
  H88      1.0000 0.95250  0.90840  0.48490  Biso   1.000  H
  C127     1.0000 0.89080  0.96688  0.30680  Biso   1.000  C
  C128     1.0000 0.90700  0.94436  0.19910  Biso   1.000  C
  H89      1.0000 0.88930  0.92010  0.20580  Biso   1.000  H
  C129     1.0000 0.94970  0.95709  0.07950  Biso   1.000  C
  H90      1.0000 0.96030  0.94110  0.00680  Biso   1.000  H
  C130     1.0000 0.97740  0.99316  0.06450  Biso   1.000  C
  C131     1.0000 0.95700  0.01567  0.17460  Biso   1.000  C
  H91      1.0000 0.97180  0.04010  0.16730  Biso   1.000  H
  C132     1.0000 0.91510  0.00286  0.29590  Biso   1.000  C
  H92      1.0000 0.90370  0.01850  0.36930  Biso   1.000  H
  N19      1.0000 0.89280  0.81960  0.91960  Biso   1.000  N
  N20      1.0000 0.98840  0.78309  0.09240  Biso   1.000  N
  N21      1.0000 0.81030  0.66897  0.04710  Biso   1.000  N
  N22      1.0000 0.69270  0.68967  0.84430  Biso   1.000  N
  N23      1.0000 0.82940  0.91789  0.61390  Biso   1.000  N
  N24      1.0000 0.84730  0.95351  0.43100  Biso   1.000  N
  O13      1.0000 0.70700  0.89444  0.89650  Biso   1.000  O
  O14      1.0000 0.62090  0.85734  0.72440  Biso   1.000  O
  O15      1.0000 0.07220  0.86249  0.69390  Biso   1.000  O
  O16      1.0000 0.04510  0.89101  0.89170  Biso   1.000  O
  S4       1.0000 0.35218  0.87028  0.73711  Biso   1.000  S
