data_image0
_cell_length_a       14.751
_cell_length_b       15.0645
_cell_length_c       15.0645
_cell_angle_alpha    120
_cell_angle_beta     90
_cell_angle_gamma    90

_symmetry_space_group_name_H-M    P 1
_symmetry_int_tables_number       1

loop_
  _symmetry_equiv_pos_as_xyz
  'x, y, z'

loop_
  _atom_site_label
  _atom_site_occupancy
  _atom_site_fract_x
  _atom_site_fract_y
  _atom_site_fract_z
  _atom_site_thermal_displace_type
  _atom_site_B_iso_or_equiv
  _atom_site_type_symbol
  Nd1      1.0000 0.25000  0.33333  0.66666  Biso   1.000  Nd
  Nd2      1.0000 0.25000  0.66667  0.33334  Biso   1.000  Nd
  Nd3      1.0000 0.75000  0.66667  0.33334  Biso   1.000  Nd
  Nd4      1.0000 0.75000  0.33333  0.66666  Biso   1.000  Nd
  Cu1      1.0000 0.00000  0.50000  0.50000  Biso   1.000  Cu
  Cu2      1.0000 0.00000  0.00000  0.50000  Biso   1.000  Cu
  Cu3      1.0000 0.00000  0.50000  0.00000  Biso   1.000  Cu
  Cu4      1.0000 0.50000  0.00000  0.50000  Biso   1.000  Cu
  Cu5      1.0000 0.50000  0.50000  0.50000  Biso   1.000  Cu
  Cu6      1.0000 0.50000  0.50000  0.00000  Biso   1.000  Cu
  H1       1.0000 0.83730  0.78820  0.15260  Biso   1.000  H
  H2       1.0000 0.75970  0.71100  0.08830  Biso   1.000  H
  H3       1.0000 0.83730  0.36440  0.21180  Biso   1.000  H
  H4       1.0000 0.75970  0.37730  0.28900  Biso   1.000  H
  H5       1.0000 0.83730  0.84740  0.63560  Biso   1.000  H
  H6       1.0000 0.75970  0.91170  0.62270  Biso   1.000  H
  H7       1.0000 0.83730  0.21180  0.84740  Biso   1.000  H
  H8       1.0000 0.75970  0.28900  0.91170  Biso   1.000  H
  H9       1.0000 0.83730  0.63560  0.78820  Biso   1.000  H
  H10      1.0000 0.75970  0.62270  0.71100  Biso   1.000  H
  H11      1.0000 0.83730  0.15260  0.36440  Biso   1.000  H
  H12      1.0000 0.75970  0.08830  0.37730  Biso   1.000  H
  H13      1.0000 0.66270  0.63560  0.84740  Biso   1.000  H
  H14      1.0000 0.74030  0.62270  0.91170  Biso   1.000  H
  H15      1.0000 0.66270  0.15260  0.78820  Biso   1.000  H
  H16      1.0000 0.74030  0.08830  0.71100  Biso   1.000  H
  H17      1.0000 0.66270  0.21180  0.36440  Biso   1.000  H
  H18      1.0000 0.74030  0.28900  0.37730  Biso   1.000  H
  H19      1.0000 0.66270  0.36440  0.15260  Biso   1.000  H
  H20      1.0000 0.74030  0.37730  0.08830  Biso   1.000  H
  H21      1.0000 0.66270  0.84740  0.21180  Biso   1.000  H
  H22      1.0000 0.74030  0.91170  0.28900  Biso   1.000  H
  H23      1.0000 0.66270  0.78820  0.63560  Biso   1.000  H
  H24      1.0000 0.74030  0.71100  0.62270  Biso   1.000  H
  H25      1.0000 0.16270  0.21180  0.84740  Biso   1.000  H
  H26      1.0000 0.24030  0.28900  0.91170  Biso   1.000  H
  H27      1.0000 0.16270  0.63560  0.78820  Biso   1.000  H
  H28      1.0000 0.24030  0.62270  0.71100  Biso   1.000  H
  H29      1.0000 0.16270  0.15260  0.36440  Biso   1.000  H
  H30      1.0000 0.24030  0.08830  0.37730  Biso   1.000  H
  H31      1.0000 0.16270  0.78820  0.15260  Biso   1.000  H
  H32      1.0000 0.24030  0.71100  0.08830  Biso   1.000  H
  H33      1.0000 0.16270  0.36440  0.21180  Biso   1.000  H
  H34      1.0000 0.24030  0.37730  0.28900  Biso   1.000  H
  H35      1.0000 0.16270  0.84740  0.63560  Biso   1.000  H
  H36      1.0000 0.24030  0.91170  0.62270  Biso   1.000  H
  H37      1.0000 0.33730  0.36440  0.15260  Biso   1.000  H
  H38      1.0000 0.25970  0.37730  0.08830  Biso   1.000  H
  H39      1.0000 0.33730  0.84740  0.21180  Biso   1.000  H
  H40      1.0000 0.25970  0.91170  0.28900  Biso   1.000  H
  H41      1.0000 0.33730  0.78820  0.63560  Biso   1.000  H
  H42      1.0000 0.25970  0.71100  0.62270  Biso   1.000  H
  H43      1.0000 0.33730  0.63560  0.84740  Biso   1.000  H
  H44      1.0000 0.25970  0.62270  0.91170  Biso   1.000  H
  H45      1.0000 0.33730  0.15260  0.78820  Biso   1.000  H
  H46      1.0000 0.25970  0.08830  0.71100  Biso   1.000  H
  H47      1.0000 0.33730  0.21180  0.36440  Biso   1.000  H
  H48      1.0000 0.25970  0.28900  0.37730  Biso   1.000  H
  C1       1.0000 0.36010  0.12780  0.64360  Biso   1.000  C
  C2       1.0000 0.69960  0.85400  0.26810  Biso   1.000  C
  C3       1.0000 0.36010  0.51580  0.87220  Biso   1.000  C
  C4       1.0000 0.69960  0.41410  0.14600  Biso   1.000  C
  C5       1.0000 0.36010  0.35640  0.48420  Biso   1.000  C
  C6       1.0000 0.69960  0.73190  0.58590  Biso   1.000  C
  C7       1.0000 0.36010  0.87220  0.35640  Biso   1.000  C
  C8       1.0000 0.69960  0.14600  0.73190  Biso   1.000  C
  C9       1.0000 0.36010  0.48420  0.12780  Biso   1.000  C
  C10      1.0000 0.69960  0.58590  0.85400  Biso   1.000  C
  C11      1.0000 0.36010  0.64360  0.51580  Biso   1.000  C
  C12      1.0000 0.69960  0.26810  0.41410  Biso   1.000  C
  C13      1.0000 0.13990  0.48420  0.35640  Biso   1.000  C
  C14      1.0000 0.80040  0.58590  0.73190  Biso   1.000  C
  C15      1.0000 0.13990  0.64360  0.12780  Biso   1.000  C
  C16      1.0000 0.80040  0.26810  0.85400  Biso   1.000  C
  C17      1.0000 0.13990  0.87220  0.51580  Biso   1.000  C
  C18      1.0000 0.80040  0.14600  0.41410  Biso   1.000  C
  C19      1.0000 0.13990  0.51580  0.64360  Biso   1.000  C
  C20      1.0000 0.80040  0.41410  0.26810  Biso   1.000  C
  C21      1.0000 0.13990  0.35640  0.87220  Biso   1.000  C
  C22      1.0000 0.80040  0.73190  0.14600  Biso   1.000  C
  C23      1.0000 0.13990  0.12780  0.48420  Biso   1.000  C
  C24      1.0000 0.80040  0.85400  0.58590  Biso   1.000  C
  C25      1.0000 0.63990  0.87220  0.35640  Biso   1.000  C
  C26      1.0000 0.30040  0.14600  0.73190  Biso   1.000  C
  C27      1.0000 0.63990  0.48420  0.12780  Biso   1.000  C
  C28      1.0000 0.30040  0.58590  0.85400  Biso   1.000  C
  C29      1.0000 0.63990  0.64360  0.51580  Biso   1.000  C
  C30      1.0000 0.30040  0.26810  0.41410  Biso   1.000  C
  C31      1.0000 0.63990  0.12780  0.64360  Biso   1.000  C
  C32      1.0000 0.30040  0.85400  0.26810  Biso   1.000  C
  C33      1.0000 0.63990  0.51580  0.87220  Biso   1.000  C
  C34      1.0000 0.30040  0.41410  0.14600  Biso   1.000  C
  C35      1.0000 0.63990  0.35640  0.48420  Biso   1.000  C
  C36      1.0000 0.30040  0.73190  0.58590  Biso   1.000  C
  C37      1.0000 0.86010  0.51580  0.64360  Biso   1.000  C
  C38      1.0000 0.19960  0.41410  0.26810  Biso   1.000  C
  C39      1.0000 0.86010  0.35640  0.87220  Biso   1.000  C
  C40      1.0000 0.19960  0.73190  0.14600  Biso   1.000  C
  C41      1.0000 0.86010  0.12780  0.48420  Biso   1.000  C
  C42      1.0000 0.19960  0.85400  0.58590  Biso   1.000  C
  C43      1.0000 0.86010  0.48420  0.35640  Biso   1.000  C
  C44      1.0000 0.19960  0.58590  0.73190  Biso   1.000  C
  C45      1.0000 0.86010  0.64360  0.12780  Biso   1.000  C
  C46      1.0000 0.19960  0.26810  0.85400  Biso   1.000  C
  C47      1.0000 0.86010  0.87220  0.51580  Biso   1.000  C
  C48      1.0000 0.19960  0.14600  0.41410  Biso   1.000  C
  O1       1.0000 0.35890  0.19250  0.61440  Biso   1.000  O
  O2       1.0000 0.40760  0.04900  0.60710  Biso   1.000  O
  O3       1.0000 0.35890  0.42190  0.80750  Biso   1.000  O
  O4       1.0000 0.40760  0.55810  0.95100  Biso   1.000  O
  O5       1.0000 0.35890  0.38560  0.57810  Biso   1.000  O
  O6       1.0000 0.40760  0.39290  0.44190  Biso   1.000  O
  O7       1.0000 0.35890  0.80750  0.38560  Biso   1.000  O
  O8       1.0000 0.40760  0.95100  0.39290  Biso   1.000  O
  O9       1.0000 0.35890  0.57810  0.19250  Biso   1.000  O
  O10      1.0000 0.40760  0.44190  0.04900  Biso   1.000  O
  O11      1.0000 0.35890  0.61440  0.42190  Biso   1.000  O
  O12      1.0000 0.40760  0.60710  0.55810  Biso   1.000  O
  O13      1.0000 0.14110  0.57810  0.38560  Biso   1.000  O
  O14      1.0000 0.09240  0.44190  0.39290  Biso   1.000  O
  O15      1.0000 0.14110  0.61440  0.19250  Biso   1.000  O
  O16      1.0000 0.09240  0.60710  0.04900  Biso   1.000  O
  O17      1.0000 0.14110  0.80750  0.42190  Biso   1.000  O
  O18      1.0000 0.09240  0.95100  0.55810  Biso   1.000  O
  O19      1.0000 0.14110  0.42190  0.61440  Biso   1.000  O
  O20      1.0000 0.09240  0.55810  0.60710  Biso   1.000  O
  O21      1.0000 0.14110  0.38560  0.80750  Biso   1.000  O
  O22      1.0000 0.09240  0.39290  0.95100  Biso   1.000  O
  O23      1.0000 0.14110  0.19250  0.57810  Biso   1.000  O
  O24      1.0000 0.09240  0.04900  0.44190  Biso   1.000  O
  O25      1.0000 0.64110  0.80750  0.38560  Biso   1.000  O
  O26      1.0000 0.59240  0.95100  0.39290  Biso   1.000  O
  O27      1.0000 0.64110  0.57810  0.19250  Biso   1.000  O
  O28      1.0000 0.59240  0.44190  0.04900  Biso   1.000  O
  O29      1.0000 0.64110  0.61440  0.42190  Biso   1.000  O
  O30      1.0000 0.59240  0.60710  0.55810  Biso   1.000  O
  O31      1.0000 0.64110  0.19250  0.61440  Biso   1.000  O
  O32      1.0000 0.59240  0.04900  0.60710  Biso   1.000  O
  O33      1.0000 0.64110  0.42190  0.80750  Biso   1.000  O
  O34      1.0000 0.59240  0.55810  0.95100  Biso   1.000  O
  O35      1.0000 0.64110  0.38560  0.57810  Biso   1.000  O
  O36      1.0000 0.59240  0.39290  0.44190  Biso   1.000  O
  O37      1.0000 0.85890  0.42190  0.61440  Biso   1.000  O
  O38      1.0000 0.90760  0.55810  0.60710  Biso   1.000  O
  O39      1.0000 0.85890  0.38560  0.80750  Biso   1.000  O
  O40      1.0000 0.90760  0.39290  0.95100  Biso   1.000  O
  O41      1.0000 0.85890  0.19250  0.57810  Biso   1.000  O
  O42      1.0000 0.90760  0.04900  0.44190  Biso   1.000  O
  O43      1.0000 0.85890  0.57810  0.38560  Biso   1.000  O
  O44      1.0000 0.90760  0.44190  0.39290  Biso   1.000  O
  O45      1.0000 0.85890  0.61440  0.19250  Biso   1.000  O
  O46      1.0000 0.90760  0.60710  0.04900  Biso   1.000  O
  O47      1.0000 0.85890  0.80750  0.42190  Biso   1.000  O
  O48      1.0000 0.90760  0.95100  0.55810  Biso   1.000  O
  O49      1.0000 0.75000  0.76375  0.23625  Biso   1.000  O
  O50      1.0000 0.75000  0.47250  0.23625  Biso   1.000  O
  O51      1.0000 0.75000  0.76375  0.52750  Biso   1.000  O
  O52      1.0000 0.75000  0.23625  0.76375  Biso   1.000  O
  O53      1.0000 0.75000  0.52750  0.76375  Biso   1.000  O
  O54      1.0000 0.75000  0.23625  0.47250  Biso   1.000  O
  O55      1.0000 0.25000  0.23625  0.76375  Biso   1.000  O
  O56      1.0000 0.25000  0.52750  0.76375  Biso   1.000  O
  O57      1.0000 0.25000  0.23625  0.47250  Biso   1.000  O
  O58      1.0000 0.25000  0.76375  0.23625  Biso   1.000  O
  O59      1.0000 0.25000  0.47250  0.23625  Biso   1.000  O
  O60      1.0000 0.25000  0.76375  0.52750  Biso   1.000  O
