data_image0
_cell_length_a       14.71
_cell_length_b       15.091
_cell_length_c       15.091
_cell_angle_alpha    120
_cell_angle_beta     90
_cell_angle_gamma    90

_symmetry_space_group_name_H-M    P 1
_symmetry_int_tables_number       1

loop_
  _symmetry_equiv_pos_as_xyz
  'x, y, z'

loop_
  _atom_site_label
  _atom_site_occupancy
  _atom_site_fract_x
  _atom_site_fract_y
  _atom_site_fract_z
  _atom_site_thermal_displace_type
  _atom_site_B_iso_or_equiv
  _atom_site_type_symbol
  Nd1      1.0000 0.75000  0.33333  0.66666  Biso   1.000  Nd
  Nd2      1.0000 0.75000  0.66667  0.33334  Biso   1.000  Nd
  Nd3      1.0000 0.25000  0.66667  0.33334  Biso   1.000  Nd
  Nd4      1.0000 0.25000  0.33333  0.66666  Biso   1.000  Nd
  Cu1      1.0000 0.50000  0.50000  0.00000  Biso   1.000  Cu
  Cu2      1.0000 0.50000  0.50000  0.50000  Biso   1.000  Cu
  Cu3      1.0000 0.50000  0.00000  0.50000  Biso   1.000  Cu
  Cu4      1.0000 0.00000  0.50000  0.00000  Biso   1.000  Cu
  Cu5      1.0000 0.00000  0.00000  0.50000  Biso   1.000  Cu
  Cu6      1.0000 0.00000  0.50000  0.50000  Biso   1.000  Cu
  C1       1.0000 0.70100  0.58700  0.85560  Biso   1.000  C
  C2       1.0000 0.64060  0.51480  0.87170  Biso   1.000  C
  C3       1.0000 0.70100  0.26860  0.41300  Biso   1.000  C
  C4       1.0000 0.64060  0.35690  0.48520  Biso   1.000  C
  C5       1.0000 0.70100  0.14440  0.73140  Biso   1.000  C
  C6       1.0000 0.64060  0.12830  0.64310  Biso   1.000  C
  C7       1.0000 0.70100  0.41300  0.14440  Biso   1.000  C
  C8       1.0000 0.64060  0.48520  0.12830  Biso   1.000  C
  C9       1.0000 0.70100  0.73140  0.58700  Biso   1.000  C
  C10      1.0000 0.64060  0.64310  0.51480  Biso   1.000  C
  C11      1.0000 0.70100  0.85560  0.26860  Biso   1.000  C
  C12      1.0000 0.64060  0.87170  0.35690  Biso   1.000  C
  C13      1.0000 0.79900  0.73140  0.14440  Biso   1.000  C
  C14      1.0000 0.85940  0.64310  0.12830  Biso   1.000  C
  C15      1.0000 0.79900  0.85560  0.58700  Biso   1.000  C
  C16      1.0000 0.85940  0.87170  0.51480  Biso   1.000  C
  C17      1.0000 0.79900  0.41300  0.26860  Biso   1.000  C
  C18      1.0000 0.85940  0.48520  0.35690  Biso   1.000  C
  C19      1.0000 0.79900  0.26860  0.85560  Biso   1.000  C
  C20      1.0000 0.85940  0.35690  0.87170  Biso   1.000  C
  C21      1.0000 0.79900  0.14440  0.41300  Biso   1.000  C
  C22      1.0000 0.85940  0.12830  0.48520  Biso   1.000  C
  C23      1.0000 0.79900  0.58700  0.73140  Biso   1.000  C
  C24      1.0000 0.85940  0.51480  0.64310  Biso   1.000  C
  C25      1.0000 0.29900  0.41300  0.14440  Biso   1.000  C
  C26      1.0000 0.35940  0.48520  0.12830  Biso   1.000  C
  C27      1.0000 0.29900  0.73140  0.58700  Biso   1.000  C
  C28      1.0000 0.35940  0.64310  0.51480  Biso   1.000  C
  C29      1.0000 0.29900  0.85560  0.26860  Biso   1.000  C
  C30      1.0000 0.35940  0.87170  0.35690  Biso   1.000  C
  C31      1.0000 0.29900  0.58700  0.85560  Biso   1.000  C
  C32      1.0000 0.35940  0.51480  0.87170  Biso   1.000  C
  C33      1.0000 0.29900  0.26860  0.41300  Biso   1.000  C
  C34      1.0000 0.35940  0.35690  0.48520  Biso   1.000  C
  C35      1.0000 0.29900  0.14440  0.73140  Biso   1.000  C
  C36      1.0000 0.35940  0.12830  0.64310  Biso   1.000  C
  C37      1.0000 0.20100  0.26860  0.85560  Biso   1.000  C
  C38      1.0000 0.14060  0.35690  0.87170  Biso   1.000  C
  C39      1.0000 0.20100  0.14440  0.41300  Biso   1.000  C
  C40      1.0000 0.14060  0.12830  0.48520  Biso   1.000  C
  C41      1.0000 0.20100  0.58700  0.73140  Biso   1.000  C
  C42      1.0000 0.14060  0.51480  0.64310  Biso   1.000  C
  C43      1.0000 0.20100  0.73140  0.14440  Biso   1.000  C
  C44      1.0000 0.14060  0.64310  0.12830  Biso   1.000  C
  C45      1.0000 0.20100  0.85560  0.58700  Biso   1.000  C
  C46      1.0000 0.14060  0.87170  0.51480  Biso   1.000  C
  C47      1.0000 0.20100  0.41300  0.26860  Biso   1.000  C
  C48      1.0000 0.14060  0.48520  0.35690  Biso   1.000  C
  O1       1.0000 0.64080  0.42150  0.80640  Biso   1.000  O
  O2       1.0000 0.59250  0.55680  0.95030  Biso   1.000  O
  O3       1.0000 0.64080  0.38490  0.57850  Biso   1.000  O
  O4       1.0000 0.59250  0.39350  0.44320  Biso   1.000  O
  O5       1.0000 0.64080  0.19360  0.61510  Biso   1.000  O
  O6       1.0000 0.59250  0.04970  0.60650  Biso   1.000  O
  O7       1.0000 0.64080  0.57850  0.19360  Biso   1.000  O
  O8       1.0000 0.59250  0.44320  0.04970  Biso   1.000  O
  O9       1.0000 0.64080  0.61510  0.42150  Biso   1.000  O
  O10      1.0000 0.59250  0.60650  0.55680  Biso   1.000  O
  O11      1.0000 0.64080  0.80640  0.38490  Biso   1.000  O
  O12      1.0000 0.59250  0.95030  0.39350  Biso   1.000  O
  O13      1.0000 0.85920  0.61510  0.19360  Biso   1.000  O
  O14      1.0000 0.90750  0.60650  0.04970  Biso   1.000  O
  O15      1.0000 0.85920  0.80640  0.42150  Biso   1.000  O
  O16      1.0000 0.90750  0.95030  0.55680  Biso   1.000  O
  O17      1.0000 0.85920  0.57850  0.38490  Biso   1.000  O
  O18      1.0000 0.90750  0.44320  0.39350  Biso   1.000  O
  O19      1.0000 0.85920  0.38490  0.80640  Biso   1.000  O
  O20      1.0000 0.90750  0.39350  0.95030  Biso   1.000  O
  O21      1.0000 0.85920  0.19360  0.57850  Biso   1.000  O
  O22      1.0000 0.90750  0.04970  0.44320  Biso   1.000  O
  O23      1.0000 0.85920  0.42150  0.61510  Biso   1.000  O
  O24      1.0000 0.90750  0.55680  0.60650  Biso   1.000  O
  O25      1.0000 0.35920  0.57850  0.19360  Biso   1.000  O
  O26      1.0000 0.40750  0.44320  0.04970  Biso   1.000  O
  O27      1.0000 0.35920  0.61510  0.42150  Biso   1.000  O
  O28      1.0000 0.40750  0.60650  0.55680  Biso   1.000  O
  O29      1.0000 0.35920  0.80640  0.38490  Biso   1.000  O
  O30      1.0000 0.40750  0.95030  0.39350  Biso   1.000  O
  O31      1.0000 0.35920  0.42150  0.80640  Biso   1.000  O
  O32      1.0000 0.40750  0.55680  0.95030  Biso   1.000  O
  O33      1.0000 0.35920  0.38490  0.57850  Biso   1.000  O
  O34      1.0000 0.40750  0.39350  0.44320  Biso   1.000  O
  O35      1.0000 0.35920  0.19360  0.61510  Biso   1.000  O
  O36      1.0000 0.40750  0.04970  0.60650  Biso   1.000  O
  O37      1.0000 0.14080  0.38490  0.80640  Biso   1.000  O
  O38      1.0000 0.09250  0.39350  0.95030  Biso   1.000  O
  O39      1.0000 0.14080  0.19360  0.57850  Biso   1.000  O
  O40      1.0000 0.09250  0.04970  0.44320  Biso   1.000  O
  O41      1.0000 0.14080  0.42150  0.61510  Biso   1.000  O
  O42      1.0000 0.09250  0.55680  0.60650  Biso   1.000  O
  O43      1.0000 0.14080  0.61510  0.19360  Biso   1.000  O
  O44      1.0000 0.09250  0.60650  0.04970  Biso   1.000  O
  O45      1.0000 0.14080  0.80640  0.42150  Biso   1.000  O
  O46      1.0000 0.09250  0.95030  0.55680  Biso   1.000  O
  O47      1.0000 0.14080  0.57850  0.38490  Biso   1.000  O
  O48      1.0000 0.09250  0.44320  0.39350  Biso   1.000  O
  O49      1.0000 0.75000  0.52620  0.76310  Biso   1.000  O
  O50      1.0000 0.75000  0.23690  0.47380  Biso   1.000  O
  O51      1.0000 0.75000  0.23690  0.76310  Biso   1.000  O
  O52      1.0000 0.75000  0.47380  0.23690  Biso   1.000  O
  O53      1.0000 0.75000  0.76310  0.52620  Biso   1.000  O
  O54      1.0000 0.75000  0.76310  0.23690  Biso   1.000  O
  O55      1.0000 0.25000  0.47380  0.23690  Biso   1.000  O
  O56      1.0000 0.25000  0.76310  0.52620  Biso   1.000  O
  O57      1.0000 0.25000  0.76310  0.23690  Biso   1.000  O
  O58      1.0000 0.25000  0.52620  0.76310  Biso   1.000  O
  O59      1.0000 0.25000  0.23690  0.47380  Biso   1.000  O
  O60      1.0000 0.25000  0.23690  0.76310  Biso   1.000  O
