data_image0
_cell_length_a       10.4562
_cell_length_b       10.4562
_cell_length_c       14.264
_cell_angle_alpha    83.3213
_cell_angle_beta     83.3213
_cell_angle_gamma    85.3259

_symmetry_space_group_name_H-M    P 1
_symmetry_int_tables_number       1

loop_
  _symmetry_equiv_pos_as_xyz
  'x, y, z'

loop_
  _atom_site_label
  _atom_site_occupancy
  _atom_site_fract_x
  _atom_site_fract_y
  _atom_site_fract_z
  _atom_site_thermal_displace_type
  _atom_site_B_iso_or_equiv
  _atom_site_type_symbol
  Gd1      1.0000 0.22880  0.77120  0.25000  Biso   1.000  Gd
  Gd2      1.0000 0.77120  0.22880  0.75000  Biso   1.000  Gd
  H1       1.0000 0.29020  0.16800  0.45960  Biso   1.000  H
  H2       1.0000 0.80410  0.73770  0.40870  Biso   1.000  H
  H3       1.0000 0.64640  0.68280  0.41160  Biso   1.000  H
  H4       1.0000 0.56100  0.88300  0.35310  Biso   1.000  H
  H5       1.0000 0.71540  0.86900  0.28780  Biso   1.000  H
  H6       1.0000 0.68990  0.18950  0.33360  Biso   1.000  H
  H7       1.0000 0.65320  0.08140  0.25690  Biso   1.000  H
  H8       1.0000 0.46460  0.21060  0.30030  Biso   1.000  H
  H9       1.0000 0.44460  0.04960  0.35400  Biso   1.000  H
  H10      1.0000 0.51960  0.27320  0.44530  Biso   1.000  H
  H11      1.0000 0.50320  0.11460  0.49930  Biso   1.000  H
  H12      1.0000 0.69030  0.67110  0.66100  Biso   1.000  H
  H13      1.0000 0.68210  0.57650  0.56910  Biso   1.000  H
  H14      1.0000 0.90500  0.63240  0.50710  Biso   1.000  H
  H15      1.0000 0.91000  0.70840  0.61080  Biso   1.000  H
  H16      1.0000 0.88230  0.91430  0.41350  Biso   1.000  H
  H17      1.0000 0.87600  0.03140  0.31320  Biso   1.000  H
  H18      1.0000 0.96770  0.11690  0.43440  Biso   1.000  H
  H19      1.0000 0.81860  0.20080  0.41720  Biso   1.000  H
  H20      1.0000 0.83200  0.70980  0.04040  Biso   1.000  H
  H21      1.0000 0.26230  0.19590  0.09130  Biso   1.000  H
  H22      1.0000 0.31720  0.35360  0.08840  Biso   1.000  H
  H23      1.0000 0.11700  0.43900  0.14690  Biso   1.000  H
  H24      1.0000 0.13100  0.28460  0.21220  Biso   1.000  H
  H25      1.0000 0.81050  0.31010  0.16640  Biso   1.000  H
  H26      1.0000 0.91860  0.34680  0.24310  Biso   1.000  H
  H27      1.0000 0.78940  0.53540  0.19970  Biso   1.000  H
  H28      1.0000 0.95040  0.55540  0.14600  Biso   1.000  H
  H29      1.0000 0.72680  0.48040  0.05470  Biso   1.000  H
  H30      1.0000 0.88540  0.49680  0.00070  Biso   1.000  H
  H31      1.0000 0.32890  0.30970  0.83900  Biso   1.000  H
  H32      1.0000 0.42350  0.31790  0.93090  Biso   1.000  H
  H33      1.0000 0.36760  0.09500  0.99290  Biso   1.000  H
  H34      1.0000 0.29160  0.09000  0.88920  Biso   1.000  H
  H35      1.0000 0.08570  0.11770  0.08650  Biso   1.000  H
  H36      1.0000 0.96860  0.12400  0.18680  Biso   1.000  H
  H37      1.0000 0.88310  0.03230  0.06560  Biso   1.000  H
  H38      1.0000 0.79920  0.18140  0.08280  Biso   1.000  H
  H39      1.0000 0.70980  0.83200  0.54040  Biso   1.000  H
  H40      1.0000 0.19590  0.26230  0.59130  Biso   1.000  H
  H41      1.0000 0.35360  0.31720  0.58840  Biso   1.000  H
  H42      1.0000 0.43900  0.11700  0.64690  Biso   1.000  H
  H43      1.0000 0.28460  0.13100  0.71220  Biso   1.000  H
  H44      1.0000 0.31010  0.81050  0.66640  Biso   1.000  H
  H45      1.0000 0.34680  0.91860  0.74310  Biso   1.000  H
  H46      1.0000 0.53540  0.78940  0.69970  Biso   1.000  H
  H47      1.0000 0.55540  0.95040  0.64600  Biso   1.000  H
  H48      1.0000 0.48040  0.72680  0.55470  Biso   1.000  H
  H49      1.0000 0.49680  0.88540  0.50070  Biso   1.000  H
  H50      1.0000 0.30970  0.32890  0.33900  Biso   1.000  H
  H51      1.0000 0.31790  0.42350  0.43090  Biso   1.000  H
  H52      1.0000 0.09500  0.36760  0.49290  Biso   1.000  H
  H53      1.0000 0.09000  0.29160  0.38920  Biso   1.000  H
  H54      1.0000 0.11770  0.08570  0.58650  Biso   1.000  H
  H55      1.0000 0.12400  0.96860  0.68680  Biso   1.000  H
  H56      1.0000 0.03230  0.88310  0.56560  Biso   1.000  H
  H57      1.0000 0.18140  0.79920  0.58280  Biso   1.000  H
  H58      1.0000 0.16800  0.29020  0.95960  Biso   1.000  H
  H59      1.0000 0.73770  0.80410  0.90870  Biso   1.000  H
  H60      1.0000 0.68280  0.64640  0.91160  Biso   1.000  H
  H61      1.0000 0.88300  0.56100  0.85310  Biso   1.000  H
  H62      1.0000 0.86900  0.71540  0.78780  Biso   1.000  H
  H63      1.0000 0.18950  0.68990  0.83360  Biso   1.000  H
  H64      1.0000 0.08140  0.65320  0.75690  Biso   1.000  H
  H65      1.0000 0.21060  0.46460  0.80030  Biso   1.000  H
  H66      1.0000 0.04960  0.44460  0.85400  Biso   1.000  H
  H67      1.0000 0.27320  0.51960  0.94530  Biso   1.000  H
  H68      1.0000 0.11460  0.50320  0.99930  Biso   1.000  H
  H69      1.0000 0.67110  0.69030  0.16100  Biso   1.000  H
  H70      1.0000 0.57650  0.68210  0.06910  Biso   1.000  H
  H71      1.0000 0.63240  0.90500  0.00710  Biso   1.000  H
  H72      1.0000 0.70840  0.91000  0.11080  Biso   1.000  H
  H73      1.0000 0.91430  0.88230  0.91350  Biso   1.000  H
  H74      1.0000 0.03140  0.87600  0.81320  Biso   1.000  H
  H75      1.0000 0.11690  0.96770  0.93440  Biso   1.000  H
  H76      1.0000 0.20080  0.81860  0.91720  Biso   1.000  H
  C1       1.0000 0.29700  0.24100  0.57420  Biso   1.000  C
  C2       1.0000 0.33600  0.12400  0.64280  Biso   1.000  C
  C3       1.0000 0.35960  0.89360  0.67110  Biso   1.000  C
  C4       1.0000 0.50200  0.86400  0.64780  Biso   1.000  C
  C5       1.0000 0.53210  0.81070  0.55400  Biso   1.000  C
  C6       1.0000 0.28000  0.34200  0.41190  Biso   1.000  C
  C7       1.0000 0.13600  0.36400  0.42100  Biso   1.000  C
  C8       1.0000 0.10000  0.49200  0.36500  Biso   1.000  C
  C9       1.0000 0.83740  0.00540  0.38660  Biso   1.000  C
  C10      1.0000 0.86300  0.10900  0.44600  Biso   1.000  C
  C11      1.0000 0.82160  0.08360  0.55300  Biso   1.000  C
  C12      1.0000 0.75900  0.70300  0.92580  Biso   1.000  C
  C13      1.0000 0.87600  0.66400  0.85720  Biso   1.000  C
  C14      1.0000 0.10640  0.64040  0.82890  Biso   1.000  C
  C15      1.0000 0.13600  0.49800  0.85220  Biso   1.000  C
  C16      1.0000 0.18930  0.46790  0.94600  Biso   1.000  C
  C17      1.0000 0.65800  0.72000  0.08810  Biso   1.000  C
  C18      1.0000 0.63600  0.86400  0.07900  Biso   1.000  C
  C19      1.0000 0.50800  0.90000  0.13500  Biso   1.000  C
  C20      1.0000 0.99460  0.16260  0.11340  Biso   1.000  C
  C21      1.0000 0.89100  0.13700  0.05400  Biso   1.000  C
  C22      1.0000 0.91640  0.17840  0.94700  Biso   1.000  C
  C23      1.0000 0.70300  0.75900  0.42580  Biso   1.000  C
  C24      1.0000 0.66400  0.87600  0.35720  Biso   1.000  C
  C25      1.0000 0.64040  0.10640  0.32890  Biso   1.000  C
  C26      1.0000 0.49800  0.13600  0.35220  Biso   1.000  C
  C27      1.0000 0.46790  0.18930  0.44600  Biso   1.000  C
  C28      1.0000 0.72000  0.65800  0.58810  Biso   1.000  C
  C29      1.0000 0.86400  0.63600  0.57900  Biso   1.000  C
  C30      1.0000 0.90000  0.50800  0.63500  Biso   1.000  C
  C31      1.0000 0.16260  0.99460  0.61340  Biso   1.000  C
  C32      1.0000 0.13700  0.89100  0.55400  Biso   1.000  C
  C33      1.0000 0.17840  0.91640  0.44700  Biso   1.000  C
  C34      1.0000 0.24100  0.29700  0.07420  Biso   1.000  C
  C35      1.0000 0.12400  0.33600  0.14280  Biso   1.000  C
  C36      1.0000 0.89360  0.35960  0.17110  Biso   1.000  C
  C37      1.0000 0.86400  0.50200  0.14780  Biso   1.000  C
  C38      1.0000 0.81070  0.53210  0.05400  Biso   1.000  C
  C39      1.0000 0.34200  0.28000  0.91190  Biso   1.000  C
  C40      1.0000 0.36400  0.13600  0.92100  Biso   1.000  C
  C41      1.0000 0.49200  0.10000  0.86500  Biso   1.000  C
  C42      1.0000 0.00540  0.83740  0.88660  Biso   1.000  C
  C43      1.0000 0.10900  0.86300  0.94600  Biso   1.000  C
  C44      1.0000 0.08360  0.82160  0.05300  Biso   1.000  C
  N1       1.0000 0.32700  0.22140  0.47280  Biso   1.000  N
  N2       1.0000 0.30420  0.00280  0.61060  Biso   1.000  N
  N3       1.0000 0.77860  0.67300  0.02720  Biso   1.000  N
  N4       1.0000 0.99720  0.69580  0.88940  Biso   1.000  N
  N5       1.0000 0.67300  0.77860  0.52720  Biso   1.000  N
  N6       1.0000 0.69580  0.99720  0.38940  Biso   1.000  N
  N7       1.0000 0.22140  0.32700  0.97280  Biso   1.000  N
  N8       1.0000 0.00280  0.30420  0.11060  Biso   1.000  N
  O1       1.0000 0.02080  0.47700  0.63640  Biso   1.000  O
  O2       1.0000 0.18680  0.55680  0.32150  Biso   1.000  O
  O3       1.0000 0.80170  0.97170  0.58710  Biso   1.000  O
  O4       1.0000 0.86200  0.15800  0.60000  Biso   1.000  O
  O5       1.0000 0.99470  0.23550  0.73030  Biso   1.000  O
  O6       1.0000 0.61800  0.28800  0.63200  Biso   1.000  O
  O7       1.0000 0.52300  0.97920  0.86360  Biso   1.000  O
  O8       1.0000 0.44320  0.81320  0.17850  Biso   1.000  O
  O9       1.0000 0.02830  0.19830  0.91290  Biso   1.000  O
  O10      1.0000 0.84200  0.13800  0.90000  Biso   1.000  O
  O11      1.0000 0.76450  0.00530  0.76970  Biso   1.000  O
  O12      1.0000 0.71200  0.38200  0.86800  Biso   1.000  O
  O13      1.0000 0.97920  0.52300  0.36360  Biso   1.000  O
  O14      1.0000 0.81320  0.44320  0.67850  Biso   1.000  O
  O15      1.0000 0.19830  0.02830  0.41290  Biso   1.000  O
  O16      1.0000 0.13800  0.84200  0.40000  Biso   1.000  O
  O17      1.0000 0.00530  0.76450  0.26970  Biso   1.000  O
  O18      1.0000 0.38200  0.71200  0.36800  Biso   1.000  O
  O19      1.0000 0.47700  0.02080  0.13640  Biso   1.000  O
  O20      1.0000 0.55680  0.18680  0.82150  Biso   1.000  O
  O21      1.0000 0.97170  0.80170  0.08710  Biso   1.000  O
  O22      1.0000 0.15800  0.86200  0.10000  Biso   1.000  O
  O23      1.0000 0.23550  0.99470  0.23030  Biso   1.000  O
  O24      1.0000 0.28800  0.61800  0.13200  Biso   1.000  O
