data_image0
_cell_length_a       8.509
_cell_length_b       17.1579
_cell_length_c       17.1579
_cell_angle_alpha    118.708
_cell_angle_beta     97.4945
_cell_angle_gamma    82.5055

_symmetry_space_group_name_H-M    P 1
_symmetry_int_tables_number       1

loop_
  _symmetry_equiv_pos_as_xyz
  'x, y, z'

loop_
  _atom_site_label
  _atom_site_occupancy
  _atom_site_fract_x
  _atom_site_fract_y
  _atom_site_fract_z
  _atom_site_thermal_displace_type
  _atom_site_B_iso_or_equiv
  _atom_site_type_symbol
  Ce1      1.0000 0.25000  0.99093  0.99093  Biso   1.000  Ce
  Ce2      1.0000 0.75000  0.00907  0.00907  Biso   1.000  Ce
  H1       1.0000 0.86970  0.10350  0.64950  Biso   1.000  H
  H2       1.0000 0.95520  0.80390  0.25010  Biso   1.000  H
  H3       1.0000 0.84300  0.87490  0.25150  Biso   1.000  H
  H4       1.0000 0.81360  0.79530  0.32150  Biso   1.000  H
  H5       1.0000 0.78820  0.89700  0.39260  Biso   1.000  H
  H6       1.0000 0.02510  0.80830  0.51150  Biso   1.000  H
  H7       1.0000 0.83490  0.78740  0.46220  Biso   1.000  H
  H8       1.0000 0.79320  0.94620  0.53980  Biso   1.000  H
  H9       1.0000 0.82600  0.91520  0.59780  Biso   1.000  H
  H10      1.0000 0.07390  0.95820  0.63680  Biso   1.000  H
  H11      1.0000 0.06490  0.99310  0.56590  Biso   1.000  H
  H12      1.0000 0.17120  0.86630  0.20770  Biso   1.000  H
  H13      1.0000 0.23780  0.97060  0.28340  Biso   1.000  H
  H14      1.0000 0.92540  0.94860  0.18340  Biso   1.000  H
  H15      1.0000 0.98830  0.03990  0.25230  Biso   1.000  H
  H16      1.0000 0.11550  0.71960  0.29940  Biso   1.000  H
  H17      1.0000 0.04630  0.69570  0.36230  Biso   1.000  H
  H18      1.0000 0.21140  0.77710  0.47890  Biso   1.000  H
  H19      1.0000 0.33110  0.69240  0.38400  Biso   1.000  H
  H20      1.0000 0.63030  0.64950  0.10350  Biso   1.000  H
  H21      1.0000 0.54480  0.25010  0.80390  Biso   1.000  H
  H22      1.0000 0.65700  0.25150  0.87490  Biso   1.000  H
  H23      1.0000 0.68640  0.32150  0.79530  Biso   1.000  H
  H24      1.0000 0.71180  0.39260  0.89700  Biso   1.000  H
  H25      1.0000 0.47490  0.51150  0.80830  Biso   1.000  H
  H26      1.0000 0.66510  0.46220  0.78740  Biso   1.000  H
  H27      1.0000 0.70680  0.53980  0.94620  Biso   1.000  H
  H28      1.0000 0.67400  0.59780  0.91520  Biso   1.000  H
  H29      1.0000 0.42610  0.63680  0.95820  Biso   1.000  H
  H30      1.0000 0.43510  0.56590  0.99310  Biso   1.000  H
  H31      1.0000 0.32880  0.20770  0.86630  Biso   1.000  H
  H32      1.0000 0.26220  0.28340  0.97060  Biso   1.000  H
  H33      1.0000 0.57460  0.18340  0.94860  Biso   1.000  H
  H34      1.0000 0.51170  0.25230  0.03990  Biso   1.000  H
  H35      1.0000 0.38450  0.29940  0.71960  Biso   1.000  H
  H36      1.0000 0.45370  0.36230  0.69570  Biso   1.000  H
  H37      1.0000 0.28860  0.47890  0.77710  Biso   1.000  H
  H38      1.0000 0.16890  0.38400  0.69240  Biso   1.000  H
  H39      1.0000 0.13030  0.89650  0.35050  Biso   1.000  H
  H40      1.0000 0.04480  0.19610  0.74990  Biso   1.000  H
  H41      1.0000 0.15700  0.12510  0.74850  Biso   1.000  H
  H42      1.0000 0.18640  0.20470  0.67850  Biso   1.000  H
  H43      1.0000 0.21180  0.10300  0.60740  Biso   1.000  H
  H44      1.0000 0.97490  0.19170  0.48850  Biso   1.000  H
  H45      1.0000 0.16510  0.21260  0.53780  Biso   1.000  H
  H46      1.0000 0.20680  0.05380  0.46020  Biso   1.000  H
  H47      1.0000 0.17400  0.08480  0.40220  Biso   1.000  H
  H48      1.0000 0.92610  0.04180  0.36320  Biso   1.000  H
  H49      1.0000 0.93510  0.00690  0.43410  Biso   1.000  H
  H50      1.0000 0.82880  0.13370  0.79230  Biso   1.000  H
  H51      1.0000 0.76220  0.02940  0.71660  Biso   1.000  H
  H52      1.0000 0.07460  0.05140  0.81660  Biso   1.000  H
  H53      1.0000 0.01170  0.96010  0.74770  Biso   1.000  H
  H54      1.0000 0.88450  0.28040  0.70060  Biso   1.000  H
  H55      1.0000 0.95370  0.30430  0.63770  Biso   1.000  H
  H56      1.0000 0.78860  0.22290  0.52110  Biso   1.000  H
  H57      1.0000 0.66890  0.30760  0.61600  Biso   1.000  H
  H58      1.0000 0.36970  0.35050  0.89650  Biso   1.000  H
  H59      1.0000 0.45520  0.74990  0.19610  Biso   1.000  H
  H60      1.0000 0.34300  0.74850  0.12510  Biso   1.000  H
  H61      1.0000 0.31360  0.67850  0.20470  Biso   1.000  H
  H62      1.0000 0.28820  0.60740  0.10300  Biso   1.000  H
  H63      1.0000 0.52510  0.48850  0.19170  Biso   1.000  H
  H64      1.0000 0.33490  0.53780  0.21260  Biso   1.000  H
  H65      1.0000 0.29320  0.46020  0.05380  Biso   1.000  H
  H66      1.0000 0.32600  0.40220  0.08480  Biso   1.000  H
  H67      1.0000 0.57390  0.36320  0.04180  Biso   1.000  H
  H68      1.0000 0.56490  0.43410  0.00690  Biso   1.000  H
  H69      1.0000 0.67120  0.79230  0.13370  Biso   1.000  H
  H70      1.0000 0.73780  0.71660  0.02940  Biso   1.000  H
  H71      1.0000 0.42540  0.81660  0.05140  Biso   1.000  H
  H72      1.0000 0.48830  0.74770  0.96010  Biso   1.000  H
  H73      1.0000 0.61550  0.70060  0.28040  Biso   1.000  H
  H74      1.0000 0.54630  0.63770  0.30430  Biso   1.000  H
  H75      1.0000 0.71140  0.52110  0.22290  Biso   1.000  H
  H76      1.0000 0.83110  0.61600  0.30760  Biso   1.000  H
  C1       1.0000 0.07200  0.13700  0.71500  Biso   1.000  C
  C2       1.0000 0.12800  0.15650  0.64610  Biso   1.000  C
  C3       1.0000 0.06800  0.16940  0.51140  Biso   1.000  C
  C4       1.0000 0.13000  0.07890  0.44310  Biso   1.000  C
  C5       1.0000 0.99600  0.01790  0.39490  Biso   1.000  C
  C6       1.0000 0.86600  0.06790  0.74650  Biso   1.000  C
  C7       1.0000 0.97600  0.02660  0.79540  Biso   1.000  C
  C8       1.0000 0.89610  0.02800  0.86860  Biso   1.000  C
  C9       1.0000 0.10500  0.75180  0.36740  Biso   1.000  C
  C10      1.0000 0.26800  0.75740  0.41840  Biso   1.000  C
  C11      1.0000 0.36600  0.82700  0.42360  Biso   1.000  C
  C12      1.0000 0.42800  0.71500  0.13700  Biso   1.000  C
  C13      1.0000 0.37200  0.64610  0.15650  Biso   1.000  C
  C14      1.0000 0.43200  0.51140  0.16940  Biso   1.000  C
  C15      1.0000 0.37000  0.44310  0.07890  Biso   1.000  C
  C16      1.0000 0.50400  0.39490  0.01790  Biso   1.000  C
  C17      1.0000 0.63400  0.74650  0.06790  Biso   1.000  C
  C18      1.0000 0.52400  0.79540  0.02660  Biso   1.000  C
  C19      1.0000 0.60390  0.86860  0.02800  Biso   1.000  C
  C20      1.0000 0.39500  0.36740  0.75180  Biso   1.000  C
  C21      1.0000 0.23200  0.41840  0.75740  Biso   1.000  C
  C22      1.0000 0.13400  0.42360  0.82700  Biso   1.000  C
  C23      1.0000 0.92800  0.86300  0.28500  Biso   1.000  C
  C24      1.0000 0.87200  0.84350  0.35390  Biso   1.000  C
  C25      1.0000 0.93200  0.83060  0.48860  Biso   1.000  C
  C26      1.0000 0.87000  0.92110  0.55690  Biso   1.000  C
  C27      1.0000 0.00400  0.98210  0.60510  Biso   1.000  C
  C28      1.0000 0.13400  0.93210  0.25350  Biso   1.000  C
  C29      1.0000 0.02400  0.97340  0.20460  Biso   1.000  C
  C30      1.0000 0.10390  0.97200  0.13140  Biso   1.000  C
  C31      1.0000 0.89500  0.24820  0.63260  Biso   1.000  C
  C32      1.0000 0.73200  0.24260  0.58160  Biso   1.000  C
  C33      1.0000 0.63400  0.17300  0.57640  Biso   1.000  C
  C34      1.0000 0.57200  0.28500  0.86300  Biso   1.000  C
  C35      1.0000 0.62800  0.35390  0.84350  Biso   1.000  C
  C36      1.0000 0.56800  0.48860  0.83060  Biso   1.000  C
  C37      1.0000 0.63000  0.55690  0.92110  Biso   1.000  C
  C38      1.0000 0.49600  0.60510  0.98210  Biso   1.000  C
  C39      1.0000 0.36600  0.25350  0.93210  Biso   1.000  C
  C40      1.0000 0.47600  0.20460  0.97340  Biso   1.000  C
  C41      1.0000 0.39610  0.13140  0.97200  Biso   1.000  C
  C42      1.0000 0.60500  0.63260  0.24820  Biso   1.000  C
  C43      1.0000 0.76800  0.58160  0.24260  Biso   1.000  C
  C44      1.0000 0.86600  0.57640  0.17300  Biso   1.000  C
  N1       1.0000 0.94590  0.07150  0.67470  Biso   1.000  N
  N2       1.0000 0.00100  0.16760  0.58660  Biso   1.000  N
  N3       1.0000 0.55410  0.67470  0.07150  Biso   1.000  N
  N4       1.0000 0.49900  0.58660  0.16760  Biso   1.000  N
  N5       1.0000 0.05410  0.92850  0.32530  Biso   1.000  N
  N6       1.0000 0.99900  0.83240  0.41340  Biso   1.000  N
  N7       1.0000 0.44590  0.32530  0.92850  Biso   1.000  N
  N8       1.0000 0.50100  0.41340  0.83240  Biso   1.000  N
  O1       1.0000 0.98510  0.00940  0.92540  Biso   1.000  O
  O2       1.0000 0.24980  0.95790  0.12510  Biso   1.000  O
  O3       1.0000 0.32990  0.86020  0.37200  Biso   1.000  O
  O4       1.0000 0.48600  0.84630  0.47870  Biso   1.000  O
  O5       1.0000 0.68220  0.07790  0.16730  Biso   1.000  O
  O6       1.0000 0.51490  0.92540  0.00940  Biso   1.000  O
  O7       1.0000 0.25020  0.12510  0.95790  Biso   1.000  O
  O8       1.0000 0.17010  0.37200  0.86020  Biso   1.000  O
  O9       1.0000 0.01400  0.47870  0.84630  Biso   1.000  O
  O10      1.0000 0.81780  0.16730  0.07790  Biso   1.000  O
  O11      1.0000 0.01490  0.99060  0.07460  Biso   1.000  O
  O12      1.0000 0.75020  0.04210  0.87490  Biso   1.000  O
  O13      1.0000 0.67010  0.13980  0.62800  Biso   1.000  O
  O14      1.0000 0.51400  0.15370  0.52130  Biso   1.000  O
  O15      1.0000 0.31780  0.92210  0.83270  Biso   1.000  O
  O16      1.0000 0.48510  0.07460  0.99060  Biso   1.000  O
  O17      1.0000 0.74980  0.87490  0.04210  Biso   1.000  O
  O18      1.0000 0.82990  0.62800  0.13980  Biso   1.000  O
  O19      1.0000 0.98600  0.52130  0.15370  Biso   1.000  O
  O20      1.0000 0.18220  0.83270  0.92210  Biso   1.000  O
