data_image0
_cell_length_a       9.4217
_cell_length_b       22.1411
_cell_length_c       26.34
_cell_angle_alpha    90
_cell_angle_beta     90
_cell_angle_gamma    90

_symmetry_space_group_name_H-M    P 1
_symmetry_int_tables_number       1

loop_
  _symmetry_equiv_pos_as_xyz
  'x, y, z'

loop_
  _atom_site_label
  _atom_site_occupancy
  _atom_site_fract_x
  _atom_site_fract_y
  _atom_site_fract_z
  _atom_site_thermal_displace_type
  _atom_site_B_iso_or_equiv
  _atom_site_type_symbol
  Er1      1.0000 0.75000  0.00000  0.48619  Biso   1.000  Er
  Er2      1.0000 0.75000  0.50000  0.01381  Biso   1.000  Er
  Er3      1.0000 0.25000  0.00000  0.51381  Biso   1.000  Er
  Er4      1.0000 0.25000  0.50000  0.98619  Biso   1.000  Er
  H1       1.0000 0.86870  0.89050  0.11120  Biso   1.000  H
  H2       1.0000 0.91120  0.81310  0.04460  Biso   1.000  H
  H3       1.0000 0.86070  0.80650  0.84320  Biso   1.000  H
  H4       1.0000 0.81520  0.88200  0.77690  Biso   1.000  H
  H5       1.0000 0.58560  0.94140  0.14210  Biso   1.000  H
  H6       1.0000 0.58450  0.94390  0.22990  Biso   1.000  H
  H7       1.0000 0.69920  0.75480  0.96950  Biso   1.000  H
  H8       1.0000 0.76220  0.65530  0.98220  Biso   1.000  H
  H9       1.0000 0.15330  0.69280  0.93080  Biso   1.000  H
  H10      1.0000 0.08780  0.79290  0.91630  Biso   1.000  H
  H11      1.0000 0.90920  0.05990  0.74680  Biso   1.000  H
  H12      1.0000 0.90770  0.06050  0.65870  Biso   1.000  H
  H13      1.0000 0.52270  0.03110  0.41880  Biso   1.000  H
  H14      1.0000 0.63050  0.01110  0.38270  Biso   1.000  H
  H15      1.0000 0.63130  0.10950  0.11120  Biso   1.000  H
  H16      1.0000 0.58880  0.18690  0.04460  Biso   1.000  H
  H17      1.0000 0.63930  0.19350  0.84320  Biso   1.000  H
  H18      1.0000 0.68480  0.11800  0.77690  Biso   1.000  H
  H19      1.0000 0.91440  0.05860  0.14210  Biso   1.000  H
  H20      1.0000 0.91550  0.05610  0.22990  Biso   1.000  H
  H21      1.0000 0.80080  0.24520  0.96950  Biso   1.000  H
  H22      1.0000 0.73780  0.34470  0.98220  Biso   1.000  H
  H23      1.0000 0.34670  0.30720  0.93080  Biso   1.000  H
  H24      1.0000 0.41220  0.20710  0.91630  Biso   1.000  H
  H25      1.0000 0.59080  0.94010  0.74680  Biso   1.000  H
  H26      1.0000 0.59230  0.93950  0.65870  Biso   1.000  H
  H27      1.0000 0.97730  0.96890  0.41880  Biso   1.000  H
  H28      1.0000 0.86950  0.98890  0.38270  Biso   1.000  H
  H29      1.0000 0.63130  0.39050  0.38880  Biso   1.000  H
  H30      1.0000 0.58880  0.31310  0.45540  Biso   1.000  H
  H31      1.0000 0.63930  0.30650  0.65680  Biso   1.000  H
  H32      1.0000 0.68480  0.38200  0.72310  Biso   1.000  H
  H33      1.0000 0.91440  0.44140  0.35790  Biso   1.000  H
  H34      1.0000 0.91550  0.44390  0.27010  Biso   1.000  H
  H35      1.0000 0.80080  0.25480  0.53050  Biso   1.000  H
  H36      1.0000 0.73780  0.15530  0.51780  Biso   1.000  H
  H37      1.0000 0.34670  0.19280  0.56920  Biso   1.000  H
  H38      1.0000 0.41220  0.29290  0.58370  Biso   1.000  H
  H39      1.0000 0.59080  0.55990  0.75320  Biso   1.000  H
  H40      1.0000 0.59230  0.56050  0.84130  Biso   1.000  H
  H41      1.0000 0.97730  0.53110  0.08120  Biso   1.000  H
  H42      1.0000 0.86950  0.51110  0.11730  Biso   1.000  H
  H43      1.0000 0.86870  0.60950  0.38880  Biso   1.000  H
  H44      1.0000 0.91120  0.68690  0.45540  Biso   1.000  H
  H45      1.0000 0.86070  0.69350  0.65680  Biso   1.000  H
  H46      1.0000 0.81520  0.61800  0.72310  Biso   1.000  H
  H47      1.0000 0.58560  0.55860  0.35790  Biso   1.000  H
  H48      1.0000 0.58450  0.55610  0.27010  Biso   1.000  H
  H49      1.0000 0.69920  0.74520  0.53050  Biso   1.000  H
  H50      1.0000 0.76220  0.84470  0.51780  Biso   1.000  H
  H51      1.0000 0.15330  0.80720  0.56920  Biso   1.000  H
  H52      1.0000 0.08780  0.70710  0.58370  Biso   1.000  H
  H53      1.0000 0.90920  0.44010  0.75320  Biso   1.000  H
  H54      1.0000 0.90770  0.43950  0.84130  Biso   1.000  H
  H55      1.0000 0.52270  0.46890  0.08120  Biso   1.000  H
  H56      1.0000 0.63050  0.48890  0.11730  Biso   1.000  H
  H57      1.0000 0.13130  0.10950  0.88880  Biso   1.000  H
  H58      1.0000 0.08880  0.18690  0.95540  Biso   1.000  H
  H59      1.0000 0.13930  0.19350  0.15680  Biso   1.000  H
  H60      1.0000 0.18480  0.11800  0.22310  Biso   1.000  H
  H61      1.0000 0.41440  0.05860  0.85790  Biso   1.000  H
  H62      1.0000 0.41550  0.05610  0.77010  Biso   1.000  H
  H63      1.0000 0.30080  0.24520  0.03050  Biso   1.000  H
  H64      1.0000 0.23780  0.34470  0.01780  Biso   1.000  H
  H65      1.0000 0.84670  0.30720  0.06920  Biso   1.000  H
  H66      1.0000 0.91220  0.20710  0.08370  Biso   1.000  H
  H67      1.0000 0.09080  0.94010  0.25320  Biso   1.000  H
  H68      1.0000 0.09230  0.93950  0.34130  Biso   1.000  H
  H69      1.0000 0.47730  0.96890  0.58120  Biso   1.000  H
  H70      1.0000 0.36950  0.98890  0.61730  Biso   1.000  H
  H71      1.0000 0.36870  0.89050  0.88880  Biso   1.000  H
  H72      1.0000 0.41120  0.81310  0.95540  Biso   1.000  H
  H73      1.0000 0.36070  0.80650  0.15680  Biso   1.000  H
  H74      1.0000 0.31520  0.88200  0.22310  Biso   1.000  H
  H75      1.0000 0.08560  0.94140  0.85790  Biso   1.000  H
  H76      1.0000 0.08450  0.94390  0.77010  Biso   1.000  H
  H77      1.0000 0.19920  0.75480  0.03050  Biso   1.000  H
  H78      1.0000 0.26220  0.65530  0.01780  Biso   1.000  H
  H79      1.0000 0.65330  0.69280  0.06920  Biso   1.000  H
  H80      1.0000 0.58780  0.79290  0.08370  Biso   1.000  H
  H81      1.0000 0.40920  0.05990  0.25320  Biso   1.000  H
  H82      1.0000 0.40770  0.06050  0.34130  Biso   1.000  H
  H83      1.0000 0.02270  0.03110  0.58120  Biso   1.000  H
  H84      1.0000 0.13050  0.01110  0.61730  Biso   1.000  H
  H85      1.0000 0.36870  0.60950  0.61120  Biso   1.000  H
  H86      1.0000 0.41120  0.68690  0.54460  Biso   1.000  H
  H87      1.0000 0.36070  0.69350  0.34320  Biso   1.000  H
  H88      1.0000 0.31520  0.61800  0.27690  Biso   1.000  H
  H89      1.0000 0.08560  0.55860  0.64210  Biso   1.000  H
  H90      1.0000 0.08450  0.55610  0.72990  Biso   1.000  H
  H91      1.0000 0.19920  0.74520  0.46950  Biso   1.000  H
  H92      1.0000 0.26220  0.84470  0.48220  Biso   1.000  H
  H93      1.0000 0.65330  0.80720  0.43080  Biso   1.000  H
  H94      1.0000 0.58780  0.70710  0.41630  Biso   1.000  H
  H95      1.0000 0.40920  0.44010  0.24680  Biso   1.000  H
  H96      1.0000 0.40770  0.43950  0.15870  Biso   1.000  H
  H97      1.0000 0.02270  0.46890  0.91880  Biso   1.000  H
  H98      1.0000 0.13050  0.48890  0.88270  Biso   1.000  H
  H99      1.0000 0.13130  0.39050  0.61120  Biso   1.000  H
  H100     1.0000 0.08880  0.31310  0.54460  Biso   1.000  H
  H101     1.0000 0.13930  0.30650  0.34320  Biso   1.000  H
  H102     1.0000 0.18480  0.38200  0.27690  Biso   1.000  H
  H103     1.0000 0.41440  0.44140  0.64210  Biso   1.000  H
  H104     1.0000 0.41550  0.44390  0.72990  Biso   1.000  H
  H105     1.0000 0.30080  0.25480  0.46950  Biso   1.000  H
  H106     1.0000 0.23780  0.15530  0.48220  Biso   1.000  H
  H107     1.0000 0.84670  0.19280  0.43080  Biso   1.000  H
  H108     1.0000 0.91220  0.29290  0.41630  Biso   1.000  H
  H109     1.0000 0.09080  0.55990  0.24680  Biso   1.000  H
  H110     1.0000 0.09230  0.56050  0.15870  Biso   1.000  H
  H111     1.0000 0.47730  0.53110  0.91880  Biso   1.000  H
  H112     1.0000 0.36950  0.51110  0.88270  Biso   1.000  H
  C1       1.0000 0.79490  0.94710  0.05128  Biso   1.000  C
  C2       1.0000 0.85180  0.89500  0.07586  Biso   1.000  C
  C3       1.0000 0.87720  0.85310  0.03948  Biso   1.000  C
  C4       1.0000 0.84280  0.88070  0.99167  Biso   1.000  C
  C5       1.0000 0.85060  0.85066  0.94448  Biso   1.000  C
  C6       1.0000 0.82370  0.87770  0.89722  Biso   1.000  C
  C7       1.0000 0.83750  0.84780  0.84855  Biso   1.000  C
  C8       1.0000 0.81180  0.88880  0.81251  Biso   1.000  C
  C9       1.0000 0.77770  0.94540  0.83731  Biso   1.000  C
  C10      1.0000 0.65270  0.96570  0.15960  Biso   1.000  C
  C11      1.0000 0.65330  0.96680  0.21190  Biso   1.000  C
  C12      1.0000 0.88850  0.78640  0.94590  Biso   1.000  C
  C13      1.0000 0.79410  0.74290  0.96250  Biso   1.000  C
  C14      1.0000 0.83020  0.68320  0.96960  Biso   1.000  C
  C15      1.0000 0.96490  0.66450  0.95836  Biso   1.000  C
  C16      1.0000 0.05990  0.70560  0.93910  Biso   1.000  C
  C17      1.0000 0.02210  0.76580  0.93140  Biso   1.000  C
  C18      1.0000 0.01110  0.60180  0.97050  Biso   1.000  C
  C19      1.0000 0.84330  0.03520  0.72907  Biso   1.000  C
  C20      1.0000 0.84280  0.03550  0.67655  Biso   1.000  C
  C21      1.0000 0.70510  0.05290  0.05128  Biso   1.000  C
  C22      1.0000 0.64820  0.10500  0.07586  Biso   1.000  C
  C23      1.0000 0.62280  0.14690  0.03948  Biso   1.000  C
  C24      1.0000 0.65720  0.11930  0.99167  Biso   1.000  C
  C25      1.0000 0.64940  0.14934  0.94448  Biso   1.000  C
  C26      1.0000 0.67630  0.12230  0.89722  Biso   1.000  C
  C27      1.0000 0.66250  0.15220  0.84855  Biso   1.000  C
  C28      1.0000 0.68820  0.11120  0.81251  Biso   1.000  C
  C29      1.0000 0.72230  0.05460  0.83731  Biso   1.000  C
  C30      1.0000 0.84730  0.03430  0.15960  Biso   1.000  C
  C31      1.0000 0.84670  0.03320  0.21190  Biso   1.000  C
  C32      1.0000 0.61150  0.21360  0.94590  Biso   1.000  C
  C33      1.0000 0.70590  0.25710  0.96250  Biso   1.000  C
  C34      1.0000 0.66980  0.31680  0.96960  Biso   1.000  C
  C35      1.0000 0.53510  0.33550  0.95836  Biso   1.000  C
  C36      1.0000 0.44010  0.29440  0.93910  Biso   1.000  C
  C37      1.0000 0.47790  0.23420  0.93140  Biso   1.000  C
  C38      1.0000 0.48890  0.39820  0.97050  Biso   1.000  C
  C39      1.0000 0.65670  0.96480  0.72907  Biso   1.000  C
  C40      1.0000 0.65720  0.96450  0.67655  Biso   1.000  C
  C41      1.0000 0.70510  0.44710  0.44872  Biso   1.000  C
  C42      1.0000 0.64820  0.39500  0.42414  Biso   1.000  C
  C43      1.0000 0.62280  0.35310  0.46052  Biso   1.000  C
  C44      1.0000 0.65720  0.38070  0.50833  Biso   1.000  C
  C45      1.0000 0.64940  0.35066  0.55552  Biso   1.000  C
  C46      1.0000 0.67630  0.37770  0.60278  Biso   1.000  C
  C47      1.0000 0.66250  0.34780  0.65145  Biso   1.000  C
  C48      1.0000 0.68820  0.38880  0.68749  Biso   1.000  C
  C49      1.0000 0.72230  0.44540  0.66269  Biso   1.000  C
  C50      1.0000 0.84730  0.46570  0.34040  Biso   1.000  C
  C51      1.0000 0.84670  0.46680  0.28810  Biso   1.000  C
  C52      1.0000 0.61150  0.28640  0.55410  Biso   1.000  C
  C53      1.0000 0.70590  0.24290  0.53750  Biso   1.000  C
  C54      1.0000 0.66980  0.18320  0.53040  Biso   1.000  C
  C55      1.0000 0.53510  0.16450  0.54164  Biso   1.000  C
  C56      1.0000 0.44010  0.20560  0.56090  Biso   1.000  C
  C57      1.0000 0.47790  0.26580  0.56860  Biso   1.000  C
  C58      1.0000 0.48890  0.10180  0.52950  Biso   1.000  C
  C59      1.0000 0.65670  0.53520  0.77093  Biso   1.000  C
  C60      1.0000 0.65720  0.53550  0.82345  Biso   1.000  C
  C61      1.0000 0.79490  0.55290  0.44872  Biso   1.000  C
  C62      1.0000 0.85180  0.60500  0.42414  Biso   1.000  C
  C63      1.0000 0.87720  0.64690  0.46052  Biso   1.000  C
  C64      1.0000 0.84280  0.61930  0.50833  Biso   1.000  C
  C65      1.0000 0.85060  0.64934  0.55552  Biso   1.000  C
  C66      1.0000 0.82370  0.62230  0.60278  Biso   1.000  C
  C67      1.0000 0.83750  0.65220  0.65145  Biso   1.000  C
  C68      1.0000 0.81180  0.61120  0.68749  Biso   1.000  C
  C69      1.0000 0.77770  0.55460  0.66269  Biso   1.000  C
  C70      1.0000 0.65270  0.53430  0.34040  Biso   1.000  C
  C71      1.0000 0.65330  0.53320  0.28810  Biso   1.000  C
  C72      1.0000 0.88850  0.71360  0.55410  Biso   1.000  C
  C73      1.0000 0.79410  0.75710  0.53750  Biso   1.000  C
  C74      1.0000 0.83020  0.81680  0.53040  Biso   1.000  C
  C75      1.0000 0.96490  0.83550  0.54164  Biso   1.000  C
  C76      1.0000 0.05990  0.79440  0.56090  Biso   1.000  C
  C77      1.0000 0.02210  0.73420  0.56860  Biso   1.000  C
  C78      1.0000 0.01110  0.89820  0.52950  Biso   1.000  C
  C79      1.0000 0.84330  0.46480  0.77093  Biso   1.000  C
  C80      1.0000 0.84280  0.46450  0.82345  Biso   1.000  C
  C81      1.0000 0.20510  0.05290  0.94872  Biso   1.000  C
  C82      1.0000 0.14820  0.10500  0.92414  Biso   1.000  C
  C83      1.0000 0.12280  0.14690  0.96052  Biso   1.000  C
  C84      1.0000 0.15720  0.11930  0.00833  Biso   1.000  C
  C85      1.0000 0.14940  0.14934  0.05552  Biso   1.000  C
  C86      1.0000 0.17630  0.12230  0.10278  Biso   1.000  C
  C87      1.0000 0.16250  0.15220  0.15145  Biso   1.000  C
  C88      1.0000 0.18820  0.11120  0.18749  Biso   1.000  C
  C89      1.0000 0.22230  0.05460  0.16269  Biso   1.000  C
  C90      1.0000 0.34730  0.03430  0.84040  Biso   1.000  C
  C91      1.0000 0.34670  0.03320  0.78810  Biso   1.000  C
  C92      1.0000 0.11150  0.21360  0.05410  Biso   1.000  C
  C93      1.0000 0.20590  0.25710  0.03750  Biso   1.000  C
  C94      1.0000 0.16980  0.31680  0.03040  Biso   1.000  C
  C95      1.0000 0.03510  0.33550  0.04164  Biso   1.000  C
  C96      1.0000 0.94010  0.29440  0.06090  Biso   1.000  C
  C97      1.0000 0.97790  0.23420  0.06860  Biso   1.000  C
  C98      1.0000 0.98890  0.39820  0.02950  Biso   1.000  C
  C99      1.0000 0.15670  0.96480  0.27093  Biso   1.000  C
  C100     1.0000 0.15720  0.96450  0.32345  Biso   1.000  C
  C101     1.0000 0.29490  0.94710  0.94872  Biso   1.000  C
  C102     1.0000 0.35180  0.89500  0.92414  Biso   1.000  C
  C103     1.0000 0.37720  0.85310  0.96052  Biso   1.000  C
  C104     1.0000 0.34280  0.88070  0.00833  Biso   1.000  C
  C105     1.0000 0.35060  0.85066  0.05552  Biso   1.000  C
  C106     1.0000 0.32370  0.87770  0.10278  Biso   1.000  C
  C107     1.0000 0.33750  0.84780  0.15145  Biso   1.000  C
  C108     1.0000 0.31180  0.88880  0.18749  Biso   1.000  C
  C109     1.0000 0.27770  0.94540  0.16269  Biso   1.000  C
  C110     1.0000 0.15270  0.96570  0.84040  Biso   1.000  C
  C111     1.0000 0.15330  0.96680  0.78810  Biso   1.000  C
  C112     1.0000 0.38850  0.78640  0.05410  Biso   1.000  C
  C113     1.0000 0.29410  0.74290  0.03750  Biso   1.000  C
  C114     1.0000 0.33020  0.68320  0.03040  Biso   1.000  C
  C115     1.0000 0.46490  0.66450  0.04164  Biso   1.000  C
  C116     1.0000 0.55990  0.70560  0.06090  Biso   1.000  C
  C117     1.0000 0.52210  0.76580  0.06860  Biso   1.000  C
  C118     1.0000 0.51110  0.60180  0.02950  Biso   1.000  C
  C119     1.0000 0.34330  0.03520  0.27093  Biso   1.000  C
  C120     1.0000 0.34280  0.03550  0.32345  Biso   1.000  C
  C121     1.0000 0.29490  0.55290  0.55128  Biso   1.000  C
  C122     1.0000 0.35180  0.60500  0.57586  Biso   1.000  C
  C123     1.0000 0.37720  0.64690  0.53948  Biso   1.000  C
  C124     1.0000 0.34280  0.61930  0.49167  Biso   1.000  C
  C125     1.0000 0.35060  0.64934  0.44448  Biso   1.000  C
  C126     1.0000 0.32370  0.62230  0.39722  Biso   1.000  C
  C127     1.0000 0.33750  0.65220  0.34855  Biso   1.000  C
  C128     1.0000 0.31180  0.61120  0.31251  Biso   1.000  C
  C129     1.0000 0.27770  0.55460  0.33731  Biso   1.000  C
  C130     1.0000 0.15270  0.53430  0.65960  Biso   1.000  C
  C131     1.0000 0.15330  0.53320  0.71190  Biso   1.000  C
  C132     1.0000 0.38850  0.71360  0.44590  Biso   1.000  C
  C133     1.0000 0.29410  0.75710  0.46250  Biso   1.000  C
  C134     1.0000 0.33020  0.81680  0.46960  Biso   1.000  C
  C135     1.0000 0.46490  0.83550  0.45836  Biso   1.000  C
  C136     1.0000 0.55990  0.79440  0.43910  Biso   1.000  C
  C137     1.0000 0.52210  0.73420  0.43140  Biso   1.000  C
  C138     1.0000 0.51110  0.89820  0.47050  Biso   1.000  C
  C139     1.0000 0.34330  0.46480  0.22907  Biso   1.000  C
  C140     1.0000 0.34280  0.46450  0.17655  Biso   1.000  C
  C141     1.0000 0.20510  0.44710  0.55128  Biso   1.000  C
  C142     1.0000 0.14820  0.39500  0.57586  Biso   1.000  C
  C143     1.0000 0.12280  0.35310  0.53948  Biso   1.000  C
  C144     1.0000 0.15720  0.38070  0.49167  Biso   1.000  C
  C145     1.0000 0.14940  0.35066  0.44448  Biso   1.000  C
  C146     1.0000 0.17630  0.37770  0.39722  Biso   1.000  C
  C147     1.0000 0.16250  0.34780  0.34855  Biso   1.000  C
  C148     1.0000 0.18820  0.38880  0.31251  Biso   1.000  C
  C149     1.0000 0.22230  0.44540  0.33731  Biso   1.000  C
  C150     1.0000 0.34730  0.46570  0.65960  Biso   1.000  C
  C151     1.0000 0.34670  0.46680  0.71190  Biso   1.000  C
  C152     1.0000 0.11150  0.28640  0.44590  Biso   1.000  C
  C153     1.0000 0.20590  0.24290  0.46250  Biso   1.000  C
  C154     1.0000 0.16980  0.18320  0.46960  Biso   1.000  C
  C155     1.0000 0.03510  0.16450  0.45836  Biso   1.000  C
  C156     1.0000 0.94010  0.20560  0.43910  Biso   1.000  C
  C157     1.0000 0.97790  0.26580  0.43140  Biso   1.000  C
  C158     1.0000 0.98890  0.10180  0.47050  Biso   1.000  C
  C159     1.0000 0.15670  0.53520  0.22907  Biso   1.000  C
  C160     1.0000 0.15720  0.53550  0.17655  Biso   1.000  C
  C161     1.0000 0.75000  0.00000  0.07620  Biso   1.000  C
  C162     1.0000 0.75000  0.00000  0.81270  Biso   1.000  C
  C163     1.0000 0.75000  0.00000  0.13250  Biso   1.000  C
  C164     1.0000 0.75000  0.00000  0.23860  Biso   1.000  C
  C165     1.0000 0.75000  0.00000  0.29740  Biso   1.000  C
  C166     1.0000 0.75000  0.00000  0.75590  Biso   1.000  C
  C167     1.0000 0.75000  0.00000  0.65000  Biso   1.000  C
  C168     1.0000 0.75000  0.00000  0.59291  Biso   1.000  C
  C169     1.0000 0.75000  0.50000  0.42380  Biso   1.000  C
  C170     1.0000 0.75000  0.50000  0.68730  Biso   1.000  C
  C171     1.0000 0.75000  0.50000  0.36750  Biso   1.000  C
  C172     1.0000 0.75000  0.50000  0.26140  Biso   1.000  C
  C173     1.0000 0.75000  0.50000  0.20260  Biso   1.000  C
  C174     1.0000 0.75000  0.50000  0.74410  Biso   1.000  C
  C175     1.0000 0.75000  0.50000  0.85000  Biso   1.000  C
  C176     1.0000 0.75000  0.50000  0.90709  Biso   1.000  C
  C177     1.0000 0.25000  0.00000  0.92380  Biso   1.000  C
  C178     1.0000 0.25000  0.00000  0.18730  Biso   1.000  C
  C179     1.0000 0.25000  0.00000  0.86750  Biso   1.000  C
  C180     1.0000 0.25000  0.00000  0.76140  Biso   1.000  C
  C181     1.0000 0.25000  0.00000  0.70260  Biso   1.000  C
  C182     1.0000 0.25000  0.00000  0.24410  Biso   1.000  C
  C183     1.0000 0.25000  0.00000  0.35000  Biso   1.000  C
  C184     1.0000 0.25000  0.00000  0.40709  Biso   1.000  C
  C185     1.0000 0.25000  0.50000  0.57620  Biso   1.000  C
  C186     1.0000 0.25000  0.50000  0.31270  Biso   1.000  C
  C187     1.0000 0.25000  0.50000  0.63250  Biso   1.000  C
  C188     1.0000 0.25000  0.50000  0.73860  Biso   1.000  C
  C189     1.0000 0.25000  0.50000  0.79740  Biso   1.000  C
  C190     1.0000 0.25000  0.50000  0.25590  Biso   1.000  C
  C191     1.0000 0.25000  0.50000  0.15000  Biso   1.000  C
  C192     1.0000 0.25000  0.50000  0.09291  Biso   1.000  C
  N1       1.0000 0.79130  0.93775  0.99982  Biso   1.000  N
  N2       1.0000 0.78690  0.93671  0.88881  Biso   1.000  N
  N3       1.0000 0.70870  0.06225  0.99982  Biso   1.000  N
  N4       1.0000 0.71310  0.06329  0.88881  Biso   1.000  N
  N5       1.0000 0.70870  0.43775  0.50018  Biso   1.000  N
  N6       1.0000 0.71310  0.43671  0.61119  Biso   1.000  N
  N7       1.0000 0.79130  0.56225  0.50018  Biso   1.000  N
  N8       1.0000 0.78690  0.56329  0.61119  Biso   1.000  N
  N9       1.0000 0.20870  0.06225  0.00018  Biso   1.000  N
  N10      1.0000 0.21310  0.06329  0.11119  Biso   1.000  N
  N11      1.0000 0.29130  0.93775  0.00018  Biso   1.000  N
  N12      1.0000 0.28690  0.93671  0.11119  Biso   1.000  N
  N13      1.0000 0.29130  0.56225  0.49982  Biso   1.000  N
  N14      1.0000 0.28690  0.56329  0.38881  Biso   1.000  N
  N15      1.0000 0.20870  0.43775  0.49982  Biso   1.000  N
  N16      1.0000 0.21310  0.43671  0.38881  Biso   1.000  N
  O1       1.0000 0.84250  0.02960  0.31921  Biso   1.000  O
  O2       1.0000 0.92180  0.56607  0.98915  Biso   1.000  O
  O3       1.0000 0.13710  0.58774  0.96235  Biso   1.000  O
  O4       1.0000 0.83390  0.03485  0.56916  Biso   1.000  O
  O5       1.0000 0.61780  0.02934  0.41298  Biso   1.000  O
  O6       1.0000 0.65750  0.97040  0.31921  Biso   1.000  O
  O7       1.0000 0.57820  0.43393  0.98915  Biso   1.000  O
  O8       1.0000 0.36290  0.41226  0.96235  Biso   1.000  O
  O9       1.0000 0.66610  0.96515  0.56916  Biso   1.000  O
  O10      1.0000 0.88220  0.97066  0.41298  Biso   1.000  O
  O11      1.0000 0.65750  0.52960  0.18079  Biso   1.000  O
  O12      1.0000 0.57820  0.06607  0.51085  Biso   1.000  O
  O13      1.0000 0.36290  0.08774  0.53765  Biso   1.000  O
  O14      1.0000 0.66610  0.53485  0.93084  Biso   1.000  O
  O15      1.0000 0.88220  0.52934  0.08702  Biso   1.000  O
  O16      1.0000 0.84250  0.47040  0.18079  Biso   1.000  O
  O17      1.0000 0.92180  0.93393  0.51085  Biso   1.000  O
  O18      1.0000 0.13710  0.91226  0.53765  Biso   1.000  O
  O19      1.0000 0.83390  0.46515  0.93084  Biso   1.000  O
  O20      1.0000 0.61780  0.47066  0.08702  Biso   1.000  O
  O21      1.0000 0.15750  0.97040  0.68079  Biso   1.000  O
  O22      1.0000 0.07820  0.43393  0.01085  Biso   1.000  O
  O23      1.0000 0.86290  0.41226  0.03765  Biso   1.000  O
  O24      1.0000 0.16610  0.96515  0.43084  Biso   1.000  O
  O25      1.0000 0.38220  0.97066  0.58702  Biso   1.000  O
  O26      1.0000 0.34250  0.02960  0.68079  Biso   1.000  O
  O27      1.0000 0.42180  0.56607  0.01085  Biso   1.000  O
  O28      1.0000 0.63710  0.58774  0.03765  Biso   1.000  O
  O29      1.0000 0.33390  0.03485  0.43084  Biso   1.000  O
  O30      1.0000 0.11780  0.02934  0.58702  Biso   1.000  O
  O31      1.0000 0.34250  0.47040  0.81921  Biso   1.000  O
  O32      1.0000 0.42180  0.93393  0.48915  Biso   1.000  O
  O33      1.0000 0.63710  0.91226  0.46235  Biso   1.000  O
  O34      1.0000 0.33390  0.46515  0.06916  Biso   1.000  O
  O35      1.0000 0.11780  0.47066  0.91298  Biso   1.000  O
  O36      1.0000 0.15750  0.52960  0.81921  Biso   1.000  O
  O37      1.0000 0.07820  0.06607  0.48915  Biso   1.000  O
  O38      1.0000 0.86290  0.08774  0.46235  Biso   1.000  O
  O39      1.0000 0.16610  0.53485  0.06916  Biso   1.000  O
  O40      1.0000 0.38220  0.52934  0.91298  Biso   1.000  O
