data_image0
_cell_length_a       16.1596
_cell_length_b       16.1596
_cell_length_c       31.2327
_cell_angle_alpha    99.955
_cell_angle_beta     99.955
_cell_angle_gamma    96.3144

_symmetry_space_group_name_H-M    P 1
_symmetry_int_tables_number       1

loop_
  _symmetry_equiv_pos_as_xyz
  'x, y, z'

loop_
  _atom_site_label
  _atom_site_occupancy
  _atom_site_fract_x
  _atom_site_fract_y
  _atom_site_fract_z
  _atom_site_thermal_displace_type
  _atom_site_B_iso_or_equiv
  _atom_site_type_symbol
  Sm1      1.0000 0.31521  0.85602  0.80073  Biso   1.000  Sm
  Sm2      1.0000 0.13728  0.51744  0.58687  Biso   1.000  Sm
  Sm3      1.0000 0.14398  0.68479  0.69927  Biso   1.000  Sm
  Sm4      1.0000 0.48256  0.86272  0.91313  Biso   1.000  Sm
  Sm5      1.0000 0.68479  0.14398  0.19927  Biso   1.000  Sm
  Sm6      1.0000 0.86272  0.48256  0.41313  Biso   1.000  Sm
  Sm7      1.0000 0.85602  0.31521  0.30073  Biso   1.000  Sm
  Sm8      1.0000 0.51744  0.13728  0.08687  Biso   1.000  Sm
  H1       1.0000 0.52100  0.12920  0.43060  Biso   1.000  H
  H2       1.0000 0.43560  0.18280  0.48420  Biso   1.000  H
  H3       1.0000 0.48630  0.22090  0.66350  Biso   1.000  H
  H4       1.0000 0.54790  0.13610  0.71570  Biso   1.000  H
  H5       1.0000 0.70200  0.85480  0.69420  Biso   1.000  H
  H6       1.0000 0.79050  0.80250  0.64090  Biso   1.000  H
  H7       1.0000 0.86770  0.89490  0.49460  Biso   1.000  H
  H8       1.0000 0.80120  0.97480  0.44080  Biso   1.000  H
  H9       1.0000 0.61040  0.06200  0.54580  Biso   1.000  H
  H10      1.0000 0.67170  0.98630  0.59510  Biso   1.000  H
  H11      1.0000 0.49980  0.31240  0.54730  Biso   1.000  H
  H12      1.0000 0.40350  0.41190  0.55130  Biso   1.000  H
  H13      1.0000 0.25790  0.25670  0.60730  Biso   1.000  H
  H14      1.0000 0.35280  0.15800  0.60130  Biso   1.000  H
  H15      1.0000 0.53310  0.86310  0.69130  Biso   1.000  H
  H16      1.0000 0.49700  0.83100  0.75600  Biso   1.000  H
  H17      1.0000 0.64010  0.05210  0.82480  Biso   1.000  H
  H18      1.0000 0.67380  0.08440  0.75940  Biso   1.000  H
  H19      1.0000 0.95010  0.91610  0.60980  Biso   1.000  H
  H20      1.0000 0.04450  0.81870  0.62210  Biso   1.000  H
  H21      1.0000 0.87460  0.62980  0.54240  Biso   1.000  H
  H22      1.0000 0.78090  0.72550  0.52900  Biso   1.000  H
  H23      1.0000 0.77540  0.16340  0.44690  Biso   1.000  H
  H24      1.0000 0.79040  0.20100  0.37990  Biso   1.000  H
  H25      1.0000 0.59170  0.02070  0.31620  Biso   1.000  H
  H26      1.0000 0.57770  0.98370  0.38340  Biso   1.000  H
  H27      1.0000 0.90530  0.08110  0.83460  Biso   1.000  H
  H28      1.0000 0.81850  0.14090  0.88700  Biso   1.000  H
  H29      1.0000 0.59140  0.35560  0.88610  Biso   1.000  H
  H30      1.0000 0.53600  0.44580  0.83310  Biso   1.000  H
  H31      1.0000 0.02790  0.13550  0.79960  Biso   1.000  H
  H32      1.0000 0.12700  0.04180  0.79830  Biso   1.000  H
  H33      1.0000 0.58540  0.14800  0.87150  Biso   1.000  H
  H34      1.0000 0.55110  0.12390  0.93820  Biso   1.000  H
  H35      1.0000 0.74660  0.29660  0.00450  Biso   1.000  H
  H36      1.0000 0.78460  0.31860  0.93880  Biso   1.000  H
  H37      1.0000 0.60360  0.57840  0.79080  Biso   1.000  H
  H38      1.0000 0.50330  0.67610  0.79040  Biso   1.000  H
  H39      1.0000 0.39620  0.03780  0.76840  Biso   1.000  H
  H40      1.0000 0.40670  0.14690  0.87540  Biso   1.000  H
  H41      1.0000 0.43840  0.23700  0.86460  Biso   1.000  H
  H42      1.0000 0.33940  0.19980  0.85280  Biso   1.000  H
  H43      1.0000 0.43110  0.16450  0.75160  Biso   1.000  H
  H44      1.0000 0.40630  0.24570  0.78120  Biso   1.000  H
  H45      1.0000 0.49880  0.21900  0.79330  Biso   1.000  H
  H46      1.0000 0.06790  0.36870  0.51850  Biso   1.000  H
  H47      1.0000 0.98440  0.40140  0.53890  Biso   1.000  H
  H48      1.0000 0.28630  0.58990  0.65500  Biso   1.000  H
  H49      1.0000 0.28930  0.64270  0.61810  Biso   1.000  H
  H50      1.0000 0.87080  0.47900  0.06940  Biso   1.000  H
  H51      1.0000 0.81720  0.56440  0.01580  Biso   1.000  H
  H52      1.0000 0.77910  0.51370  0.83650  Biso   1.000  H
  H53      1.0000 0.86390  0.45210  0.78430  Biso   1.000  H
  H54      1.0000 0.14520  0.29800  0.80580  Biso   1.000  H
  H55      1.0000 0.19750  0.20950  0.85910  Biso   1.000  H
  H56      1.0000 0.10510  0.13230  0.00540  Biso   1.000  H
  H57      1.0000 0.02520  0.19880  0.05920  Biso   1.000  H
  H58      1.0000 0.93800  0.38960  0.95420  Biso   1.000  H
  H59      1.0000 0.01370  0.32830  0.90490  Biso   1.000  H
  H60      1.0000 0.68760  0.50020  0.95270  Biso   1.000  H
  H61      1.0000 0.58810  0.59650  0.94870  Biso   1.000  H
  H62      1.0000 0.74330  0.74210  0.89270  Biso   1.000  H
  H63      1.0000 0.84200  0.64720  0.89870  Biso   1.000  H
  H64      1.0000 0.13690  0.46690  0.80870  Biso   1.000  H
  H65      1.0000 0.16900  0.50300  0.74400  Biso   1.000  H
  H66      1.0000 0.94790  0.35990  0.67520  Biso   1.000  H
  H67      1.0000 0.91560  0.32620  0.74060  Biso   1.000  H
  H68      1.0000 0.08390  0.04990  0.89020  Biso   1.000  H
  H69      1.0000 0.18130  0.95550  0.87790  Biso   1.000  H
  H70      1.0000 0.37020  0.12540  0.95760  Biso   1.000  H
  H71      1.0000 0.27450  0.21910  0.97100  Biso   1.000  H
  H72      1.0000 0.83660  0.22460  0.05310  Biso   1.000  H
  H73      1.0000 0.79900  0.20960  0.12010  Biso   1.000  H
  H74      1.0000 0.97930  0.40830  0.18380  Biso   1.000  H
  H75      1.0000 0.01630  0.42230  0.11660  Biso   1.000  H
  H76      1.0000 0.91890  0.09470  0.66540  Biso   1.000  H
  H77      1.0000 0.85910  0.18150  0.61300  Biso   1.000  H
  H78      1.0000 0.64440  0.40860  0.61390  Biso   1.000  H
  H79      1.0000 0.55420  0.46400  0.66690  Biso   1.000  H
  H80      1.0000 0.86450  0.97210  0.70040  Biso   1.000  H
  H81      1.0000 0.95820  0.87300  0.70170  Biso   1.000  H
  H82      1.0000 0.85200  0.41460  0.62850  Biso   1.000  H
  H83      1.0000 0.87610  0.44890  0.56180  Biso   1.000  H
  H84      1.0000 0.70340  0.25340  0.49550  Biso   1.000  H
  H85      1.0000 0.68140  0.21540  0.56120  Biso   1.000  H
  H86      1.0000 0.42160  0.39640  0.70920  Biso   1.000  H
  H87      1.0000 0.32390  0.49670  0.70960  Biso   1.000  H
  H88      1.0000 0.96220  0.60380  0.73160  Biso   1.000  H
  H89      1.0000 0.85310  0.59330  0.62460  Biso   1.000  H
  H90      1.0000 0.76300  0.56160  0.63540  Biso   1.000  H
  H91      1.0000 0.80020  0.66060  0.64720  Biso   1.000  H
  H92      1.0000 0.83550  0.56890  0.74840  Biso   1.000  H
  H93      1.0000 0.75430  0.59370  0.71880  Biso   1.000  H
  H94      1.0000 0.78100  0.50120  0.70670  Biso   1.000  H
  H95      1.0000 0.63130  0.93210  0.98150  Biso   1.000  H
  H96      1.0000 0.59860  0.01560  0.96110  Biso   1.000  H
  H97      1.0000 0.41010  0.71370  0.84500  Biso   1.000  H
  H98      1.0000 0.35730  0.71070  0.88190  Biso   1.000  H
  H99      1.0000 0.47900  0.87080  0.56940  Biso   1.000  H
  H100     1.0000 0.56440  0.81720  0.51580  Biso   1.000  H
  H101     1.0000 0.51370  0.77910  0.33650  Biso   1.000  H
  H102     1.0000 0.45210  0.86390  0.28430  Biso   1.000  H
  H103     1.0000 0.29800  0.14520  0.30580  Biso   1.000  H
  H104     1.0000 0.20950  0.19750  0.35910  Biso   1.000  H
  H105     1.0000 0.13230  0.10510  0.50540  Biso   1.000  H
  H106     1.0000 0.19880  0.02520  0.55920  Biso   1.000  H
  H107     1.0000 0.38960  0.93800  0.45420  Biso   1.000  H
  H108     1.0000 0.32830  0.01370  0.40490  Biso   1.000  H
  H109     1.0000 0.50020  0.68760  0.45270  Biso   1.000  H
  H110     1.0000 0.59650  0.58810  0.44870  Biso   1.000  H
  H111     1.0000 0.74210  0.74330  0.39270  Biso   1.000  H
  H112     1.0000 0.64720  0.84200  0.39870  Biso   1.000  H
  H113     1.0000 0.46690  0.13690  0.30870  Biso   1.000  H
  H114     1.0000 0.50300  0.16900  0.24400  Biso   1.000  H
  H115     1.0000 0.35990  0.94790  0.17520  Biso   1.000  H
  H116     1.0000 0.32620  0.91560  0.24060  Biso   1.000  H
  H117     1.0000 0.04990  0.08390  0.39020  Biso   1.000  H
  H118     1.0000 0.95550  0.18130  0.37790  Biso   1.000  H
  H119     1.0000 0.12540  0.37020  0.45760  Biso   1.000  H
  H120     1.0000 0.21910  0.27450  0.47100  Biso   1.000  H
  H121     1.0000 0.22460  0.83660  0.55310  Biso   1.000  H
  H122     1.0000 0.20960  0.79900  0.62010  Biso   1.000  H
  H123     1.0000 0.40830  0.97930  0.68380  Biso   1.000  H
  H124     1.0000 0.42230  0.01630  0.61660  Biso   1.000  H
  H125     1.0000 0.09470  0.91890  0.16540  Biso   1.000  H
  H126     1.0000 0.18150  0.85910  0.11300  Biso   1.000  H
  H127     1.0000 0.40860  0.64440  0.11390  Biso   1.000  H
  H128     1.0000 0.46400  0.55420  0.16690  Biso   1.000  H
  H129     1.0000 0.97210  0.86450  0.20040  Biso   1.000  H
  H130     1.0000 0.87300  0.95820  0.20170  Biso   1.000  H
  H131     1.0000 0.41460  0.85200  0.12850  Biso   1.000  H
  H132     1.0000 0.44890  0.87610  0.06180  Biso   1.000  H
  H133     1.0000 0.25340  0.70340  0.99550  Biso   1.000  H
  H134     1.0000 0.21540  0.68140  0.06120  Biso   1.000  H
  H135     1.0000 0.39640  0.42160  0.20920  Biso   1.000  H
  H136     1.0000 0.49670  0.32390  0.20960  Biso   1.000  H
  H137     1.0000 0.60380  0.96220  0.23160  Biso   1.000  H
  H138     1.0000 0.59330  0.85310  0.12460  Biso   1.000  H
  H139     1.0000 0.56160  0.76300  0.13540  Biso   1.000  H
  H140     1.0000 0.66060  0.80020  0.14720  Biso   1.000  H
  H141     1.0000 0.56890  0.83550  0.24840  Biso   1.000  H
  H142     1.0000 0.59370  0.75430  0.21880  Biso   1.000  H
  H143     1.0000 0.50120  0.78100  0.20670  Biso   1.000  H
  H144     1.0000 0.93210  0.63130  0.48150  Biso   1.000  H
  H145     1.0000 0.01560  0.59860  0.46110  Biso   1.000  H
  H146     1.0000 0.71370  0.41010  0.34500  Biso   1.000  H
  H147     1.0000 0.71070  0.35730  0.38190  Biso   1.000  H
  H148     1.0000 0.12920  0.52100  0.93060  Biso   1.000  H
  H149     1.0000 0.18280  0.43560  0.98420  Biso   1.000  H
  H150     1.0000 0.22090  0.48630  0.16350  Biso   1.000  H
  H151     1.0000 0.13610  0.54790  0.21570  Biso   1.000  H
  H152     1.0000 0.85480  0.70200  0.19420  Biso   1.000  H
  H153     1.0000 0.80250  0.79050  0.14090  Biso   1.000  H
  H154     1.0000 0.89490  0.86770  0.99460  Biso   1.000  H
  H155     1.0000 0.97480  0.80120  0.94080  Biso   1.000  H
  H156     1.0000 0.06200  0.61040  0.04580  Biso   1.000  H
  H157     1.0000 0.98630  0.67170  0.09510  Biso   1.000  H
  H158     1.0000 0.31240  0.49980  0.04730  Biso   1.000  H
  H159     1.0000 0.41190  0.40350  0.05130  Biso   1.000  H
  H160     1.0000 0.25670  0.25790  0.10730  Biso   1.000  H
  H161     1.0000 0.15800  0.35280  0.10130  Biso   1.000  H
  H162     1.0000 0.86310  0.53310  0.19130  Biso   1.000  H
  H163     1.0000 0.83100  0.49700  0.25600  Biso   1.000  H
  H164     1.0000 0.05210  0.64010  0.32480  Biso   1.000  H
  H165     1.0000 0.08440  0.67380  0.25940  Biso   1.000  H
  H166     1.0000 0.91610  0.95010  0.10980  Biso   1.000  H
  H167     1.0000 0.81870  0.04450  0.12210  Biso   1.000  H
  H168     1.0000 0.62980  0.87460  0.04240  Biso   1.000  H
  H169     1.0000 0.72550  0.78090  0.02900  Biso   1.000  H
  H170     1.0000 0.16340  0.77540  0.94690  Biso   1.000  H
  H171     1.0000 0.20100  0.79040  0.87990  Biso   1.000  H
  H172     1.0000 0.02070  0.59170  0.81620  Biso   1.000  H
  H173     1.0000 0.98370  0.57770  0.88340  Biso   1.000  H
  H174     1.0000 0.08110  0.90530  0.33460  Biso   1.000  H
  H175     1.0000 0.14090  0.81850  0.38700  Biso   1.000  H
  H176     1.0000 0.35560  0.59140  0.38610  Biso   1.000  H
  H177     1.0000 0.44580  0.53600  0.33310  Biso   1.000  H
  H178     1.0000 0.13550  0.02790  0.29960  Biso   1.000  H
  H179     1.0000 0.04180  0.12700  0.29830  Biso   1.000  H
  H180     1.0000 0.14800  0.58540  0.37150  Biso   1.000  H
  H181     1.0000 0.12390  0.55110  0.43820  Biso   1.000  H
  H182     1.0000 0.29660  0.74660  0.50450  Biso   1.000  H
  H183     1.0000 0.31860  0.78460  0.43880  Biso   1.000  H
  H184     1.0000 0.57840  0.60360  0.29080  Biso   1.000  H
  H185     1.0000 0.67610  0.50330  0.29040  Biso   1.000  H
  H186     1.0000 0.03780  0.39620  0.26840  Biso   1.000  H
  H187     1.0000 0.14690  0.40670  0.37540  Biso   1.000  H
  H188     1.0000 0.23700  0.43840  0.36460  Biso   1.000  H
  H189     1.0000 0.19980  0.33940  0.35280  Biso   1.000  H
  H190     1.0000 0.16450  0.43110  0.25160  Biso   1.000  H
  H191     1.0000 0.24570  0.40630  0.28120  Biso   1.000  H
  H192     1.0000 0.21900  0.49880  0.29330  Biso   1.000  H
  H193     1.0000 0.36870  0.06790  0.01850  Biso   1.000  H
  H194     1.0000 0.40140  0.98440  0.03890  Biso   1.000  H
  H195     1.0000 0.58990  0.28630  0.15500  Biso   1.000  H
  H196     1.0000 0.64270  0.28930  0.11810  Biso   1.000  H
  C1       1.0000 0.59210  0.08250  0.48330  Biso   1.000  C
  C2       1.0000 0.52890  0.12390  0.46090  Biso   1.000  C
  C3       1.0000 0.48310  0.15370  0.49000  Biso   1.000  C
  C4       1.0000 0.51860  0.13380  0.53210  Biso   1.000  C
  C5       1.0000 0.49840  0.16460  0.57300  Biso   1.000  C
  C6       1.0000 0.53230  0.14110  0.61310  Biso   1.000  C
  C7       1.0000 0.51600  0.17440  0.65650  Biso   1.000  C
  C8       1.0000 0.54960  0.12840  0.68500  Biso   1.000  C
  C9       1.0000 0.58880  0.06520  0.66040  Biso   1.000  C
  C10      1.0000 0.62180  0.99760  0.67519  Biso   1.000  C
  C11      1.0000 0.66870  0.94250  0.65230  Biso   1.000  C
  C12      1.0000 0.70840  0.87520  0.66807  Biso   1.000  C
  C13      1.0000 0.75630  0.84630  0.63895  Biso   1.000  C
  C14      1.0000 0.74520  0.89500  0.60411  Biso   1.000  C
  C15      1.0000 0.78780  0.88740  0.56850  Biso   1.000  C
  C16      1.0000 0.77540  0.93000  0.53310  Biso   1.000  C
  C17      1.0000 0.82080  0.92460  0.49720  Biso   1.000  C
  C18      1.0000 0.78530  0.96870  0.46810  Biso   1.000  C
  C19      1.0000 0.71760  0.00540  0.48657  Biso   1.000  C
  C20      1.0000 0.66030  0.05110  0.46558  Biso   1.000  C
  C21      1.0000 0.43560  0.22580  0.57510  Biso   1.000  C
  C22      1.0000 0.45070  0.30130  0.55940  Biso   1.000  C
  C23      1.0000 0.39320  0.36060  0.56180  Biso   1.000  C
  C24      1.0000 0.31950  0.34330  0.57990  Biso   1.000  C
  C25      1.0000 0.30640  0.26860  0.59480  Biso   1.000  C
  C26      1.0000 0.36390  0.20990  0.59160  Biso   1.000  C
  C27      1.0000 0.25590  0.40510  0.58300  Biso   1.000  C
  C28      1.0000 0.60550  0.97730  0.71861  Biso   1.000  C
  C29      1.0000 0.55370  0.90210  0.71860  Biso   1.000  C
  C30      1.0000 0.53180  0.88280  0.75670  Biso   1.000  C
  C31      1.0000 0.56240  0.94160  0.79699  Biso   1.000  C
  C32      1.0000 0.61670  0.01450  0.79740  Biso   1.000  C
  C33      1.0000 0.63780  0.03340  0.75860  Biso   1.000  C
  C34      1.0000 0.53300  0.92600  0.83786  Biso   1.000  C
  C35      1.0000 0.85420  0.82880  0.57041  Biso   1.000  C
  C36      1.0000 0.93400  0.85780  0.59670  Biso   1.000  C
  C37      1.0000 0.99010  0.79950  0.60370  Biso   1.000  C
  C38      1.0000 0.96870  0.71510  0.58454  Biso   1.000  C
  C39      1.0000 0.88970  0.68790  0.55650  Biso   1.000  C
  C40      1.0000 0.83380  0.74420  0.54900  Biso   1.000  C
  C41      1.0000 0.02670  0.65170  0.59400  Biso   1.000  C
  C42      1.0000 0.67240  0.07060  0.42177  Biso   1.000  C
  C43      1.0000 0.73760  0.13520  0.42040  Biso   1.000  C
  C44      1.0000 0.74650  0.15750  0.38060  Biso   1.000  C
  C45      1.0000 0.69120  0.11620  0.34131  Biso   1.000  C
  C46      1.0000 0.62860  0.05040  0.34270  Biso   1.000  C
  C47      1.0000 0.62030  0.02870  0.38280  Biso   1.000  C
  C48      1.0000 0.69950  0.14170  0.29920  Biso   1.000  C
  C49      1.0000 0.84590  0.15230  0.78952  Biso   1.000  C
  C50      1.0000 0.86580  0.11940  0.82940  Biso   1.000  C
  C51      1.0000 0.81880  0.15240  0.85820  Biso   1.000  C
  C52      1.0000 0.76880  0.20880  0.83698  Biso   1.000  C
  C53      1.0000 0.70860  0.25220  0.85491  Biso   1.000  C
  C54      1.0000 0.66090  0.30730  0.83601  Biso   1.000  C
  C55      1.0000 0.60420  0.35660  0.85770  Biso   1.000  C
  C56      1.0000 0.57310  0.40510  0.82810  Biso   1.000  C
  C57      1.0000 0.60560  0.38420  0.78870  Biso   1.000  C
  C58      1.0000 0.01440  0.08280  0.77910  Biso   1.000  C
  C59      1.0000 0.07310  0.02690  0.77900  Biso   1.000  C
  C60      1.0000 0.68990  0.23610  0.89880  Biso   1.000  C
  C61      1.0000 0.61930  0.17830  0.89880  Biso   1.000  C
  C62      1.0000 0.59820  0.16480  0.93850  Biso   1.000  C
  C63      1.0000 0.64580  0.21100  0.97860  Biso   1.000  C
  C64      1.0000 0.71300  0.26560  0.97730  Biso   1.000  C
  C65      1.0000 0.73620  0.27900  0.93810  Biso   1.000  C
  C66      1.0000 0.63400  0.21160  0.02470  Biso   1.000  C
  C67      1.0000 0.54720  0.56140  0.77440  Biso   1.000  C
  C68      1.0000 0.48680  0.61960  0.77390  Biso   1.000  C
  C69      1.0000 0.38820  0.06100  0.79720  Biso   1.000  C
  C70      1.0000 0.39700  0.18520  0.85450  Biso   1.000  C
  C71      1.0000 0.43840  0.19760  0.78180  Biso   1.000  C
  C72      1.0000 0.91750  0.40790  0.01670  Biso   1.000  C
  C73      1.0000 0.87610  0.47110  0.03910  Biso   1.000  C
  C74      1.0000 0.84630  0.51690  0.01000  Biso   1.000  C
  C75      1.0000 0.86620  0.48140  0.96790  Biso   1.000  C
  C76      1.0000 0.83540  0.50160  0.92700  Biso   1.000  C
  C77      1.0000 0.85890  0.46770  0.88690  Biso   1.000  C
  C78      1.0000 0.82560  0.48400  0.84350  Biso   1.000  C
  C79      1.0000 0.87160  0.45040  0.81500  Biso   1.000  C
  C80      1.0000 0.93480  0.41120  0.83960  Biso   1.000  C
  C81      1.0000 0.00240  0.37820  0.82481  Biso   1.000  C
  C82      1.0000 0.05750  0.33130  0.84770  Biso   1.000  C
  C83      1.0000 0.12480  0.29160  0.83193  Biso   1.000  C
  C84      1.0000 0.15370  0.24370  0.86105  Biso   1.000  C
  C85      1.0000 0.10500  0.25480  0.89589  Biso   1.000  C
  C86      1.0000 0.11260  0.21220  0.93150  Biso   1.000  C
  C87      1.0000 0.07000  0.22460  0.96690  Biso   1.000  C
  C88      1.0000 0.07540  0.17920  0.00280  Biso   1.000  C
  C89      1.0000 0.03130  0.21470  0.03190  Biso   1.000  C
  C90      1.0000 0.99460  0.28240  0.01343  Biso   1.000  C
  C91      1.0000 0.94890  0.33970  0.03442  Biso   1.000  C
  C92      1.0000 0.77420  0.56440  0.92490  Biso   1.000  C
  C93      1.0000 0.69870  0.54930  0.94060  Biso   1.000  C
  C94      1.0000 0.63940  0.60680  0.93820  Biso   1.000  C
  C95      1.0000 0.65670  0.68050  0.92010  Biso   1.000  C
  C96      1.0000 0.73140  0.69360  0.90520  Biso   1.000  C
  C97      1.0000 0.79010  0.63610  0.90840  Biso   1.000  C
  C98      1.0000 0.59490  0.74410  0.91700  Biso   1.000  C
  C99      1.0000 0.02270  0.39450  0.78139  Biso   1.000  C
  C100     1.0000 0.09790  0.44630  0.78140  Biso   1.000  C
  C101     1.0000 0.11720  0.46820  0.74330  Biso   1.000  C
  C102     1.0000 0.05840  0.43760  0.70301  Biso   1.000  C
  C103     1.0000 0.98550  0.38330  0.70260  Biso   1.000  C
  C104     1.0000 0.96660  0.36220  0.74140  Biso   1.000  C
  C105     1.0000 0.07400  0.46700  0.66214  Biso   1.000  C
  C106     1.0000 0.17120  0.14580  0.92959  Biso   1.000  C
  C107     1.0000 0.14220  0.06600  0.90330  Biso   1.000  C
  C108     1.0000 0.20050  0.00990  0.89630  Biso   1.000  C
  C109     1.0000 0.28490  0.03130  0.91546  Biso   1.000  C
  C110     1.0000 0.31210  0.11030  0.94350  Biso   1.000  C
  C111     1.0000 0.25580  0.16620  0.95100  Biso   1.000  C
  C112     1.0000 0.34830  0.97330  0.90600  Biso   1.000  C
  C113     1.0000 0.92940  0.32760  0.07823  Biso   1.000  C
  C114     1.0000 0.86480  0.26240  0.07960  Biso   1.000  C
  C115     1.0000 0.84250  0.25350  0.11940  Biso   1.000  C
  C116     1.0000 0.88380  0.30880  0.15869  Biso   1.000  C
  C117     1.0000 0.94960  0.37140  0.15730  Biso   1.000  C
  C118     1.0000 0.97130  0.37970  0.11720  Biso   1.000  C
  C119     1.0000 0.85830  0.30050  0.20080  Biso   1.000  C
  C120     1.0000 0.84770  0.15410  0.71048  Biso   1.000  C
  C121     1.0000 0.88060  0.13420  0.67060  Biso   1.000  C
  C122     1.0000 0.84760  0.18120  0.64180  Biso   1.000  C
  C123     1.0000 0.79120  0.23120  0.66302  Biso   1.000  C
  C124     1.0000 0.74780  0.29140  0.64509  Biso   1.000  C
  C125     1.0000 0.69270  0.33910  0.66399  Biso   1.000  C
  C126     1.0000 0.64340  0.39580  0.64230  Biso   1.000  C
  C127     1.0000 0.59490  0.42690  0.67190  Biso   1.000  C
  C128     1.0000 0.61580  0.39440  0.71130  Biso   1.000  C
  C129     1.0000 0.91720  0.98560  0.72090  Biso   1.000  C
  C130     1.0000 0.97310  0.92690  0.72100  Biso   1.000  C
  C131     1.0000 0.76390  0.31010  0.60120  Biso   1.000  C
  C132     1.0000 0.82170  0.38070  0.60120  Biso   1.000  C
  C133     1.0000 0.83520  0.40180  0.56150  Biso   1.000  C
  C134     1.0000 0.78900  0.35420  0.52140  Biso   1.000  C
  C135     1.0000 0.73440  0.28700  0.52270  Biso   1.000  C
  C136     1.0000 0.72100  0.26380  0.56190  Biso   1.000  C
  C137     1.0000 0.78840  0.36600  0.47530  Biso   1.000  C
  C138     1.0000 0.43860  0.45280  0.72560  Biso   1.000  C
  C139     1.0000 0.38040  0.51320  0.72610  Biso   1.000  C
  C140     1.0000 0.93900  0.61180  0.70280  Biso   1.000  C
  C141     1.0000 0.81480  0.60300  0.64550  Biso   1.000  C
  C142     1.0000 0.80240  0.56160  0.71820  Biso   1.000  C
  C143     1.0000 0.40790  0.91750  0.51670  Biso   1.000  C
  C144     1.0000 0.47110  0.87610  0.53910  Biso   1.000  C
  C145     1.0000 0.51690  0.84630  0.51000  Biso   1.000  C
  C146     1.0000 0.48140  0.86620  0.46790  Biso   1.000  C
  C147     1.0000 0.50160  0.83540  0.42700  Biso   1.000  C
  C148     1.0000 0.46770  0.85890  0.38690  Biso   1.000  C
  C149     1.0000 0.48400  0.82560  0.34350  Biso   1.000  C
  C150     1.0000 0.45040  0.87160  0.31500  Biso   1.000  C
  C151     1.0000 0.41120  0.93480  0.33960  Biso   1.000  C
  C152     1.0000 0.37820  0.00240  0.32481  Biso   1.000  C
  C153     1.0000 0.33130  0.05750  0.34770  Biso   1.000  C
  C154     1.0000 0.29160  0.12480  0.33193  Biso   1.000  C
  C155     1.0000 0.24370  0.15370  0.36105  Biso   1.000  C
  C156     1.0000 0.25480  0.10500  0.39589  Biso   1.000  C
  C157     1.0000 0.21220  0.11260  0.43150  Biso   1.000  C
  C158     1.0000 0.22460  0.07000  0.46690  Biso   1.000  C
  C159     1.0000 0.17920  0.07540  0.50280  Biso   1.000  C
  C160     1.0000 0.21470  0.03130  0.53190  Biso   1.000  C
  C161     1.0000 0.28240  0.99460  0.51343  Biso   1.000  C
  C162     1.0000 0.33970  0.94890  0.53442  Biso   1.000  C
  C163     1.0000 0.56440  0.77420  0.42490  Biso   1.000  C
  C164     1.0000 0.54930  0.69870  0.44060  Biso   1.000  C
  C165     1.0000 0.60680  0.63940  0.43820  Biso   1.000  C
  C166     1.0000 0.68050  0.65670  0.42010  Biso   1.000  C
  C167     1.0000 0.69360  0.73140  0.40520  Biso   1.000  C
  C168     1.0000 0.63610  0.79010  0.40840  Biso   1.000  C
  C169     1.0000 0.74410  0.59490  0.41700  Biso   1.000  C
  C170     1.0000 0.39450  0.02270  0.28139  Biso   1.000  C
  C171     1.0000 0.44630  0.09790  0.28140  Biso   1.000  C
  C172     1.0000 0.46820  0.11720  0.24330  Biso   1.000  C
  C173     1.0000 0.43760  0.05840  0.20301  Biso   1.000  C
  C174     1.0000 0.38330  0.98550  0.20260  Biso   1.000  C
  C175     1.0000 0.36220  0.96660  0.24140  Biso   1.000  C
  C176     1.0000 0.46700  0.07400  0.16214  Biso   1.000  C
  C177     1.0000 0.14580  0.17120  0.42959  Biso   1.000  C
  C178     1.0000 0.06600  0.14220  0.40330  Biso   1.000  C
  C179     1.0000 0.00990  0.20050  0.39630  Biso   1.000  C
  C180     1.0000 0.03130  0.28490  0.41546  Biso   1.000  C
  C181     1.0000 0.11030  0.31210  0.44350  Biso   1.000  C
  C182     1.0000 0.16620  0.25580  0.45100  Biso   1.000  C
  C183     1.0000 0.97330  0.34830  0.40600  Biso   1.000  C
  C184     1.0000 0.32760  0.92940  0.57823  Biso   1.000  C
  C185     1.0000 0.26240  0.86480  0.57960  Biso   1.000  C
  C186     1.0000 0.25350  0.84250  0.61940  Biso   1.000  C
  C187     1.0000 0.30880  0.88380  0.65869  Biso   1.000  C
  C188     1.0000 0.37140  0.94960  0.65730  Biso   1.000  C
  C189     1.0000 0.37970  0.97130  0.61720  Biso   1.000  C
  C190     1.0000 0.30050  0.85830  0.70080  Biso   1.000  C
  C191     1.0000 0.15410  0.84770  0.21048  Biso   1.000  C
  C192     1.0000 0.13420  0.88060  0.17060  Biso   1.000  C
  C193     1.0000 0.18120  0.84760  0.14180  Biso   1.000  C
  C194     1.0000 0.23120  0.79120  0.16302  Biso   1.000  C
  C195     1.0000 0.29140  0.74780  0.14509  Biso   1.000  C
  C196     1.0000 0.33910  0.69270  0.16399  Biso   1.000  C
  C197     1.0000 0.39580  0.64340  0.14230  Biso   1.000  C
  C198     1.0000 0.42690  0.59490  0.17190  Biso   1.000  C
  C199     1.0000 0.39440  0.61580  0.21130  Biso   1.000  C
  C200     1.0000 0.98560  0.91720  0.22090  Biso   1.000  C
  C201     1.0000 0.92690  0.97310  0.22100  Biso   1.000  C
  C202     1.0000 0.31010  0.76390  0.10120  Biso   1.000  C
  C203     1.0000 0.38070  0.82170  0.10120  Biso   1.000  C
  C204     1.0000 0.40180  0.83520  0.06150  Biso   1.000  C
  C205     1.0000 0.35420  0.78900  0.02140  Biso   1.000  C
  C206     1.0000 0.28700  0.73440  0.02270  Biso   1.000  C
  C207     1.0000 0.26380  0.72100  0.06190  Biso   1.000  C
  C208     1.0000 0.36600  0.78840  0.97530  Biso   1.000  C
  C209     1.0000 0.45280  0.43860  0.22560  Biso   1.000  C
  C210     1.0000 0.51320  0.38040  0.22610  Biso   1.000  C
  C211     1.0000 0.61180  0.93900  0.20280  Biso   1.000  C
  C212     1.0000 0.60300  0.81480  0.14550  Biso   1.000  C
  C213     1.0000 0.56160  0.80240  0.21820  Biso   1.000  C
  C214     1.0000 0.08250  0.59210  0.98330  Biso   1.000  C
  C215     1.0000 0.12390  0.52890  0.96090  Biso   1.000  C
  C216     1.0000 0.15370  0.48310  0.99000  Biso   1.000  C
  C217     1.0000 0.13380  0.51860  0.03210  Biso   1.000  C
  C218     1.0000 0.16460  0.49840  0.07300  Biso   1.000  C
  C219     1.0000 0.14110  0.53230  0.11310  Biso   1.000  C
  C220     1.0000 0.17440  0.51600  0.15650  Biso   1.000  C
  C221     1.0000 0.12840  0.54960  0.18500  Biso   1.000  C
  C222     1.0000 0.06520  0.58880  0.16040  Biso   1.000  C
  C223     1.0000 0.99760  0.62180  0.17519  Biso   1.000  C
  C224     1.0000 0.94250  0.66870  0.15230  Biso   1.000  C
  C225     1.0000 0.87520  0.70840  0.16807  Biso   1.000  C
  C226     1.0000 0.84630  0.75630  0.13895  Biso   1.000  C
  C227     1.0000 0.89500  0.74520  0.10411  Biso   1.000  C
  C228     1.0000 0.88740  0.78780  0.06850  Biso   1.000  C
  C229     1.0000 0.93000  0.77540  0.03310  Biso   1.000  C
  C230     1.0000 0.92460  0.82080  0.99720  Biso   1.000  C
  C231     1.0000 0.96870  0.78530  0.96810  Biso   1.000  C
  C232     1.0000 0.00540  0.71760  0.98657  Biso   1.000  C
  C233     1.0000 0.05110  0.66030  0.96558  Biso   1.000  C
  C234     1.0000 0.22580  0.43560  0.07510  Biso   1.000  C
  C235     1.0000 0.30130  0.45070  0.05940  Biso   1.000  C
  C236     1.0000 0.36060  0.39320  0.06180  Biso   1.000  C
  C237     1.0000 0.34330  0.31950  0.07990  Biso   1.000  C
  C238     1.0000 0.26860  0.30640  0.09480  Biso   1.000  C
  C239     1.0000 0.20990  0.36390  0.09160  Biso   1.000  C
  C240     1.0000 0.40510  0.25590  0.08300  Biso   1.000  C
  C241     1.0000 0.97730  0.60550  0.21861  Biso   1.000  C
  C242     1.0000 0.90210  0.55370  0.21860  Biso   1.000  C
  C243     1.0000 0.88280  0.53180  0.25670  Biso   1.000  C
  C244     1.0000 0.94160  0.56240  0.29699  Biso   1.000  C
  C245     1.0000 0.01450  0.61670  0.29740  Biso   1.000  C
  C246     1.0000 0.03340  0.63780  0.25860  Biso   1.000  C
  C247     1.0000 0.92600  0.53300  0.33786  Biso   1.000  C
  C248     1.0000 0.82880  0.85420  0.07041  Biso   1.000  C
  C249     1.0000 0.85780  0.93400  0.09670  Biso   1.000  C
  C250     1.0000 0.79950  0.99010  0.10370  Biso   1.000  C
  C251     1.0000 0.71510  0.96870  0.08454  Biso   1.000  C
  C252     1.0000 0.68790  0.88970  0.05650  Biso   1.000  C
  C253     1.0000 0.74420  0.83380  0.04900  Biso   1.000  C
  C254     1.0000 0.65170  0.02670  0.09400  Biso   1.000  C
  C255     1.0000 0.07060  0.67240  0.92177  Biso   1.000  C
  C256     1.0000 0.13520  0.73760  0.92040  Biso   1.000  C
  C257     1.0000 0.15750  0.74650  0.88060  Biso   1.000  C
  C258     1.0000 0.11620  0.69120  0.84131  Biso   1.000  C
  C259     1.0000 0.05040  0.62860  0.84270  Biso   1.000  C
  C260     1.0000 0.02870  0.62030  0.88280  Biso   1.000  C
  C261     1.0000 0.14170  0.69950  0.79920  Biso   1.000  C
  C262     1.0000 0.15230  0.84590  0.28952  Biso   1.000  C
  C263     1.0000 0.11940  0.86580  0.32940  Biso   1.000  C
  C264     1.0000 0.15240  0.81880  0.35820  Biso   1.000  C
  C265     1.0000 0.20880  0.76880  0.33698  Biso   1.000  C
  C266     1.0000 0.25220  0.70860  0.35491  Biso   1.000  C
  C267     1.0000 0.30730  0.66090  0.33601  Biso   1.000  C
  C268     1.0000 0.35660  0.60420  0.35770  Biso   1.000  C
  C269     1.0000 0.40510  0.57310  0.32810  Biso   1.000  C
  C270     1.0000 0.38420  0.60560  0.28870  Biso   1.000  C
  C271     1.0000 0.08280  0.01440  0.27910  Biso   1.000  C
  C272     1.0000 0.02690  0.07310  0.27900  Biso   1.000  C
  C273     1.0000 0.23610  0.68990  0.39880  Biso   1.000  C
  C274     1.0000 0.17830  0.61930  0.39880  Biso   1.000  C
  C275     1.0000 0.16480  0.59820  0.43850  Biso   1.000  C
  C276     1.0000 0.21100  0.64580  0.47860  Biso   1.000  C
  C277     1.0000 0.26560  0.71300  0.47730  Biso   1.000  C
  C278     1.0000 0.27900  0.73620  0.43810  Biso   1.000  C
  C279     1.0000 0.21160  0.63400  0.52470  Biso   1.000  C
  C280     1.0000 0.56140  0.54720  0.27440  Biso   1.000  C
  C281     1.0000 0.61960  0.48680  0.27390  Biso   1.000  C
  C282     1.0000 0.06100  0.38820  0.29720  Biso   1.000  C
  C283     1.0000 0.18520  0.39700  0.35450  Biso   1.000  C
  C284     1.0000 0.19760  0.43840  0.28180  Biso   1.000  C
  C285     1.0000 0.58410  0.41590  0.75000  Biso   1.000  C
  C286     1.0000 0.87380  0.12620  0.75000  Biso   1.000  C
  C287     1.0000 0.93570  0.06430  0.75000  Biso   1.000  C
  C288     1.0000 0.05250  0.94750  0.75000  Biso   1.000  C
  C289     1.0000 0.11480  0.88520  0.75000  Biso   1.000  C
  C290     1.0000 0.52130  0.47870  0.75000  Biso   1.000  C
  C291     1.0000 0.40470  0.59530  0.75000  Biso   1.000  C
  C292     1.0000 0.34320  0.65680  0.75000  Biso   1.000  C
  C293     1.0000 0.41590  0.58410  0.25000  Biso   1.000  C
  C294     1.0000 0.12620  0.87380  0.25000  Biso   1.000  C
  C295     1.0000 0.06430  0.93570  0.25000  Biso   1.000  C
  C296     1.0000 0.94750  0.05250  0.25000  Biso   1.000  C
  C297     1.0000 0.88520  0.11480  0.25000  Biso   1.000  C
  C298     1.0000 0.47870  0.52130  0.25000  Biso   1.000  C
  C299     1.0000 0.59530  0.40470  0.25000  Biso   1.000  C
  C300     1.0000 0.65680  0.34320  0.25000  Biso   1.000  C
  N1       1.0000 0.58176  0.08604  0.52596  Biso   1.000  N
  N2       1.0000 0.58213  0.07927  0.61770  Biso   1.000  N
  N3       1.0000 0.68998  0.95142  0.61206  Biso   1.000  N
  N4       1.0000 0.71515  0.98165  0.52649  Biso   1.000  N
  N5       1.0000 0.78692  0.20828  0.79567  Biso   1.000  N
  N6       1.0000 0.65893  0.32527  0.79435  Biso   1.000  N
  N7       1.0000 0.40670  0.14310  0.81071  Biso   1.000  N
  N8       1.0000 0.91396  0.41824  0.97404  Biso   1.000  N
  N9       1.0000 0.92073  0.41787  0.88230  Biso   1.000  N
  N10      1.0000 0.04858  0.31002  0.88794  Biso   1.000  N
  N11      1.0000 0.01835  0.28485  0.97351  Biso   1.000  N
  N12      1.0000 0.79172  0.21308  0.70433  Biso   1.000  N
  N13      1.0000 0.67473  0.34107  0.70565  Biso   1.000  N
  N14      1.0000 0.85690  0.59330  0.68929  Biso   1.000  N
  N15      1.0000 0.41824  0.91396  0.47404  Biso   1.000  N
  N16      1.0000 0.41787  0.92073  0.38230  Biso   1.000  N
  N17      1.0000 0.31002  0.04858  0.38794  Biso   1.000  N
  N18      1.0000 0.28485  0.01835  0.47351  Biso   1.000  N
  N19      1.0000 0.21308  0.79172  0.20433  Biso   1.000  N
  N20      1.0000 0.34107  0.67473  0.20565  Biso   1.000  N
  N21      1.0000 0.59330  0.85690  0.18929  Biso   1.000  N
  N22      1.0000 0.08604  0.58176  0.02596  Biso   1.000  N
  N23      1.0000 0.07927  0.58213  0.11770  Biso   1.000  N
  N24      1.0000 0.95142  0.68998  0.11206  Biso   1.000  N
  N25      1.0000 0.98165  0.71515  0.02649  Biso   1.000  N
  N26      1.0000 0.20828  0.78692  0.29567  Biso   1.000  N
  N27      1.0000 0.32527  0.65893  0.29435  Biso   1.000  N
  N28      1.0000 0.14310  0.40670  0.31071  Biso   1.000  N
  O1       1.0000 0.26810  0.47090  0.56380  Biso   1.000  O
  O2       1.0000 0.20030  0.39390  0.60510  Biso   1.000  O
  O3       1.0000 0.46387  0.87365  0.83351  Biso   1.000  O
  O4       1.0000 0.57249  0.96251  0.87532  Biso   1.000  O
  O5       1.0000 0.00466  0.57734  0.57385  Biso   1.000  O
  O6       1.0000 0.09624  0.67596  0.62149  Biso   1.000  O
  O7       1.0000 0.75131  0.20569  0.29873  Biso   1.000  O
  O8       1.0000 0.65163  0.09897  0.26413  Biso   1.000  O
  O9       1.0000 0.18682  0.90898  0.77466  Biso   1.000  O
  O10      1.0000 0.66820  0.26440  0.05770  Biso   1.000  O
  O11      1.0000 0.59130  0.15070  0.03200  Biso   1.000  O
  O12      1.0000 0.36909  0.73181  0.77160  Biso   1.000  O
  O13      1.0000 0.36086  0.01070  0.81926  Biso   1.000  O
  O14      1.0000 0.03940  0.41480  0.52790  Biso   1.000  O
  O15      1.0000 0.25400  0.61900  0.63560  Biso   1.000  O
  O16      1.0000 0.52910  0.73190  0.93620  Biso   1.000  O
  O17      1.0000 0.60610  0.79970  0.89490  Biso   1.000  O
  O18      1.0000 0.12635  0.53613  0.66649  Biso   1.000  O
  O19      1.0000 0.03749  0.42751  0.62468  Biso   1.000  O
  O20      1.0000 0.42266  0.99534  0.92615  Biso   1.000  O
  O21      1.0000 0.32404  0.90376  0.87851  Biso   1.000  O
  O22      1.0000 0.79431  0.24869  0.20127  Biso   1.000  O
  O23      1.0000 0.90103  0.34837  0.23587  Biso   1.000  O
  O24      1.0000 0.09102  0.81318  0.72534  Biso   1.000  O
  O25      1.0000 0.73560  0.33180  0.44230  Biso   1.000  O
  O26      1.0000 0.84930  0.40870  0.46800  Biso   1.000  O
  O27      1.0000 0.26819  0.63091  0.72840  Biso   1.000  O
  O28      1.0000 0.98930  0.63914  0.68074  Biso   1.000  O
  O29      1.0000 0.58520  0.96060  0.97210  Biso   1.000  O
  O30      1.0000 0.38100  0.74600  0.86440  Biso   1.000  O
  O31      1.0000 0.73190  0.52910  0.43620  Biso   1.000  O
  O32      1.0000 0.79970  0.60610  0.39490  Biso   1.000  O
  O33      1.0000 0.53613  0.12635  0.16649  Biso   1.000  O
  O34      1.0000 0.42751  0.03749  0.12468  Biso   1.000  O
  O35      1.0000 0.99534  0.42266  0.42615  Biso   1.000  O
  O36      1.0000 0.90376  0.32404  0.37851  Biso   1.000  O
  O37      1.0000 0.24869  0.79431  0.70127  Biso   1.000  O
  O38      1.0000 0.34837  0.90103  0.73587  Biso   1.000  O
  O39      1.0000 0.81318  0.09102  0.22534  Biso   1.000  O
  O40      1.0000 0.33180  0.73560  0.94230  Biso   1.000  O
  O41      1.0000 0.40870  0.84930  0.96800  Biso   1.000  O
  O42      1.0000 0.63091  0.26819  0.22840  Biso   1.000  O
  O43      1.0000 0.63914  0.98930  0.18074  Biso   1.000  O
  O44      1.0000 0.96060  0.58520  0.47210  Biso   1.000  O
  O45      1.0000 0.74600  0.38100  0.36440  Biso   1.000  O
  O46      1.0000 0.47090  0.26810  0.06380  Biso   1.000  O
  O47      1.0000 0.39390  0.20030  0.10510  Biso   1.000  O
  O48      1.0000 0.87365  0.46387  0.33351  Biso   1.000  O
  O49      1.0000 0.96251  0.57249  0.37532  Biso   1.000  O
  O50      1.0000 0.57734  0.00466  0.07385  Biso   1.000  O
  O51      1.0000 0.67596  0.09624  0.12149  Biso   1.000  O
  O52      1.0000 0.20569  0.75131  0.79873  Biso   1.000  O
  O53      1.0000 0.09897  0.65163  0.76413  Biso   1.000  O
  O54      1.0000 0.90898  0.18682  0.27466  Biso   1.000  O
  O55      1.0000 0.26440  0.66820  0.55770  Biso   1.000  O
  O56      1.0000 0.15070  0.59130  0.53200  Biso   1.000  O
  O57      1.0000 0.73181  0.36909  0.27160  Biso   1.000  O
  O58      1.0000 0.01070  0.36086  0.31926  Biso   1.000  O
  O59      1.0000 0.41480  0.03940  0.02790  Biso   1.000  O
  O60      1.0000 0.61900  0.25400  0.13560  Biso   1.000  O
