data_image0
_cell_length_a       9.8474
_cell_length_b       11.3369
_cell_length_c       14.4507
_cell_angle_alpha    91.1417
_cell_angle_beta     90
_cell_angle_gamma    90

_symmetry_space_group_name_H-M    P 1
_symmetry_int_tables_number       1

loop_
  _symmetry_equiv_pos_as_xyz
  'x, y, z'

loop_
  _atom_site_label
  _atom_site_occupancy
  _atom_site_fract_x
  _atom_site_fract_y
  _atom_site_fract_z
  _atom_site_thermal_displace_type
  _atom_site_B_iso_or_equiv
  _atom_site_type_symbol
  Fe1      1.0000 0.91782  0.75529  0.13235  Biso   1.000  Fe
  Fe2      1.0000 0.89607  0.26095  0.68536  Biso   1.000  Fe
  Fe3      1.0000 0.41782  0.74471  0.36765  Biso   1.000  Fe
  Fe4      1.0000 0.39607  0.23905  0.81464  Biso   1.000  Fe
  Fe5      1.0000 0.08218  0.24471  0.86765  Biso   1.000  Fe
  Fe6      1.0000 0.10393  0.73905  0.31464  Biso   1.000  Fe
  Fe7      1.0000 0.58218  0.25529  0.63235  Biso   1.000  Fe
  Fe8      1.0000 0.60393  0.76095  0.18536  Biso   1.000  Fe
  Fe9      1.0000 0.00000  0.50000  0.00000  Biso   1.000  Fe
  Fe10     1.0000 0.50000  0.00000  0.50000  Biso   1.000  Fe
  Fe11     1.0000 0.00000  0.00000  0.00000  Biso   1.000  Fe
  Fe12     1.0000 0.50000  0.50000  0.50000  Biso   1.000  Fe
  H1       1.0000 0.74720  0.86070  0.36840  Biso   1.000  H
  H2       1.0000 0.02220  0.47290  0.26990  Biso   1.000  H
  H3       1.0000 0.61500  0.55720  0.03410  Biso   1.000  H
  H4       1.0000 0.17250  0.99050  0.24220  Biso   1.000  H
  H5       1.0000 0.16970  0.69800  0.93150  Biso   1.000  H
  H6       1.0000 0.69870  0.98340  0.99670  Biso   1.000  H
  H7       1.0000 0.24720  0.63930  0.13160  Biso   1.000  H
  H8       1.0000 0.52220  0.02710  0.23010  Biso   1.000  H
  H9       1.0000 0.11500  0.94280  0.46590  Biso   1.000  H
  H10      1.0000 0.67250  0.50950  0.25780  Biso   1.000  H
  H11      1.0000 0.66970  0.80200  0.56850  Biso   1.000  H
  H12      1.0000 0.19870  0.51660  0.50330  Biso   1.000  H
  H13      1.0000 0.25280  0.13930  0.63160  Biso   1.000  H
  H14      1.0000 0.97780  0.52710  0.73010  Biso   1.000  H
  H15      1.0000 0.38500  0.44280  0.96590  Biso   1.000  H
  H16      1.0000 0.82750  0.00950  0.75780  Biso   1.000  H
  H17      1.0000 0.83030  0.30200  0.06850  Biso   1.000  H
  H18      1.0000 0.30130  0.01660  0.00330  Biso   1.000  H
  H19      1.0000 0.75280  0.36070  0.86840  Biso   1.000  H
  H20      1.0000 0.47780  0.97290  0.76990  Biso   1.000  H
  H21      1.0000 0.88500  0.05720  0.53410  Biso   1.000  H
  H22      1.0000 0.32750  0.49050  0.74220  Biso   1.000  H
  H23      1.0000 0.33030  0.19800  0.43150  Biso   1.000  H
  H24      1.0000 0.80130  0.48340  0.49670  Biso   1.000  H
  C1       1.0000 0.81970  0.82960  0.33200  Biso   1.000  C
  C2       1.0000 0.00540  0.51420  0.21450  Biso   1.000  C
  C3       1.0000 0.70850  0.57480  0.04290  Biso   1.000  C
  C4       1.0000 0.11900  0.95950  0.19280  Biso   1.000  C
  C5       1.0000 0.11150  0.74380  0.97050  Biso   1.000  C
  C6       1.0000 0.71480  0.92690  0.04310  Biso   1.000  C
  C7       1.0000 0.31970  0.67040  0.16800  Biso   1.000  C
  C8       1.0000 0.50540  0.98580  0.28550  Biso   1.000  C
  C9       1.0000 0.20850  0.92520  0.45710  Biso   1.000  C
  C10      1.0000 0.61900  0.54050  0.30720  Biso   1.000  C
  C11      1.0000 0.61150  0.75620  0.52950  Biso   1.000  C
  C12      1.0000 0.21480  0.57310  0.45690  Biso   1.000  C
  C13      1.0000 0.18030  0.17040  0.66800  Biso   1.000  C
  C14      1.0000 0.99460  0.48580  0.78550  Biso   1.000  C
  C15      1.0000 0.29150  0.42520  0.95710  Biso   1.000  C
  C16      1.0000 0.88100  0.04050  0.80720  Biso   1.000  C
  C17      1.0000 0.88850  0.25620  0.02950  Biso   1.000  C
  C18      1.0000 0.28520  0.07310  0.95690  Biso   1.000  C
  C19      1.0000 0.68030  0.32960  0.83200  Biso   1.000  C
  C20      1.0000 0.49460  0.01420  0.71450  Biso   1.000  C
  C21      1.0000 0.79150  0.07480  0.54290  Biso   1.000  C
  C22      1.0000 0.38100  0.45950  0.69280  Biso   1.000  C
  C23      1.0000 0.38850  0.24380  0.47050  Biso   1.000  C
  C24      1.0000 0.78520  0.42690  0.54310  Biso   1.000  C
  O1       1.0000 0.79525  0.80939  0.24629  Biso   1.000  O
  O2       1.0000 0.92869  0.81266  0.37206  Biso   1.000  O
  O3       1.0000 0.99955  0.62592  0.22092  Biso   1.000  O
  O4       1.0000 0.99110  0.45417  0.14267  Biso   1.000  O
  O5       1.0000 0.73809  0.65165  0.10505  Biso   1.000  O
  O6       1.0000 0.79050  0.52083  0.99273  Biso   1.000  O
  O7       1.0000 0.07955  0.85225  0.19885  Biso   1.000  O
  O8       1.0000 0.09391  0.02589  0.12899  Biso   1.000  O
  O9       1.0000 0.03007  0.68710  0.02310  Biso   1.000  O
  O10      1.0000 0.12115  0.85116  0.96586  Biso   1.000  O
  O11      1.0000 0.83830  0.89588  0.05688  Biso   1.000  O
  O12      1.0000 0.61433  0.88908  0.08538  Biso   1.000  O
  O13      1.0000 0.29525  0.69061  0.25371  Biso   1.000  O
  O14      1.0000 0.42869  0.68734  0.12794  Biso   1.000  O
  O15      1.0000 0.49955  0.87408  0.27908  Biso   1.000  O
  O16      1.0000 0.49110  0.04583  0.35733  Biso   1.000  O
  O17      1.0000 0.23809  0.84835  0.39495  Biso   1.000  O
  O18      1.0000 0.29050  0.97917  0.50727  Biso   1.000  O
  O19      1.0000 0.57955  0.64775  0.30115  Biso   1.000  O
  O20      1.0000 0.59391  0.47411  0.37101  Biso   1.000  O
  O21      1.0000 0.53007  0.81290  0.47690  Biso   1.000  O
  O22      1.0000 0.62115  0.64884  0.53414  Biso   1.000  O
  O23      1.0000 0.33830  0.60412  0.44312  Biso   1.000  O
  O24      1.0000 0.11433  0.61092  0.41462  Biso   1.000  O
  O25      1.0000 0.20475  0.19061  0.75371  Biso   1.000  O
  O26      1.0000 0.07131  0.18734  0.62794  Biso   1.000  O
  O27      1.0000 0.00045  0.37408  0.77908  Biso   1.000  O
  O28      1.0000 0.00890  0.54583  0.85733  Biso   1.000  O
  O29      1.0000 0.26191  0.34835  0.89495  Biso   1.000  O
  O30      1.0000 0.20950  0.47917  0.00727  Biso   1.000  O
  O31      1.0000 0.92045  0.14775  0.80115  Biso   1.000  O
  O32      1.0000 0.90609  0.97411  0.87101  Biso   1.000  O
  O33      1.0000 0.96993  0.31290  0.97690  Biso   1.000  O
  O34      1.0000 0.87885  0.14884  0.03414  Biso   1.000  O
  O35      1.0000 0.16170  0.10412  0.94312  Biso   1.000  O
  O36      1.0000 0.38567  0.11092  0.91462  Biso   1.000  O
  O37      1.0000 0.70475  0.30939  0.74629  Biso   1.000  O
  O38      1.0000 0.57131  0.31266  0.87206  Biso   1.000  O
  O39      1.0000 0.50045  0.12592  0.72092  Biso   1.000  O
  O40      1.0000 0.50890  0.95417  0.64267  Biso   1.000  O
  O41      1.0000 0.76191  0.15165  0.60505  Biso   1.000  O
  O42      1.0000 0.70950  0.02083  0.49273  Biso   1.000  O
  O43      1.0000 0.42045  0.35225  0.69885  Biso   1.000  O
  O44      1.0000 0.40609  0.52589  0.62899  Biso   1.000  O
  O45      1.0000 0.46993  0.18710  0.52310  Biso   1.000  O
  O46      1.0000 0.37885  0.35116  0.46586  Biso   1.000  O
  O47      1.0000 0.66170  0.39588  0.55688  Biso   1.000  O
  O48      1.0000 0.88567  0.38908  0.58538  Biso   1.000  O
