data_image0
_cell_length_a       9.9146
_cell_length_b       11.4081
_cell_length_c       14.844
_cell_angle_alpha    91.1659
_cell_angle_beta     90
_cell_angle_gamma    90

_symmetry_space_group_name_H-M    P 1
_symmetry_int_tables_number       1

loop_
  _symmetry_equiv_pos_as_xyz
  'x, y, z'

loop_
  _atom_site_label
  _atom_site_occupancy
  _atom_site_fract_x
  _atom_site_fract_y
  _atom_site_fract_z
  _atom_site_thermal_displace_type
  _atom_site_B_iso_or_equiv
  _atom_site_type_symbol
  Fe1      1.0000 0.92162  0.75605  0.13381  Biso   1.000  Fe
  Fe2      1.0000 0.88796  0.26086  0.69097  Biso   1.000  Fe
  Fe3      1.0000 0.42162  0.74395  0.36619  Biso   1.000  Fe
  Fe4      1.0000 0.38796  0.23914  0.80903  Biso   1.000  Fe
  Fe5      1.0000 0.07838  0.24395  0.86619  Biso   1.000  Fe
  Fe6      1.0000 0.11204  0.73914  0.30903  Biso   1.000  Fe
  Fe7      1.0000 0.57838  0.25605  0.63381  Biso   1.000  Fe
  Fe8      1.0000 0.61204  0.76086  0.19097  Biso   1.000  Fe
  Fe9      1.0000 0.00000  0.50000  0.00000  Biso   1.000  Fe
  Fe10     1.0000 0.50000  0.00000  0.50000  Biso   1.000  Fe
  Fe11     1.0000 0.00000  0.00000  0.00000  Biso   1.000  Fe
  Fe12     1.0000 0.50000  0.50000  0.50000  Biso   1.000  Fe
  H1       1.0000 0.75280  0.84630  0.37000  Biso   1.000  H
  H2       1.0000 0.05400  0.47110  0.26110  Biso   1.000  H
  H3       1.0000 0.61500  0.55080  0.05380  Biso   1.000  H
  H4       1.0000 0.20000  0.97680  0.22880  Biso   1.000  H
  H5       1.0000 0.15440  0.69300  0.92990  Biso   1.000  H
  H6       1.0000 0.70690  0.00170  0.02270  Biso   1.000  H
  H7       1.0000 0.25280  0.65370  0.13000  Biso   1.000  H
  H8       1.0000 0.55400  0.02890  0.23890  Biso   1.000  H
  H9       1.0000 0.11500  0.94920  0.44620  Biso   1.000  H
  H10      1.0000 0.70000  0.52320  0.27120  Biso   1.000  H
  H11      1.0000 0.65440  0.80700  0.57010  Biso   1.000  H
  H12      1.0000 0.20690  0.49830  0.47730  Biso   1.000  H
  H13      1.0000 0.24720  0.15370  0.63000  Biso   1.000  H
  H14      1.0000 0.94600  0.52890  0.73890  Biso   1.000  H
  H15      1.0000 0.38500  0.44920  0.94620  Biso   1.000  H
  H16      1.0000 0.80000  0.02320  0.77120  Biso   1.000  H
  H17      1.0000 0.84560  0.30700  0.07010  Biso   1.000  H
  H18      1.0000 0.29310  0.99830  0.97730  Biso   1.000  H
  H19      1.0000 0.74720  0.34630  0.87000  Biso   1.000  H
  H20      1.0000 0.44600  0.97110  0.76110  Biso   1.000  H
  H21      1.0000 0.88500  0.05080  0.55380  Biso   1.000  H
  H22      1.0000 0.30000  0.47680  0.72880  Biso   1.000  H
  H23      1.0000 0.34560  0.19300  0.42990  Biso   1.000  H
  H24      1.0000 0.79310  0.50170  0.52270  Biso   1.000  H
  C1       1.0000 0.82850  0.81971  0.33303  Biso   1.000  C
  C2       1.0000 0.02810  0.51610  0.20730  Biso   1.000  C
  C3       1.0000 0.71000  0.57050  0.05510  Biso   1.000  C
  C4       1.0000 0.13600  0.95273  0.18343  Biso   1.000  C
  C5       1.0000 0.09772  0.74197  0.96627  Biso   1.000  C
  C6       1.0000 0.72290  0.93852  0.06112  Biso   1.000  C
  C7       1.0000 0.32850  0.68029  0.16697  Biso   1.000  C
  C8       1.0000 0.52810  0.98390  0.29270  Biso   1.000  C
  C9       1.0000 0.21000  0.92950  0.44490  Biso   1.000  C
  C10      1.0000 0.63600  0.54727  0.31657  Biso   1.000  C
  C11      1.0000 0.59772  0.75803  0.53373  Biso   1.000  C
  C12      1.0000 0.22290  0.56148  0.43888  Biso   1.000  C
  C13      1.0000 0.17150  0.18029  0.66697  Biso   1.000  C
  C14      1.0000 0.97190  0.48390  0.79270  Biso   1.000  C
  C15      1.0000 0.29000  0.42950  0.94490  Biso   1.000  C
  C16      1.0000 0.86400  0.04727  0.81657  Biso   1.000  C
  C17      1.0000 0.90228  0.25803  0.03373  Biso   1.000  C
  C18      1.0000 0.27710  0.06148  0.93888  Biso   1.000  C
  C19      1.0000 0.67150  0.31971  0.83303  Biso   1.000  C
  C20      1.0000 0.47190  0.01610  0.70730  Biso   1.000  C
  C21      1.0000 0.79000  0.07050  0.55510  Biso   1.000  C
  C22      1.0000 0.36400  0.45273  0.68343  Biso   1.000  C
  C23      1.0000 0.40228  0.24197  0.46627  Biso   1.000  C
  C24      1.0000 0.77710  0.43852  0.56112  Biso   1.000  C
  O1       1.0000 0.80302  0.80423  0.24930  Biso   1.000  O
  O2       1.0000 0.93892  0.80365  0.37006  Biso   1.000  O
  O3       1.0000 0.01013  0.62622  0.21556  Biso   1.000  O
  O4       1.0000 0.01409  0.45646  0.13765  Biso   1.000  O
  O5       1.0000 0.74250  0.65450  0.10893  Biso   1.000  O
  O6       1.0000 0.78947  0.51254  0.00726  Biso   1.000  O
  O7       1.0000 0.08363  0.85228  0.19647  Biso   1.000  O
  O8       1.0000 0.11458  0.01596  0.11868  Biso   1.000  O
  O9       1.0000 0.02456  0.68680  0.02293  Biso   1.000  O
  O10      1.0000 0.10511  0.84855  0.95848  Biso   1.000  O
  O11      1.0000 0.84445  0.90177  0.06591  Biso   1.000  O
  O12      1.0000 0.62438  0.89912  0.10176  Biso   1.000  O
  O13      1.0000 0.30302  0.69577  0.25070  Biso   1.000  O
  O14      1.0000 0.43892  0.69635  0.12994  Biso   1.000  O
  O15      1.0000 0.51013  0.87378  0.28444  Biso   1.000  O
  O16      1.0000 0.51409  0.04354  0.36235  Biso   1.000  O
  O17      1.0000 0.24250  0.84550  0.39107  Biso   1.000  O
  O18      1.0000 0.28947  0.98746  0.49274  Biso   1.000  O
  O19      1.0000 0.58363  0.64772  0.30353  Biso   1.000  O
  O20      1.0000 0.61458  0.48404  0.38132  Biso   1.000  O
  O21      1.0000 0.52456  0.81320  0.47707  Biso   1.000  O
  O22      1.0000 0.60511  0.65145  0.54152  Biso   1.000  O
  O23      1.0000 0.34445  0.59823  0.43409  Biso   1.000  O
  O24      1.0000 0.12438  0.60088  0.39824  Biso   1.000  O
  O25      1.0000 0.19698  0.19577  0.75070  Biso   1.000  O
  O26      1.0000 0.06108  0.19635  0.62994  Biso   1.000  O
  O27      1.0000 0.98987  0.37378  0.78444  Biso   1.000  O
  O28      1.0000 0.98591  0.54354  0.86235  Biso   1.000  O
  O29      1.0000 0.25750  0.34550  0.89107  Biso   1.000  O
  O30      1.0000 0.21053  0.48746  0.99274  Biso   1.000  O
  O31      1.0000 0.91637  0.14772  0.80353  Biso   1.000  O
  O32      1.0000 0.88542  0.98404  0.88132  Biso   1.000  O
  O33      1.0000 0.97544  0.31320  0.97707  Biso   1.000  O
  O34      1.0000 0.89489  0.15145  0.04152  Biso   1.000  O
  O35      1.0000 0.15555  0.09823  0.93409  Biso   1.000  O
  O36      1.0000 0.37562  0.10088  0.89824  Biso   1.000  O
  O37      1.0000 0.69698  0.30423  0.74930  Biso   1.000  O
  O38      1.0000 0.56108  0.30365  0.87006  Biso   1.000  O
  O39      1.0000 0.48987  0.12622  0.71556  Biso   1.000  O
  O40      1.0000 0.48591  0.95646  0.63765  Biso   1.000  O
  O41      1.0000 0.75750  0.15450  0.60893  Biso   1.000  O
  O42      1.0000 0.71053  0.01254  0.50726  Biso   1.000  O
  O43      1.0000 0.41637  0.35228  0.69647  Biso   1.000  O
  O44      1.0000 0.38542  0.51596  0.61868  Biso   1.000  O
  O45      1.0000 0.47544  0.18680  0.52293  Biso   1.000  O
  O46      1.0000 0.39489  0.34855  0.45848  Biso   1.000  O
  O47      1.0000 0.65555  0.40177  0.56591  Biso   1.000  O
  O48      1.0000 0.87562  0.39912  0.60176  Biso   1.000  O
