data_image0
_cell_length_a       10.0853
_cell_length_b       11.52
_cell_length_c       14.9596
_cell_angle_alpha    91.4664
_cell_angle_beta     90
_cell_angle_gamma    90

_symmetry_space_group_name_H-M    P 1
_symmetry_int_tables_number       1

loop_
  _symmetry_equiv_pos_as_xyz
  'x, y, z'

loop_
  _atom_site_label
  _atom_site_occupancy
  _atom_site_fract_x
  _atom_site_fract_y
  _atom_site_fract_z
  _atom_site_thermal_displace_type
  _atom_site_B_iso_or_equiv
  _atom_site_type_symbol
  Fe1      1.0000 0.92791  0.75583  0.13361  Biso   1.000  Fe
  Fe2      1.0000 0.87800  0.25960  0.69416  Biso   1.000  Fe
  Fe3      1.0000 0.42791  0.74417  0.36639  Biso   1.000  Fe
  Fe4      1.0000 0.37800  0.24040  0.80584  Biso   1.000  Fe
  Fe5      1.0000 0.07209  0.24417  0.86639  Biso   1.000  Fe
  Fe6      1.0000 0.12200  0.74040  0.30584  Biso   1.000  Fe
  Fe7      1.0000 0.57209  0.25583  0.63361  Biso   1.000  Fe
  Fe8      1.0000 0.62200  0.75960  0.19416  Biso   1.000  Fe
  Fe9      1.0000 0.00000  0.50000  0.00000  Biso   1.000  Fe
  Fe10     1.0000 0.50000  0.00000  0.50000  Biso   1.000  Fe
  Fe11     1.0000 0.00000  0.00000  0.00000  Biso   1.000  Fe
  Fe12     1.0000 0.50000  0.50000  0.50000  Biso   1.000  Fe
  H1       1.0000 0.77200  0.84560  0.37160  Biso   1.000  H
  H2       1.0000 0.06100  0.47380  0.25880  Biso   1.000  H
  H3       1.0000 0.62300  0.55900  0.05500  Biso   1.000  H
  H4       1.0000 0.21800  0.97020  0.21520  Biso   1.000  H
  H5       1.0000 0.13800  0.69810  0.92410  Biso   1.000  H
  H6       1.0000 0.71500  0.99550  0.02750  Biso   1.000  H
  H7       1.0000 0.27200  0.65440  0.12840  Biso   1.000  H
  H8       1.0000 0.56100  0.02620  0.24120  Biso   1.000  H
  H9       1.0000 0.12300  0.94100  0.44500  Biso   1.000  H
  H10      1.0000 0.71800  0.52980  0.28480  Biso   1.000  H
  H11      1.0000 0.63800  0.80190  0.57590  Biso   1.000  H
  H12      1.0000 0.21500  0.50450  0.47250  Biso   1.000  H
  H13      1.0000 0.22800  0.15440  0.62840  Biso   1.000  H
  H14      1.0000 0.93900  0.52620  0.74120  Biso   1.000  H
  H15      1.0000 0.37700  0.44100  0.94500  Biso   1.000  H
  H16      1.0000 0.78200  0.02980  0.78480  Biso   1.000  H
  H17      1.0000 0.86200  0.30190  0.07590  Biso   1.000  H
  H18      1.0000 0.28500  0.00450  0.97250  Biso   1.000  H
  H19      1.0000 0.72800  0.34560  0.87160  Biso   1.000  H
  H20      1.0000 0.43900  0.97380  0.75880  Biso   1.000  H
  H21      1.0000 0.87700  0.05900  0.55500  Biso   1.000  H
  H22      1.0000 0.28200  0.47020  0.71520  Biso   1.000  H
  H23      1.0000 0.36200  0.19810  0.42410  Biso   1.000  H
  H24      1.0000 0.78500  0.49550  0.52750  Biso   1.000  H
  C1       1.0000 0.84110  0.81914  0.33234  Biso   1.000  C
  C2       1.0000 0.03690  0.52045  0.20475  Biso   1.000  C
  C3       1.0000 0.71850  0.57145  0.05925  Biso   1.000  C
  C4       1.0000 0.14310  0.94811  0.17811  Biso   1.000  C
  C5       1.0000 0.09160  0.74256  0.96396  Biso   1.000  C
  C6       1.0000 0.73100  0.93444  0.06394  Biso   1.000  C
  C7       1.0000 0.34110  0.68086  0.16766  Biso   1.000  C
  C8       1.0000 0.53690  0.97955  0.29525  Biso   1.000  C
  C9       1.0000 0.21850  0.92855  0.44075  Biso   1.000  C
  C10      1.0000 0.64310  0.55189  0.32189  Biso   1.000  C
  C11      1.0000 0.59160  0.75744  0.53604  Biso   1.000  C
  C12      1.0000 0.23100  0.56556  0.43606  Biso   1.000  C
  C13      1.0000 0.15890  0.18086  0.66766  Biso   1.000  C
  C14      1.0000 0.96310  0.47955  0.79525  Biso   1.000  C
  C15      1.0000 0.28150  0.42855  0.94075  Biso   1.000  C
  C16      1.0000 0.85690  0.05189  0.82189  Biso   1.000  C
  C17      1.0000 0.90840  0.25744  0.03604  Biso   1.000  C
  C18      1.0000 0.26900  0.06556  0.93606  Biso   1.000  C
  C19      1.0000 0.65890  0.31914  0.83234  Biso   1.000  C
  C20      1.0000 0.46310  0.02045  0.70475  Biso   1.000  C
  C21      1.0000 0.78150  0.07145  0.55925  Biso   1.000  C
  C22      1.0000 0.35690  0.44811  0.67811  Biso   1.000  C
  C23      1.0000 0.40840  0.24256  0.46396  Biso   1.000  C
  C24      1.0000 0.76900  0.43444  0.56394  Biso   1.000  C
  O1       1.0000 0.81188  0.80200  0.25048  Biso   1.000  O
  O2       1.0000 0.95124  0.80561  0.36626  Biso   1.000  O
  O3       1.0000 0.02030  0.62903  0.21329  Biso   1.000  O
  O4       1.0000 0.01856  0.46086  0.13660  Biso   1.000  O
  O5       1.0000 0.75054  0.65401  0.11240  Biso   1.000  O
  O6       1.0000 0.79383  0.51277  0.01128  Biso   1.000  O
  O7       1.0000 0.08968  0.85099  0.19355  Biso   1.000  O
  O8       1.0000 0.11856  0.01157  0.11594  Biso   1.000  O
  O9       1.0000 0.02478  0.68713  0.02095  Biso   1.000  O
  O10      1.0000 0.09854  0.84808  0.95783  Biso   1.000  O
  O11      1.0000 0.85028  0.90027  0.06733  Biso   1.000  O
  O12      1.0000 0.63629  0.89480  0.10522  Biso   1.000  O
  O13      1.0000 0.31188  0.69800  0.24952  Biso   1.000  O
  O14      1.0000 0.45124  0.69439  0.13374  Biso   1.000  O
  O15      1.0000 0.52030  0.87097  0.28671  Biso   1.000  O
  O16      1.0000 0.51856  0.03914  0.36340  Biso   1.000  O
  O17      1.0000 0.25054  0.84599  0.38760  Biso   1.000  O
  O18      1.0000 0.29383  0.98723  0.48872  Biso   1.000  O
  O19      1.0000 0.58968  0.64901  0.30645  Biso   1.000  O
  O20      1.0000 0.61856  0.48843  0.38406  Biso   1.000  O
  O21      1.0000 0.52478  0.81287  0.47905  Biso   1.000  O
  O22      1.0000 0.59854  0.65192  0.54217  Biso   1.000  O
  O23      1.0000 0.35028  0.59973  0.43267  Biso   1.000  O
  O24      1.0000 0.13629  0.60520  0.39478  Biso   1.000  O
  O25      1.0000 0.18812  0.19800  0.74952  Biso   1.000  O
  O26      1.0000 0.04876  0.19439  0.63374  Biso   1.000  O
  O27      1.0000 0.97970  0.37097  0.78671  Biso   1.000  O
  O28      1.0000 0.98144  0.53914  0.86340  Biso   1.000  O
  O29      1.0000 0.24946  0.34599  0.88760  Biso   1.000  O
  O30      1.0000 0.20617  0.48723  0.98872  Biso   1.000  O
  O31      1.0000 0.91032  0.14901  0.80645  Biso   1.000  O
  O32      1.0000 0.88144  0.98843  0.88406  Biso   1.000  O
  O33      1.0000 0.97522  0.31287  0.97905  Biso   1.000  O
  O34      1.0000 0.90146  0.15192  0.04217  Biso   1.000  O
  O35      1.0000 0.14972  0.09973  0.93267  Biso   1.000  O
  O36      1.0000 0.36371  0.10520  0.89478  Biso   1.000  O
  O37      1.0000 0.68812  0.30200  0.75048  Biso   1.000  O
  O38      1.0000 0.54876  0.30561  0.86626  Biso   1.000  O
  O39      1.0000 0.47970  0.12903  0.71329  Biso   1.000  O
  O40      1.0000 0.48144  0.96086  0.63660  Biso   1.000  O
  O41      1.0000 0.74946  0.15401  0.61240  Biso   1.000  O
  O42      1.0000 0.70617  0.01277  0.51128  Biso   1.000  O
  O43      1.0000 0.41032  0.35099  0.69355  Biso   1.000  O
  O44      1.0000 0.38144  0.51157  0.61594  Biso   1.000  O
  O45      1.0000 0.47522  0.18713  0.52095  Biso   1.000  O
  O46      1.0000 0.40146  0.34808  0.45783  Biso   1.000  O
  O47      1.0000 0.64972  0.40027  0.56733  Biso   1.000  O
  O48      1.0000 0.86371  0.39480  0.60522  Biso   1.000  O
