data_image0
_cell_length_a       9.8862
_cell_length_b       11.3577
_cell_length_c       14.4959
_cell_angle_alpha    91.2516
_cell_angle_beta     90
_cell_angle_gamma    90

_symmetry_space_group_name_H-M    P 1
_symmetry_int_tables_number       1

loop_
  _symmetry_equiv_pos_as_xyz
  'x, y, z'

loop_
  _atom_site_label
  _atom_site_occupancy
  _atom_site_fract_x
  _atom_site_fract_y
  _atom_site_fract_z
  _atom_site_thermal_displace_type
  _atom_site_B_iso_or_equiv
  _atom_site_type_symbol
  Fe1      1.0000 0.91859  0.75540  0.13244  Biso   1.000  Fe
  Fe2      1.0000 0.89455  0.26052  0.68610  Biso   1.000  Fe
  Fe3      1.0000 0.41859  0.74460  0.36756  Biso   1.000  Fe
  Fe4      1.0000 0.39455  0.23948  0.81390  Biso   1.000  Fe
  Fe5      1.0000 0.08141  0.24460  0.86756  Biso   1.000  Fe
  Fe6      1.0000 0.10545  0.73948  0.31390  Biso   1.000  Fe
  Fe7      1.0000 0.58141  0.25540  0.63244  Biso   1.000  Fe
  Fe8      1.0000 0.60545  0.76052  0.18610  Biso   1.000  Fe
  Fe9      1.0000 0.00000  0.50000  0.00000  Biso   1.000  Fe
  Fe10     1.0000 0.50000  0.00000  0.50000  Biso   1.000  Fe
  Fe11     1.0000 0.00000  0.00000  0.00000  Biso   1.000  Fe
  Fe12     1.0000 0.50000  0.50000  0.50000  Biso   1.000  Fe
  H1       1.0000 0.74950  0.85920  0.36860  Biso   1.000  H
  H2       1.0000 0.02450  0.47400  0.26900  Biso   1.000  H
  H3       1.0000 0.61660  0.55670  0.03630  Biso   1.000  H
  H4       1.0000 0.17490  0.98890  0.24020  Biso   1.000  H
  H5       1.0000 0.16680  0.69780  0.93060  Biso   1.000  H
  H6       1.0000 0.69980  0.98380  0.99960  Biso   1.000  H
  H7       1.0000 0.24950  0.64080  0.13140  Biso   1.000  H
  H8       1.0000 0.52450  0.02600  0.23100  Biso   1.000  H
  H9       1.0000 0.11660  0.94330  0.46370  Biso   1.000  H
  H10      1.0000 0.67490  0.51110  0.25980  Biso   1.000  H
  H11      1.0000 0.66680  0.80220  0.56940  Biso   1.000  H
  H12      1.0000 0.19980  0.51620  0.50040  Biso   1.000  H
  H13      1.0000 0.25050  0.14080  0.63140  Biso   1.000  H
  H14      1.0000 0.97550  0.52600  0.73100  Biso   1.000  H
  H15      1.0000 0.38340  0.44330  0.96370  Biso   1.000  H
  H16      1.0000 0.82510  0.01110  0.75980  Biso   1.000  H
  H17      1.0000 0.83320  0.30220  0.06940  Biso   1.000  H
  H18      1.0000 0.30020  0.01620  0.00040  Biso   1.000  H
  H19      1.0000 0.75050  0.35920  0.86860  Biso   1.000  H
  H20      1.0000 0.47550  0.97400  0.76900  Biso   1.000  H
  H21      1.0000 0.88340  0.05670  0.53630  Biso   1.000  H
  H22      1.0000 0.32510  0.48890  0.74020  Biso   1.000  H
  H23      1.0000 0.33320  0.19780  0.43060  Biso   1.000  H
  H24      1.0000 0.80020  0.48380  0.49960  Biso   1.000  H
  C1       1.0000 0.82150  0.82865  0.33185  Biso   1.000  C
  C2       1.0000 0.00750  0.51510  0.21380  Biso   1.000  C
  C3       1.0000 0.70980  0.57450  0.04460  Biso   1.000  C
  C4       1.0000 0.12020  0.95820  0.19140  Biso   1.000  C
  C5       1.0000 0.10950  0.74338  0.96988  Biso   1.000  C
  C6       1.0000 0.71640  0.92662  0.04512  Biso   1.000  C
  C7       1.0000 0.32150  0.67135  0.16815  Biso   1.000  C
  C8       1.0000 0.50750  0.98490  0.28620  Biso   1.000  C
  C9       1.0000 0.20980  0.92550  0.45540  Biso   1.000  C
  C10      1.0000 0.62020  0.54180  0.30860  Biso   1.000  C
  C11      1.0000 0.60950  0.75662  0.53012  Biso   1.000  C
  C12      1.0000 0.21640  0.57338  0.45488  Biso   1.000  C
  C13      1.0000 0.17850  0.17135  0.66815  Biso   1.000  C
  C14      1.0000 0.99250  0.48490  0.78620  Biso   1.000  C
  C15      1.0000 0.29020  0.42550  0.95540  Biso   1.000  C
  C16      1.0000 0.87980  0.04180  0.80860  Biso   1.000  C
  C17      1.0000 0.89050  0.25662  0.03012  Biso   1.000  C
  C18      1.0000 0.28360  0.07338  0.95488  Biso   1.000  C
  C19      1.0000 0.67850  0.32865  0.83185  Biso   1.000  C
  C20      1.0000 0.49250  0.01510  0.71380  Biso   1.000  C
  C21      1.0000 0.79020  0.07450  0.54460  Biso   1.000  C
  C22      1.0000 0.37980  0.45820  0.69140  Biso   1.000  C
  C23      1.0000 0.39050  0.24338  0.46988  Biso   1.000  C
  C24      1.0000 0.78360  0.42662  0.54512  Biso   1.000  C
  O1       1.0000 0.79609  0.80854  0.24664  Biso   1.000  O
  O2       1.0000 0.93052  0.81223  0.37133  Biso   1.000  O
  O3       1.0000 0.00107  0.62633  0.22023  Biso   1.000  O
  O4       1.0000 0.99375  0.45524  0.14234  Biso   1.000  O
  O5       1.0000 0.73950  0.65181  0.10581  Biso   1.000  O
  O6       1.0000 0.79096  0.51991  0.99461  Biso   1.000  O
  O7       1.0000 0.07999  0.85241  0.19847  Biso   1.000  O
  O8       1.0000 0.09535  0.02458  0.12788  Biso   1.000  O
  O9       1.0000 0.02930  0.68709  0.02269  Biso   1.000  O
  O10      1.0000 0.11882  0.85078  0.96548  Biso   1.000  O
  O11      1.0000 0.83939  0.89632  0.05757  Biso   1.000  O
  O12      1.0000 0.61704  0.88876  0.08666  Biso   1.000  O
  O13      1.0000 0.29609  0.69146  0.25336  Biso   1.000  O
  O14      1.0000 0.43052  0.68777  0.12867  Biso   1.000  O
  O15      1.0000 0.50107  0.87367  0.27977  Biso   1.000  O
  O16      1.0000 0.49375  0.04476  0.35766  Biso   1.000  O
  O17      1.0000 0.23950  0.84819  0.39419  Biso   1.000  O
  O18      1.0000 0.29096  0.98009  0.50539  Biso   1.000  O
  O19      1.0000 0.57999  0.64759  0.30153  Biso   1.000  O
  O20      1.0000 0.59535  0.47542  0.37212  Biso   1.000  O
  O21      1.0000 0.52930  0.81291  0.47731  Biso   1.000  O
  O22      1.0000 0.61882  0.64922  0.53452  Biso   1.000  O
  O23      1.0000 0.33939  0.60368  0.44243  Biso   1.000  O
  O24      1.0000 0.11704  0.61124  0.41334  Biso   1.000  O
  O25      1.0000 0.20391  0.19146  0.75336  Biso   1.000  O
  O26      1.0000 0.06948  0.18777  0.62867  Biso   1.000  O
  O27      1.0000 0.99893  0.37367  0.77977  Biso   1.000  O
  O28      1.0000 0.00625  0.54476  0.85766  Biso   1.000  O
  O29      1.0000 0.26050  0.34819  0.89419  Biso   1.000  O
  O30      1.0000 0.20904  0.48009  0.00539  Biso   1.000  O
  O31      1.0000 0.92001  0.14759  0.80153  Biso   1.000  O
  O32      1.0000 0.90465  0.97542  0.87212  Biso   1.000  O
  O33      1.0000 0.97070  0.31291  0.97731  Biso   1.000  O
  O34      1.0000 0.88118  0.14922  0.03452  Biso   1.000  O
  O35      1.0000 0.16061  0.10368  0.94243  Biso   1.000  O
  O36      1.0000 0.38296  0.11124  0.91334  Biso   1.000  O
  O37      1.0000 0.70391  0.30854  0.74664  Biso   1.000  O
  O38      1.0000 0.56948  0.31223  0.87133  Biso   1.000  O
  O39      1.0000 0.49893  0.12633  0.72023  Biso   1.000  O
  O40      1.0000 0.50625  0.95524  0.64234  Biso   1.000  O
  O41      1.0000 0.76050  0.15181  0.60581  Biso   1.000  O
  O42      1.0000 0.70904  0.01991  0.49461  Biso   1.000  O
  O43      1.0000 0.42001  0.35241  0.69847  Biso   1.000  O
  O44      1.0000 0.40465  0.52458  0.62788  Biso   1.000  O
  O45      1.0000 0.47070  0.18709  0.52269  Biso   1.000  O
  O46      1.0000 0.38118  0.35078  0.46548  Biso   1.000  O
  O47      1.0000 0.66061  0.39632  0.55757  Biso   1.000  O
  O48      1.0000 0.88296  0.38876  0.58666  Biso   1.000  O
