data_image0
_cell_length_a       9.9803
_cell_length_b       11.4525
_cell_length_c       14.8619
_cell_angle_alpha    91.278
_cell_angle_beta     90
_cell_angle_gamma    90

_symmetry_space_group_name_H-M    P 1
_symmetry_int_tables_number       1

loop_
  _symmetry_equiv_pos_as_xyz
  'x, y, z'

loop_
  _atom_site_label
  _atom_site_occupancy
  _atom_site_fract_x
  _atom_site_fract_y
  _atom_site_fract_z
  _atom_site_thermal_displace_type
  _atom_site_B_iso_or_equiv
  _atom_site_type_symbol
  Fe1      1.0000 0.92377  0.75591  0.13368  Biso   1.000  Fe
  Fe2      1.0000 0.88453  0.26049  0.69198  Biso   1.000  Fe
  Fe3      1.0000 0.42377  0.74409  0.36632  Biso   1.000  Fe
  Fe4      1.0000 0.38453  0.23951  0.80802  Biso   1.000  Fe
  Fe5      1.0000 0.07623  0.24409  0.86632  Biso   1.000  Fe
  Fe6      1.0000 0.11547  0.73951  0.30802  Biso   1.000  Fe
  Fe7      1.0000 0.57623  0.25591  0.63368  Biso   1.000  Fe
  Fe8      1.0000 0.61547  0.76049  0.19198  Biso   1.000  Fe
  Fe9      1.0000 0.00000  0.50000  0.00000  Biso   1.000  Fe
  Fe10     1.0000 0.50000  0.00000  0.50000  Biso   1.000  Fe
  Fe11     1.0000 0.00000  0.00000  0.00000  Biso   1.000  Fe
  Fe12     1.0000 0.50000  0.50000  0.50000  Biso   1.000  Fe
  H1       1.0000 0.75800  0.84280  0.37080  Biso   1.000  H
  H2       1.0000 0.05600  0.47130  0.26130  Biso   1.000  H
  H3       1.0000 0.62000  0.55360  0.05160  Biso   1.000  H
  H4       1.0000 0.20600  0.97800  0.22300  Biso   1.000  H
  H5       1.0000 0.14600  0.69610  0.92710  Biso   1.000  H
  H6       1.0000 0.70800  0.00170  0.02170  Biso   1.000  H
  H7       1.0000 0.25800  0.65720  0.12920  Biso   1.000  H
  H8       1.0000 0.55600  0.02870  0.23870  Biso   1.000  H
  H9       1.0000 0.12000  0.94640  0.44840  Biso   1.000  H
  H10      1.0000 0.70600  0.52200  0.27700  Biso   1.000  H
  H11      1.0000 0.64600  0.80390  0.57290  Biso   1.000  H
  H12      1.0000 0.20800  0.49830  0.47830  Biso   1.000  H
  H13      1.0000 0.24200  0.15720  0.62920  Biso   1.000  H
  H14      1.0000 0.94400  0.52870  0.73870  Biso   1.000  H
  H15      1.0000 0.38000  0.44640  0.94840  Biso   1.000  H
  H16      1.0000 0.79400  0.02200  0.77700  Biso   1.000  H
  H17      1.0000 0.85400  0.30390  0.07290  Biso   1.000  H
  H18      1.0000 0.29200  0.99830  0.97830  Biso   1.000  H
  H19      1.0000 0.74200  0.34280  0.87080  Biso   1.000  H
  H20      1.0000 0.44400  0.97130  0.76130  Biso   1.000  H
  H21      1.0000 0.88000  0.05360  0.55160  Biso   1.000  H
  H22      1.0000 0.29400  0.47800  0.72300  Biso   1.000  H
  H23      1.0000 0.35400  0.19610  0.42710  Biso   1.000  H
  H24      1.0000 0.79200  0.50170  0.52170  Biso   1.000  H
  C1       1.0000 0.83300  0.81926  0.33286  Biso   1.000  C
  C2       1.0000 0.03050  0.51781  0.20651  Biso   1.000  C
  C3       1.0000 0.71330  0.57093  0.05643  Biso   1.000  C
  C4       1.0000 0.13820  0.95110  0.18190  Biso   1.000  C
  C5       1.0000 0.09560  0.74238  0.96538  Biso   1.000  C
  C6       1.0000 0.72570  0.93699  0.06159  Biso   1.000  C
  C7       1.0000 0.33300  0.68074  0.16714  Biso   1.000  C
  C8       1.0000 0.53050  0.98219  0.29349  Biso   1.000  C
  C9       1.0000 0.21330  0.92907  0.44357  Biso   1.000  C
  C10      1.0000 0.63820  0.54890  0.31810  Biso   1.000  C
  C11      1.0000 0.59560  0.75762  0.53462  Biso   1.000  C
  C12      1.0000 0.22570  0.56301  0.43841  Biso   1.000  C
  C13      1.0000 0.16700  0.18074  0.66714  Biso   1.000  C
  C14      1.0000 0.96950  0.48219  0.79349  Biso   1.000  C
  C15      1.0000 0.28670  0.42907  0.94357  Biso   1.000  C
  C16      1.0000 0.86180  0.04890  0.81810  Biso   1.000  C
  C17      1.0000 0.90440  0.25762  0.03462  Biso   1.000  C
  C18      1.0000 0.27430  0.06301  0.93841  Biso   1.000  C
  C19      1.0000 0.66700  0.31926  0.83286  Biso   1.000  C
  C20      1.0000 0.46950  0.01781  0.70651  Biso   1.000  C
  C21      1.0000 0.78670  0.07093  0.55643  Biso   1.000  C
  C22      1.0000 0.36180  0.45110  0.68190  Biso   1.000  C
  C23      1.0000 0.40440  0.24238  0.46538  Biso   1.000  C
  C24      1.0000 0.77430  0.43699  0.56159  Biso   1.000  C
  O1       1.0000 0.80613  0.80349  0.24967  Biso   1.000  O
  O2       1.0000 0.94314  0.80362  0.36889  Biso   1.000  O
  O3       1.0000 0.01358  0.62716  0.21478  Biso   1.000  O
  O4       1.0000 0.01456  0.45797  0.13737  Biso   1.000  O
  O5       1.0000 0.74544  0.65416  0.10994  Biso   1.000  O
  O6       1.0000 0.79106  0.51293  0.00825  Biso   1.000  O
  O7       1.0000 0.08570  0.85161  0.19564  Biso   1.000  O
  O8       1.0000 0.11513  0.01453  0.11806  Biso   1.000  O
  O9       1.0000 0.02476  0.68690  0.02232  Biso   1.000  O
  O10      1.0000 0.10313  0.84846  0.95847  Biso   1.000  O
  O11      1.0000 0.84662  0.90087  0.06615  Biso   1.000  O
  O12      1.0000 0.62902  0.89759  0.10283  Biso   1.000  O
  O13      1.0000 0.30613  0.69651  0.25033  Biso   1.000  O
  O14      1.0000 0.44314  0.69638  0.13111  Biso   1.000  O
  O15      1.0000 0.51358  0.87284  0.28522  Biso   1.000  O
  O16      1.0000 0.51456  0.04203  0.36263  Biso   1.000  O
  O17      1.0000 0.24544  0.84584  0.39006  Biso   1.000  O
  O18      1.0000 0.29106  0.98707  0.49175  Biso   1.000  O
  O19      1.0000 0.58570  0.64839  0.30436  Biso   1.000  O
  O20      1.0000 0.61513  0.48547  0.38194  Biso   1.000  O
  O21      1.0000 0.52476  0.81310  0.47768  Biso   1.000  O
  O22      1.0000 0.60313  0.65154  0.54153  Biso   1.000  O
  O23      1.0000 0.34662  0.59913  0.43385  Biso   1.000  O
  O24      1.0000 0.12902  0.60241  0.39717  Biso   1.000  O
  O25      1.0000 0.19387  0.19651  0.75033  Biso   1.000  O
  O26      1.0000 0.05686  0.19638  0.63111  Biso   1.000  O
  O27      1.0000 0.98642  0.37284  0.78522  Biso   1.000  O
  O28      1.0000 0.98544  0.54203  0.86263  Biso   1.000  O
  O29      1.0000 0.25456  0.34584  0.89006  Biso   1.000  O
  O30      1.0000 0.20894  0.48707  0.99175  Biso   1.000  O
  O31      1.0000 0.91430  0.14839  0.80436  Biso   1.000  O
  O32      1.0000 0.88487  0.98547  0.88194  Biso   1.000  O
  O33      1.0000 0.97524  0.31310  0.97768  Biso   1.000  O
  O34      1.0000 0.89687  0.15154  0.04153  Biso   1.000  O
  O35      1.0000 0.15338  0.09913  0.93385  Biso   1.000  O
  O36      1.0000 0.37098  0.10241  0.89717  Biso   1.000  O
  O37      1.0000 0.69387  0.30349  0.74967  Biso   1.000  O
  O38      1.0000 0.55686  0.30362  0.86889  Biso   1.000  O
  O39      1.0000 0.48642  0.12716  0.71478  Biso   1.000  O
  O40      1.0000 0.48544  0.95797  0.63737  Biso   1.000  O
  O41      1.0000 0.75456  0.15416  0.60994  Biso   1.000  O
  O42      1.0000 0.70894  0.01293  0.50825  Biso   1.000  O
  O43      1.0000 0.41430  0.35161  0.69564  Biso   1.000  O
  O44      1.0000 0.38487  0.51453  0.61806  Biso   1.000  O
  O45      1.0000 0.47524  0.18690  0.52232  Biso   1.000  O
  O46      1.0000 0.39687  0.34846  0.45847  Biso   1.000  O
  O47      1.0000 0.65338  0.40087  0.56615  Biso   1.000  O
  O48      1.0000 0.87098  0.39759  0.60283  Biso   1.000  O
