data_image0
_cell_length_a       9.9627
_cell_length_b       11.4207
_cell_length_c       14.5907
_cell_angle_alpha    91.4249
_cell_angle_beta     90
_cell_angle_gamma    90

_symmetry_space_group_name_H-M    P 1
_symmetry_int_tables_number       1

loop_
  _symmetry_equiv_pos_as_xyz
  'x, y, z'

loop_
  _atom_site_label
  _atom_site_occupancy
  _atom_site_fract_x
  _atom_site_fract_y
  _atom_site_fract_z
  _atom_site_thermal_displace_type
  _atom_site_B_iso_or_equiv
  _atom_site_type_symbol
  Fe1      1.0000 0.92033  0.75546  0.13273  Biso   1.000  Fe
  Fe2      1.0000 0.89094  0.25999  0.68775  Biso   1.000  Fe
  Fe3      1.0000 0.42033  0.74454  0.36727  Biso   1.000  Fe
  Fe4      1.0000 0.39094  0.24001  0.81225  Biso   1.000  Fe
  Fe5      1.0000 0.07967  0.24454  0.86727  Biso   1.000  Fe
  Fe6      1.0000 0.10906  0.74001  0.31225  Biso   1.000  Fe
  Fe7      1.0000 0.57967  0.25546  0.63273  Biso   1.000  Fe
  Fe8      1.0000 0.60906  0.75999  0.18775  Biso   1.000  Fe
  Fe9      1.0000 0.00000  0.50000  0.00000  Biso   1.000  Fe
  Fe10     1.0000 0.50000  1.00000  0.50000  Biso   1.000  Fe
  Fe11     1.0000 0.00000  0.00000  0.00000  Biso   1.000  Fe
  Fe12     1.0000 0.50000  0.50000  0.50000  Biso   1.000  Fe
  H1       1.0000 0.75670  0.85620  0.36820  Biso   1.000  H
  H2       1.0000 0.03360  0.47800  0.26510  Biso   1.000  H
  H3       1.0000 0.62150  0.55550  0.04240  Biso   1.000  H
  H4       1.0000 0.18120  0.98340  0.23460  Biso   1.000  H
  H5       1.0000 0.15910  0.69970  0.92870  Biso   1.000  H
  H6       1.0000 0.70310  0.98470  0.00620  Biso   1.000  H
  H7       1.0000 0.25670  0.64380  0.13180  Biso   1.000  H
  H8       1.0000 0.53360  0.02200  0.23490  Biso   1.000  H
  H9       1.0000 0.12150  0.94450  0.45760  Biso   1.000  H
  H10      1.0000 0.68120  0.51660  0.26540  Biso   1.000  H
  H11      1.0000 0.65910  0.80030  0.57130  Biso   1.000  H
  H12      1.0000 0.20310  0.51530  0.49380  Biso   1.000  H
  H13      1.0000 0.24330  0.14380  0.63180  Biso   1.000  H
  H14      1.0000 0.96640  0.52200  0.73490  Biso   1.000  H
  H15      1.0000 0.37850  0.44450  0.95760  Biso   1.000  H
  H16      1.0000 0.81880  0.01660  0.76540  Biso   1.000  H
  H17      1.0000 0.84090  0.30030  0.07130  Biso   1.000  H
  H18      1.0000 0.29690  0.01530  0.99380  Biso   1.000  H
  H19      1.0000 0.74330  0.35620  0.86820  Biso   1.000  H
  H20      1.0000 0.46640  0.97800  0.76510  Biso   1.000  H
  H21      1.0000 0.87850  0.05550  0.54240  Biso   1.000  H
  H22      1.0000 0.31880  0.48340  0.73460  Biso   1.000  H
  H23      1.0000 0.34090  0.19970  0.42870  Biso   1.000  H
  H24      1.0000 0.79690  0.48470  0.50620  Biso   1.000  H
  C1       1.0000 0.82620  0.82703  0.33173  Biso   1.000  C
  C2       1.0000 0.01450  0.51761  0.21171  Biso   1.000  C
  C3       1.0000 0.71210  0.57350  0.04880  Biso   1.000  C
  C4       1.0000 0.12490  0.95463  0.18843  Biso   1.000  C
  C5       1.0000 0.10450  0.74367  0.96817  Biso   1.000  C
  C6       1.0000 0.71980  0.92765  0.04915  Biso   1.000  C
  C7       1.0000 0.32620  0.67297  0.16827  Biso   1.000  C
  C8       1.0000 0.51450  0.98239  0.28829  Biso   1.000  C
  C9       1.0000 0.21210  0.92650  0.45120  Biso   1.000  C
  C10      1.0000 0.62490  0.54537  0.31157  Biso   1.000  C
  C11      1.0000 0.60450  0.75633  0.53183  Biso   1.000  C
  C12      1.0000 0.21980  0.57235  0.45085  Biso   1.000  C
  C13      1.0000 0.17380  0.17297  0.66827  Biso   1.000  C
  C14      1.0000 0.98550  0.48239  0.78829  Biso   1.000  C
  C15      1.0000 0.28790  0.42650  0.95120  Biso   1.000  C
  C16      1.0000 0.87510  0.04537  0.81157  Biso   1.000  C
  C17      1.0000 0.89550  0.25633  0.03183  Biso   1.000  C
  C18      1.0000 0.28020  0.07235  0.95085  Biso   1.000  C
  C19      1.0000 0.67380  0.32703  0.83173  Biso   1.000  C
  C20      1.0000 0.48550  0.01761  0.71171  Biso   1.000  C
  C21      1.0000 0.78790  0.07350  0.54880  Biso   1.000  C
  C22      1.0000 0.37510  0.45463  0.68843  Biso   1.000  C
  C23      1.0000 0.39550  0.24367  0.46817  Biso   1.000  C
  C24      1.0000 0.78020  0.42765  0.54915  Biso   1.000  C
  O1       1.0000 0.79947  0.80715  0.24755  Biso   1.000  O
  O2       1.0000 0.93547  0.81137  0.36987  Biso   1.000  O
  O3       1.0000 0.00567  0.62759  0.21859  Biso   1.000  O
  O4       1.0000 0.00020  0.45784  0.14134  Biso   1.000  O
  O5       1.0000 0.74206  0.65181  0.10731  Biso   1.000  O
  O6       1.0000 0.79150  0.51789  0.99869  Biso   1.000  O
  O7       1.0000 0.08166  0.85219  0.19719  Biso   1.000  O
  O8       1.0000 0.10090  0.02082  0.12562  Biso   1.000  O
  O9       1.0000 0.02757  0.68698  0.02178  Biso   1.000  O
  O10      1.0000 0.11280  0.84991  0.96411  Biso   1.000  O
  O11      1.0000 0.84235  0.89673  0.05970  Biso   1.000  O
  O12      1.0000 0.62191  0.88904  0.09044  Biso   1.000  O
  O13      1.0000 0.29947  0.69285  0.25245  Biso   1.000  O
  O14      1.0000 0.43547  0.68863  0.13013  Biso   1.000  O
  O15      1.0000 0.50567  0.87241  0.28141  Biso   1.000  O
  O16      1.0000 0.50020  0.04216  0.35866  Biso   1.000  O
  O17      1.0000 0.24206  0.84819  0.39269  Biso   1.000  O
  O18      1.0000 0.29150  0.98211  0.50131  Biso   1.000  O
  O19      1.0000 0.58166  0.64781  0.30281  Biso   1.000  O
  O20      1.0000 0.60090  0.47918  0.37438  Biso   1.000  O
  O21      1.0000 0.52757  0.81302  0.47822  Biso   1.000  O
  O22      1.0000 0.61280  0.65009  0.53589  Biso   1.000  O
  O23      1.0000 0.34235  0.60327  0.44030  Biso   1.000  O
  O24      1.0000 0.12191  0.61096  0.40956  Biso   1.000  O
  O25      1.0000 0.20053  0.19285  0.75245  Biso   1.000  O
  O26      1.0000 0.06453  0.18863  0.63013  Biso   1.000  O
  O27      1.0000 0.99433  0.37241  0.78141  Biso   1.000  O
  O28      1.0000 0.99980  0.54216  0.85866  Biso   1.000  O
  O29      1.0000 0.25794  0.34819  0.89269  Biso   1.000  O
  O30      1.0000 0.20850  0.48211  0.00131  Biso   1.000  O
  O31      1.0000 0.91834  0.14781  0.80281  Biso   1.000  O
  O32      1.0000 0.89910  0.97918  0.87438  Biso   1.000  O
  O33      1.0000 0.97243  0.31302  0.97822  Biso   1.000  O
  O34      1.0000 0.88720  0.15009  0.03589  Biso   1.000  O
  O35      1.0000 0.15765  0.10327  0.94030  Biso   1.000  O
  O36      1.0000 0.37809  0.11096  0.90956  Biso   1.000  O
  O37      1.0000 0.70053  0.30715  0.74755  Biso   1.000  O
  O38      1.0000 0.56453  0.31137  0.86987  Biso   1.000  O
  O39      1.0000 0.49433  0.12759  0.71859  Biso   1.000  O
  O40      1.0000 0.49980  0.95784  0.64134  Biso   1.000  O
  O41      1.0000 0.75794  0.15181  0.60731  Biso   1.000  O
  O42      1.0000 0.70850  0.01789  0.49869  Biso   1.000  O
  O43      1.0000 0.41834  0.35219  0.69719  Biso   1.000  O
  O44      1.0000 0.39910  0.52082  0.62562  Biso   1.000  O
  O45      1.0000 0.47243  0.18698  0.52178  Biso   1.000  O
  O46      1.0000 0.38720  0.34991  0.46411  Biso   1.000  O
  O47      1.0000 0.65765  0.39673  0.55970  Biso   1.000  O
  O48      1.0000 0.87809  0.38904  0.59044  Biso   1.000  O
