data_image0
_cell_length_a       9.9369
_cell_length_b       11.4443
_cell_length_c       14.8142
_cell_angle_alpha    91.4747
_cell_angle_beta     90
_cell_angle_gamma    90

_symmetry_space_group_name_H-M    P 1
_symmetry_int_tables_number       1

loop_
  _symmetry_equiv_pos_as_xyz
  'x, y, z'

loop_
  _atom_site_label
  _atom_site_occupancy
  _atom_site_fract_x
  _atom_site_fract_y
  _atom_site_fract_z
  _atom_site_thermal_displace_type
  _atom_site_B_iso_or_equiv
  _atom_site_type_symbol
  Fe1      1.0000 0.92445  0.75637  0.13294  Biso   1.000  Fe
  Fe2      1.0000 0.61530  0.75996  0.19201  Biso   1.000  Fe
  Fe3      1.0000 0.42445  0.74363  0.36706  Biso   1.000  Fe
  Fe4      1.0000 0.11530  0.74004  0.30799  Biso   1.000  Fe
  Fe5      1.0000 0.07555  0.24363  0.86706  Biso   1.000  Fe
  Fe6      1.0000 0.38470  0.24004  0.80799  Biso   1.000  Fe
  Fe7      1.0000 0.57555  0.25637  0.63294  Biso   1.000  Fe
  Fe8      1.0000 0.88470  0.25996  0.69201  Biso   1.000  Fe
  Fe9      1.0000 0.00000  0.50000  0.00000  Biso   1.000  Fe
  Fe10     1.0000 0.50000  1.00000  0.50000  Biso   1.000  Fe
  Fe11     1.0000 0.00000  0.00000  0.00000  Biso   1.000  Fe
  Fe12     1.0000 0.50000  0.50000  0.50000  Biso   1.000  Fe
  H1       1.0000 0.76330  0.85420  0.36940  Biso   1.000  H
  H2       1.0000 0.04710  0.47720  0.26080  Biso   1.000  H
  H3       1.0000 0.62030  0.55630  0.04620  Biso   1.000  H
  H4       1.0000 0.20270  0.97880  0.22540  Biso   1.000  H
  H5       1.0000 0.15860  0.69650  0.92770  Biso   1.000  H
  H6       1.0000 0.70660  0.99660  0.01950  Biso   1.000  H
  H7       1.0000 0.26330  0.64580  0.13060  Biso   1.000  H
  H8       1.0000 0.54710  0.02280  0.23920  Biso   1.000  H
  H9       1.0000 0.12030  0.94370  0.45380  Biso   1.000  H
  H10      1.0000 0.70270  0.52120  0.27460  Biso   1.000  H
  H11      1.0000 0.65860  0.80350  0.57230  Biso   1.000  H
  H12      1.0000 0.20660  0.50340  0.48050  Biso   1.000  H
  H13      1.0000 0.23670  0.14580  0.63060  Biso   1.000  H
  H14      1.0000 0.95290  0.52280  0.73920  Biso   1.000  H
  H15      1.0000 0.37970  0.44370  0.95380  Biso   1.000  H
  H16      1.0000 0.79730  0.02120  0.77460  Biso   1.000  H
  H17      1.0000 0.84140  0.30350  0.07230  Biso   1.000  H
  H18      1.0000 0.29340  0.00340  0.98050  Biso   1.000  H
  H19      1.0000 0.73670  0.35420  0.86940  Biso   1.000  H
  H20      1.0000 0.45290  0.97720  0.76080  Biso   1.000  H
  H21      1.0000 0.87970  0.05630  0.54620  Biso   1.000  H
  H22      1.0000 0.29730  0.47880  0.72540  Biso   1.000  H
  H23      1.0000 0.34140  0.19650  0.42770  Biso   1.000  H
  H24      1.0000 0.79340  0.49660  0.51950  Biso   1.000  H
  C1       1.0000 0.83360  0.82420  0.33200  Biso   1.000  C
  C2       1.0000 0.02320  0.51729  0.20779  Biso   1.000  C
  C3       1.0000 0.71330  0.57455  0.05145  Biso   1.000  C
  C4       1.0000 0.13940  0.95126  0.18176  Biso   1.000  C
  C5       1.0000 0.10220  0.74208  0.96668  Biso   1.000  C
  C6       1.0000 0.72410  0.93460  0.05930  Biso   1.000  C
  C7       1.0000 0.33360  0.67580  0.16800  Biso   1.000  C
  C8       1.0000 0.52320  0.98271  0.29221  Biso   1.000  C
  C9       1.0000 0.21330  0.92545  0.44855  Biso   1.000  C
  C10      1.0000 0.63940  0.54874  0.31824  Biso   1.000  C
  C11      1.0000 0.60220  0.75792  0.53332  Biso   1.000  C
  C12      1.0000 0.22410  0.56540  0.44070  Biso   1.000  C
  C13      1.0000 0.16640  0.17580  0.66800  Biso   1.000  C
  C14      1.0000 0.97680  0.48271  0.79221  Biso   1.000  C
  C15      1.0000 0.28670  0.42545  0.94855  Biso   1.000  C
  C16      1.0000 0.86060  0.04874  0.81824  Biso   1.000  C
  C17      1.0000 0.89780  0.25792  0.03332  Biso   1.000  C
  C18      1.0000 0.27590  0.06540  0.94070  Biso   1.000  C
  C19      1.0000 0.66640  0.32420  0.83200  Biso   1.000  C
  C20      1.0000 0.47680  0.01729  0.70779  Biso   1.000  C
  C21      1.0000 0.78670  0.07455  0.55145  Biso   1.000  C
  C22      1.0000 0.36060  0.45126  0.68176  Biso   1.000  C
  C23      1.0000 0.39780  0.24208  0.46668  Biso   1.000  C
  C24      1.0000 0.77590  0.43460  0.55930  Biso   1.000  C
  O1       1.0000 0.80588  0.80593  0.24897  Biso   1.000  O
  O2       1.0000 0.44335  0.69339  0.13127  Biso   1.000  O
  O3       1.0000 0.01239  0.62785  0.21482  Biso   1.000  O
  O4       1.0000 0.00550  0.45743  0.13887  Biso   1.000  O
  O5       1.0000 0.74535  0.65442  0.10871  Biso   1.000  O
  O6       1.0000 0.79126  0.51817  0.00185  Biso   1.000  O
  O7       1.0000 0.08722  0.85140  0.19470  Biso   1.000  O
  O8       1.0000 0.11601  0.01552  0.11842  Biso   1.000  O
  O9       1.0000 0.02794  0.68673  0.02244  Biso   1.000  O
  O10      1.0000 0.10659  0.84876  0.95949  Biso   1.000  O
  O11      1.0000 0.84623  0.90008  0.06480  Biso   1.000  O
  O12      1.0000 0.62681  0.89549  0.10055  Biso   1.000  O
  O13      1.0000 0.30588  0.69407  0.25103  Biso   1.000  O
  O14      1.0000 0.94335  0.80661  0.36873  Biso   1.000  O
  O15      1.0000 0.51239  0.87215  0.28518  Biso   1.000  O
  O16      1.0000 0.50550  0.04257  0.36113  Biso   1.000  O
  O17      1.0000 0.24535  0.84558  0.39129  Biso   1.000  O
  O18      1.0000 0.29126  0.98183  0.49815  Biso   1.000  O
  O19      1.0000 0.58722  0.64860  0.30530  Biso   1.000  O
  O20      1.0000 0.61601  0.48448  0.38158  Biso   1.000  O
  O21      1.0000 0.52794  0.81327  0.47756  Biso   1.000  O
  O22      1.0000 0.60659  0.65124  0.54051  Biso   1.000  O
  O23      1.0000 0.34623  0.59992  0.43520  Biso   1.000  O
  O24      1.0000 0.12681  0.60451  0.39945  Biso   1.000  O
  O25      1.0000 0.19412  0.19407  0.75103  Biso   1.000  O
  O26      1.0000 0.55665  0.30661  0.86873  Biso   1.000  O
  O27      1.0000 0.98761  0.37215  0.78518  Biso   1.000  O
  O28      1.0000 0.99450  0.54257  0.86113  Biso   1.000  O
  O29      1.0000 0.25465  0.34558  0.89129  Biso   1.000  O
  O30      1.0000 0.20874  0.48183  0.99815  Biso   1.000  O
  O31      1.0000 0.91278  0.14860  0.80530  Biso   1.000  O
  O32      1.0000 0.88399  0.98448  0.88158  Biso   1.000  O
  O33      1.0000 0.97206  0.31327  0.97756  Biso   1.000  O
  O34      1.0000 0.89341  0.15124  0.04051  Biso   1.000  O
  O35      1.0000 0.15377  0.09992  0.93520  Biso   1.000  O
  O36      1.0000 0.37319  0.10451  0.89945  Biso   1.000  O
  O37      1.0000 0.69412  0.30593  0.74897  Biso   1.000  O
  O38      1.0000 0.05665  0.19339  0.63127  Biso   1.000  O
  O39      1.0000 0.48761  0.12785  0.71482  Biso   1.000  O
  O40      1.0000 0.49450  0.95743  0.63887  Biso   1.000  O
  O41      1.0000 0.75465  0.15442  0.60871  Biso   1.000  O
  O42      1.0000 0.70874  0.01817  0.50185  Biso   1.000  O
  O43      1.0000 0.41278  0.35140  0.69470  Biso   1.000  O
  O44      1.0000 0.38399  0.51552  0.61842  Biso   1.000  O
  O45      1.0000 0.47206  0.18673  0.52244  Biso   1.000  O
  O46      1.0000 0.39341  0.34876  0.45949  Biso   1.000  O
  O47      1.0000 0.65377  0.40008  0.56480  Biso   1.000  O
  O48      1.0000 0.87319  0.39549  0.60055  Biso   1.000  O
