data_image0
_cell_length_a       9.8058
_cell_length_b       11.3416
_cell_length_c       14.5534
_cell_angle_alpha    91.1962
_cell_angle_beta     90
_cell_angle_gamma    90

_symmetry_space_group_name_H-M    P 1
_symmetry_int_tables_number       1

loop_
  _symmetry_equiv_pos_as_xyz
  'x, y, z'

loop_
  _atom_site_label
  _atom_site_occupancy
  _atom_site_fract_x
  _atom_site_fract_y
  _atom_site_fract_z
  _atom_site_thermal_displace_type
  _atom_site_B_iso_or_equiv
  _atom_site_type_symbol
  Fe1      1.0000 0.91673  0.75594  0.13164  Biso   1.000  Fe
  Fe2      1.0000 0.89820  0.26085  0.68576  Biso   1.000  Fe
  Fe3      1.0000 0.41673  0.74406  0.36836  Biso   1.000  Fe
  Fe4      1.0000 0.39820  0.23915  0.81424  Biso   1.000  Fe
  Fe5      1.0000 0.08327  0.24406  0.86836  Biso   1.000  Fe
  Fe6      1.0000 0.10180  0.73915  0.31424  Biso   1.000  Fe
  Fe7      1.0000 0.58327  0.25594  0.63164  Biso   1.000  Fe
  Fe8      1.0000 0.60180  0.76085  0.18576  Biso   1.000  Fe
  Fe9      1.0000 0.00000  0.50000  0.00000  Biso   1.000  Fe
  Fe10     1.0000 0.50000  0.00000  0.50000  Biso   1.000  Fe
  Fe11     1.0000 0.00000  0.00000  0.00000  Biso   1.000  Fe
  Fe12     1.0000 0.50000  0.50000  0.50000  Biso   1.000  Fe
  H1       1.0000 0.74550  0.86430  0.36600  Biso   1.000  H
  H2       1.0000 0.01850  0.47280  0.26920  Biso   1.000  H
  H3       1.0000 0.61320  0.55900  0.03440  Biso   1.000  H
  H4       1.0000 0.18460  0.98340  0.23700  Biso   1.000  H
  H5       1.0000 0.17480  0.69800  0.93560  Biso   1.000  H
  H6       1.0000 0.69720  0.99240  0.00550  Biso   1.000  H
  H7       1.0000 0.24550  0.63570  0.13400  Biso   1.000  H
  H8       1.0000 0.51850  0.02720  0.23080  Biso   1.000  H
  H9       1.0000 0.11320  0.94100  0.46560  Biso   1.000  H
  H10      1.0000 0.68460  0.51660  0.26300  Biso   1.000  H
  H11      1.0000 0.67480  0.80200  0.56440  Biso   1.000  H
  H12      1.0000 0.19720  0.50760  0.49450  Biso   1.000  H
  H13      1.0000 0.25450  0.13570  0.63400  Biso   1.000  H
  H14      1.0000 0.98150  0.52720  0.73080  Biso   1.000  H
  H15      1.0000 0.38680  0.44100  0.96560  Biso   1.000  H
  H16      1.0000 0.81540  0.01660  0.76300  Biso   1.000  H
  H17      1.0000 0.82520  0.30200  0.06440  Biso   1.000  H
  H18      1.0000 0.30280  0.00760  0.99450  Biso   1.000  H
  H19      1.0000 0.75450  0.36430  0.86600  Biso   1.000  H
  H20      1.0000 0.48150  0.97280  0.76920  Biso   1.000  H
  H21      1.0000 0.88680  0.05900  0.53440  Biso   1.000  H
  H22      1.0000 0.31540  0.48340  0.73700  Biso   1.000  H
  H23      1.0000 0.32520  0.19800  0.43560  Biso   1.000  H
  H24      1.0000 0.80280  0.49240  0.50550  Biso   1.000  H
  C1       1.0000 0.81810  0.83289  0.32979  Biso   1.000  C
  C2       1.0000 0.00300  0.51418  0.21408  Biso   1.000  C
  C3       1.0000 0.70710  0.57679  0.04309  Biso   1.000  C
  C4       1.0000 0.12690  0.95479  0.18909  Biso   1.000  C
  C5       1.0000 0.11190  0.74327  0.97127  Biso   1.000  C
  C6       1.0000 0.71360  0.93138  0.04788  Biso   1.000  C
  C7       1.0000 0.31810  0.66711  0.17021  Biso   1.000  C
  C8       1.0000 0.50300  0.98582  0.28592  Biso   1.000  C
  C9       1.0000 0.20710  0.92321  0.45691  Biso   1.000  C
  C10      1.0000 0.62690  0.54521  0.31091  Biso   1.000  C
  C11      1.0000 0.61190  0.75673  0.52873  Biso   1.000  C
  C12      1.0000 0.21360  0.56862  0.45212  Biso   1.000  C
  C13      1.0000 0.18190  0.16711  0.67021  Biso   1.000  C
  C14      1.0000 0.99700  0.48582  0.78592  Biso   1.000  C
  C15      1.0000 0.29290  0.42321  0.95691  Biso   1.000  C
  C16      1.0000 0.87310  0.04521  0.81091  Biso   1.000  C
  C17      1.0000 0.88810  0.25673  0.02873  Biso   1.000  C
  C18      1.0000 0.28640  0.06862  0.95212  Biso   1.000  C
  C19      1.0000 0.68190  0.33289  0.82979  Biso   1.000  C
  C20      1.0000 0.49700  0.01418  0.71408  Biso   1.000  C
  C21      1.0000 0.79290  0.07679  0.54309  Biso   1.000  C
  C22      1.0000 0.37310  0.45479  0.68909  Biso   1.000  C
  C23      1.0000 0.38810  0.24327  0.47127  Biso   1.000  C
  C24      1.0000 0.78640  0.43138  0.54788  Biso   1.000  C
  O1       1.0000 0.79344  0.81098  0.24494  Biso   1.000  O
  O2       1.0000 0.92836  0.81671  0.36891  Biso   1.000  O
  O3       1.0000 0.99631  0.62600  0.22021  Biso   1.000  O
  O4       1.0000 0.99110  0.45461  0.14221  Biso   1.000  O
  O5       1.0000 0.73633  0.65238  0.10509  Biso   1.000  O
  O6       1.0000 0.78935  0.52356  0.99256  Biso   1.000  O
  O7       1.0000 0.08019  0.85066  0.19718  Biso   1.000  O
  O8       1.0000 0.10503  0.02184  0.12558  Biso   1.000  O
  O9       1.0000 0.03126  0.68625  0.02376  Biso   1.000  O
  O10      1.0000 0.11538  0.85062  0.96282  Biso   1.000  O
  O11      1.0000 0.83733  0.89806  0.05787  Biso   1.000  O
  O12      1.0000 0.61320  0.89137  0.08847  Biso   1.000  O
  O13      1.0000 0.29344  0.68902  0.25506  Biso   1.000  O
  O14      1.0000 0.42836  0.68329  0.13109  Biso   1.000  O
  O15      1.0000 0.49631  0.87400  0.27979  Biso   1.000  O
  O16      1.0000 0.49110  0.04539  0.35779  Biso   1.000  O
  O17      1.0000 0.23633  0.84762  0.39491  Biso   1.000  O
  O18      1.0000 0.28935  0.97644  0.50744  Biso   1.000  O
  O19      1.0000 0.58019  0.64934  0.30282  Biso   1.000  O
  O20      1.0000 0.60503  0.47816  0.37442  Biso   1.000  O
  O21      1.0000 0.53126  0.81375  0.47624  Biso   1.000  O
  O22      1.0000 0.61538  0.64938  0.53718  Biso   1.000  O
  O23      1.0000 0.33733  0.60194  0.44213  Biso   1.000  O
  O24      1.0000 0.11320  0.60863  0.41153  Biso   1.000  O
  O25      1.0000 0.20656  0.18902  0.75506  Biso   1.000  O
  O26      1.0000 0.07164  0.18329  0.63109  Biso   1.000  O
  O27      1.0000 0.00369  0.37400  0.77979  Biso   1.000  O
  O28      1.0000 0.00890  0.54539  0.85779  Biso   1.000  O
  O29      1.0000 0.26367  0.34762  0.89491  Biso   1.000  O
  O30      1.0000 0.21065  0.47644  0.00744  Biso   1.000  O
  O31      1.0000 0.91981  0.14934  0.80282  Biso   1.000  O
  O32      1.0000 0.89497  0.97816  0.87442  Biso   1.000  O
  O33      1.0000 0.96874  0.31375  0.97624  Biso   1.000  O
  O34      1.0000 0.88462  0.14938  0.03718  Biso   1.000  O
  O35      1.0000 0.16267  0.10194  0.94213  Biso   1.000  O
  O36      1.0000 0.38680  0.10863  0.91153  Biso   1.000  O
  O37      1.0000 0.70656  0.31098  0.74494  Biso   1.000  O
  O38      1.0000 0.57164  0.31671  0.86891  Biso   1.000  O
  O39      1.0000 0.50369  0.12600  0.72021  Biso   1.000  O
  O40      1.0000 0.50890  0.95461  0.64221  Biso   1.000  O
  O41      1.0000 0.76367  0.15238  0.60509  Biso   1.000  O
  O42      1.0000 0.71065  0.02356  0.49256  Biso   1.000  O
  O43      1.0000 0.41981  0.35066  0.69718  Biso   1.000  O
  O44      1.0000 0.39497  0.52184  0.62558  Biso   1.000  O
  O45      1.0000 0.46874  0.18625  0.52376  Biso   1.000  O
  O46      1.0000 0.38462  0.35062  0.46282  Biso   1.000  O
  O47      1.0000 0.66267  0.39806  0.55787  Biso   1.000  O
  O48      1.0000 0.88680  0.39137  0.58847  Biso   1.000  O
