data_image0
_cell_length_a       9.8855
_cell_length_b       11.4082
_cell_length_c       14.8051
_cell_angle_alpha    91.4107
_cell_angle_beta     90
_cell_angle_gamma    90

_symmetry_space_group_name_H-M    P 1
_symmetry_int_tables_number       1

loop_
  _symmetry_equiv_pos_as_xyz
  'x, y, z'

loop_
  _atom_site_label
  _atom_site_occupancy
  _atom_site_fract_x
  _atom_site_fract_y
  _atom_site_fract_z
  _atom_site_thermal_displace_type
  _atom_site_B_iso_or_equiv
  _atom_site_type_symbol
  Fe1      1.0000 0.92392  0.75654  0.13291  Biso   1.000  Fe
  Fe2      1.0000 0.88601  0.26019  0.69176  Biso   1.000  Fe
  Fe3      1.0000 0.42392  0.74346  0.36709  Biso   1.000  Fe
  Fe4      1.0000 0.38601  0.23981  0.80824  Biso   1.000  Fe
  Fe5      1.0000 0.07608  0.24346  0.86709  Biso   1.000  Fe
  Fe6      1.0000 0.11399  0.73981  0.30824  Biso   1.000  Fe
  Fe7      1.0000 0.57608  0.25654  0.63291  Biso   1.000  Fe
  Fe8      1.0000 0.61399  0.76019  0.19176  Biso   1.000  Fe
  Fe9      1.0000 0.00000  0.50000  0.00000  Biso   1.000  Fe
  Fe10     1.0000 0.50000  0.00000  0.50000  Biso   1.000  Fe
  Fe11     1.0000 0.00000  0.00000  0.00000  Biso   1.000  Fe
  Fe12     1.0000 0.50000  0.50000  0.50000  Biso   1.000  Fe
  H1       1.0000 0.76210  0.85480  0.36830  Biso   1.000  H
  H2       1.0000 0.04290  0.47650  0.26020  Biso   1.000  H
  H3       1.0000 0.62020  0.55810  0.04430  Biso   1.000  H
  H4       1.0000 0.20530  0.97700  0.22340  Biso   1.000  H
  H5       1.0000 0.16030  0.69680  0.92960  Biso   1.000  H
  H6       1.0000 0.70540  0.99480  0.01870  Biso   1.000  H
  H7       1.0000 0.26210  0.64520  0.13170  Biso   1.000  H
  H8       1.0000 0.54290  0.02350  0.23980  Biso   1.000  H
  H9       1.0000 0.12020  0.94190  0.45570  Biso   1.000  H
  H10      1.0000 0.70530  0.52300  0.27660  Biso   1.000  H
  H11      1.0000 0.66030  0.80320  0.57040  Biso   1.000  H
  H12      1.0000 0.20540  0.50520  0.48130  Biso   1.000  H
  H13      1.0000 0.23790  0.14520  0.63170  Biso   1.000  H
  H14      1.0000 0.95710  0.52350  0.73980  Biso   1.000  H
  H15      1.0000 0.37980  0.44190  0.95570  Biso   1.000  H
  H16      1.0000 0.79470  0.02300  0.77660  Biso   1.000  H
  H17      1.0000 0.83970  0.30320  0.07040  Biso   1.000  H
  H18      1.0000 0.29460  0.00520  0.98130  Biso   1.000  H
  H19      1.0000 0.73790  0.35480  0.86830  Biso   1.000  H
  H20      1.0000 0.45710  0.97650  0.76020  Biso   1.000  H
  H21      1.0000 0.87980  0.05810  0.54430  Biso   1.000  H
  H22      1.0000 0.29470  0.47700  0.72340  Biso   1.000  H
  H23      1.0000 0.33970  0.19680  0.42960  Biso   1.000  H
  H24      1.0000 0.79460  0.49480  0.51870  Biso   1.000  H
  C1       1.0000 0.83180  0.82554  0.33204  Biso   1.000  C
  C2       1.0000 0.02050  0.51610  0.20810  Biso   1.000  C
  C3       1.0000 0.71180  0.57530  0.05010  Biso   1.000  C
  C4       1.0000 0.14130  0.95100  0.18150  Biso   1.000  C
  C5       1.0000 0.10420  0.74180  0.96710  Biso   1.000  C
  C6       1.0000 0.72240  0.93469  0.05849  Biso   1.000  C
  C7       1.0000 0.33180  0.67446  0.16796  Biso   1.000  C
  C8       1.0000 0.52050  0.98390  0.29190  Biso   1.000  C
  C9       1.0000 0.21180  0.92470  0.44990  Biso   1.000  C
  C10      1.0000 0.64130  0.54900  0.31850  Biso   1.000  C
  C11      1.0000 0.60420  0.75820  0.53290  Biso   1.000  C
  C12      1.0000 0.22240  0.56531  0.44151  Biso   1.000  C
  C13      1.0000 0.16820  0.17446  0.66796  Biso   1.000  C
  C14      1.0000 0.97950  0.48390  0.79190  Biso   1.000  C
  C15      1.0000 0.28820  0.42470  0.94990  Biso   1.000  C
  C16      1.0000 0.85870  0.04900  0.81850  Biso   1.000  C
  C17      1.0000 0.89580  0.25820  0.03290  Biso   1.000  C
  C18      1.0000 0.27760  0.06531  0.94151  Biso   1.000  C
  C19      1.0000 0.66820  0.32554  0.83204  Biso   1.000  C
  C20      1.0000 0.47950  0.01610  0.70810  Biso   1.000  C
  C21      1.0000 0.78820  0.07530  0.55010  Biso   1.000  C
  C22      1.0000 0.35870  0.45100  0.68150  Biso   1.000  C
  C23      1.0000 0.39580  0.24180  0.46710  Biso   1.000  C
  C24      1.0000 0.77760  0.43469  0.55849  Biso   1.000  C
  O1       1.0000 0.80484  0.80744  0.24872  Biso   1.000  O
  O2       1.0000 0.94178  0.80799  0.36939  Biso   1.000  O
  O3       1.0000 0.01012  0.62746  0.21546  Biso   1.000  O
  O4       1.0000 0.00396  0.45612  0.13912  Biso   1.000  O
  O5       1.0000 0.74417  0.65429  0.10850  Biso   1.000  O
  O6       1.0000 0.79031  0.51925  0.00025  Biso   1.000  O
  O7       1.0000 0.08752  0.85140  0.19505  Biso   1.000  O
  O8       1.0000 0.11708  0.01614  0.11844  Biso   1.000  O
  O9       1.0000 0.02909  0.68659  0.02279  Biso   1.000  O
  O10      1.0000 0.10852  0.84915  0.95905  Biso   1.000  O
  O11      1.0000 0.84483  0.90042  0.06470  Biso   1.000  O
  O12      1.0000 0.62403  0.89630  0.09990  Biso   1.000  O
  O13      1.0000 0.30484  0.69256  0.25128  Biso   1.000  O
  O14      1.0000 0.44178  0.69201  0.13061  Biso   1.000  O
  O15      1.0000 0.51012  0.87254  0.28454  Biso   1.000  O
  O16      1.0000 0.50396  0.04388  0.36088  Biso   1.000  O
  O17      1.0000 0.24417  0.84571  0.39150  Biso   1.000  O
  O18      1.0000 0.29031  0.98075  0.49975  Biso   1.000  O
  O19      1.0000 0.58752  0.64860  0.30495  Biso   1.000  O
  O20      1.0000 0.61708  0.48386  0.38156  Biso   1.000  O
  O21      1.0000 0.52909  0.81341  0.47721  Biso   1.000  O
  O22      1.0000 0.60852  0.65085  0.54095  Biso   1.000  O
  O23      1.0000 0.34483  0.59958  0.43530  Biso   1.000  O
  O24      1.0000 0.12403  0.60370  0.40010  Biso   1.000  O
  O25      1.0000 0.19516  0.19256  0.75128  Biso   1.000  O
  O26      1.0000 0.05822  0.19201  0.63061  Biso   1.000  O
  O27      1.0000 0.98988  0.37254  0.78454  Biso   1.000  O
  O28      1.0000 0.99604  0.54388  0.86088  Biso   1.000  O
  O29      1.0000 0.25583  0.34571  0.89150  Biso   1.000  O
  O30      1.0000 0.20969  0.48075  0.99975  Biso   1.000  O
  O31      1.0000 0.91248  0.14860  0.80495  Biso   1.000  O
  O32      1.0000 0.88292  0.98386  0.88156  Biso   1.000  O
  O33      1.0000 0.97091  0.31341  0.97721  Biso   1.000  O
  O34      1.0000 0.89148  0.15085  0.04095  Biso   1.000  O
  O35      1.0000 0.15517  0.09958  0.93530  Biso   1.000  O
  O36      1.0000 0.37597  0.10370  0.90010  Biso   1.000  O
  O37      1.0000 0.69516  0.30744  0.74872  Biso   1.000  O
  O38      1.0000 0.55822  0.30799  0.86939  Biso   1.000  O
  O39      1.0000 0.48988  0.12746  0.71546  Biso   1.000  O
  O40      1.0000 0.49604  0.95612  0.63912  Biso   1.000  O
  O41      1.0000 0.75583  0.15429  0.60850  Biso   1.000  O
  O42      1.0000 0.70969  0.01925  0.50025  Biso   1.000  O
  O43      1.0000 0.41248  0.35140  0.69505  Biso   1.000  O
  O44      1.0000 0.38292  0.51614  0.61844  Biso   1.000  O
  O45      1.0000 0.47091  0.18659  0.52279  Biso   1.000  O
  O46      1.0000 0.39148  0.34915  0.45905  Biso   1.000  O
  O47      1.0000 0.65517  0.40042  0.56470  Biso   1.000  O
  O48      1.0000 0.87597  0.39630  0.59990  Biso   1.000  O
