data_image0
_cell_length_a       10.0205
_cell_length_b       11.4964
_cell_length_c       14.8452
_cell_angle_alpha    91.5476
_cell_angle_beta     90
_cell_angle_gamma    90

_symmetry_space_group_name_H-M    P 1
_symmetry_int_tables_number       1

loop_
  _symmetry_equiv_pos_as_xyz
  'x, y, z'

loop_
  _atom_site_label
  _atom_site_occupancy
  _atom_site_fract_x
  _atom_site_fract_y
  _atom_site_fract_z
  _atom_site_thermal_displace_type
  _atom_site_B_iso_or_equiv
  _atom_site_type_symbol
  Fe1      1.0000 0.92595  0.75618  0.13302  Biso   1.000  Fe
  Fe2      1.0000 0.88181  0.25958  0.69273  Biso   1.000  Fe
  Fe3      1.0000 0.42595  0.74382  0.36698  Biso   1.000  Fe
  Fe4      1.0000 0.38181  0.24042  0.80727  Biso   1.000  Fe
  Fe5      1.0000 0.07405  0.24382  0.86698  Biso   1.000  Fe
  Fe6      1.0000 0.11819  0.74042  0.30727  Biso   1.000  Fe
  Fe7      1.0000 0.57405  0.25618  0.63302  Biso   1.000  Fe
  Fe8      1.0000 0.61819  0.75958  0.19273  Biso   1.000  Fe
  Fe9      1.0000 0.00000  0.50000  0.00000  Biso   1.000  Fe
  Fe10     1.0000 0.50000  0.00000  0.50000  Biso   1.000  Fe
  Fe11     1.0000 0.00000  0.00000  0.00000  Biso   1.000  Fe
  Fe12     1.0000 0.50000  0.50000  0.50000  Biso   1.000  Fe
  H1       1.0000 0.76870  0.84960  0.36900  Biso   1.000  H
  H2       1.0000 0.05340  0.48100  0.25830  Biso   1.000  H
  H3       1.0000 0.62610  0.55540  0.04910  Biso   1.000  H
  H4       1.0000 0.20080  0.97690  0.22360  Biso   1.000  H
  H5       1.0000 0.15000  0.69860  0.92640  Biso   1.000  H
  H6       1.0000 0.71030  0.99470  0.02300  Biso   1.000  H
  H7       1.0000 0.26870  0.65040  0.13100  Biso   1.000  H
  H8       1.0000 0.55340  0.01900  0.24170  Biso   1.000  H
  H9       1.0000 0.12610  0.94460  0.45090  Biso   1.000  H
  H10      1.0000 0.70080  0.52310  0.27640  Biso   1.000  H
  H11      1.0000 0.65000  0.80140  0.57360  Biso   1.000  H
  H12      1.0000 0.21030  0.50530  0.47700  Biso   1.000  H
  H13      1.0000 0.23130  0.15040  0.63100  Biso   1.000  H
  H14      1.0000 0.94660  0.51900  0.74170  Biso   1.000  H
  H15      1.0000 0.37390  0.44460  0.95090  Biso   1.000  H
  H16      1.0000 0.79920  0.02310  0.77640  Biso   1.000  H
  H17      1.0000 0.85000  0.30140  0.07360  Biso   1.000  H
  H18      1.0000 0.28970  0.00530  0.97700  Biso   1.000  H
  H19      1.0000 0.73130  0.34960  0.86900  Biso   1.000  H
  H20      1.0000 0.44660  0.98100  0.75830  Biso   1.000  H
  H21      1.0000 0.87390  0.05540  0.54910  Biso   1.000  H
  H22      1.0000 0.29920  0.47690  0.72360  Biso   1.000  H
  H23      1.0000 0.35000  0.19860  0.42640  Biso   1.000  H
  H24      1.0000 0.78970  0.49470  0.52300  Biso   1.000  H
  C1       1.0000 0.83690  0.82186  0.33186  Biso   1.000  C
  C2       1.0000 0.02790  0.51962  0.20682  Biso   1.000  C
  C3       1.0000 0.71630  0.57357  0.05377  Biso   1.000  C
  C4       1.0000 0.13900  0.95024  0.18114  Biso   1.000  C
  C5       1.0000 0.09740  0.74262  0.96602  Biso   1.000  C
  C6       1.0000 0.72780  0.93355  0.06105  Biso   1.000  C
  C7       1.0000 0.33690  0.67814  0.16814  Biso   1.000  C
  C8       1.0000 0.52790  0.98038  0.29318  Biso   1.000  C
  C9       1.0000 0.21630  0.92643  0.44623  Biso   1.000  C
  C10      1.0000 0.63900  0.54976  0.31886  Biso   1.000  C
  C11      1.0000 0.59740  0.75738  0.53398  Biso   1.000  C
  C12      1.0000 0.22780  0.56645  0.43895  Biso   1.000  C
  C13      1.0000 0.16310  0.17814  0.66814  Biso   1.000  C
  C14      1.0000 0.97210  0.48038  0.79318  Biso   1.000  C
  C15      1.0000 0.28370  0.42643  0.94623  Biso   1.000  C
  C16      1.0000 0.86100  0.04976  0.81886  Biso   1.000  C
  C17      1.0000 0.90260  0.25738  0.03398  Biso   1.000  C
  C18      1.0000 0.27220  0.06645  0.93895  Biso   1.000  C
  C19      1.0000 0.66310  0.32186  0.83186  Biso   1.000  C
  C20      1.0000 0.47210  0.01962  0.70682  Biso   1.000  C
  C21      1.0000 0.78370  0.07357  0.55377  Biso   1.000  C
  C22      1.0000 0.36100  0.45024  0.68114  Biso   1.000  C
  C23      1.0000 0.40260  0.24262  0.46602  Biso   1.000  C
  C24      1.0000 0.77220  0.43355  0.56105  Biso   1.000  C
  O1       1.0000 0.80855  0.80356  0.24934  Biso   1.000  O
  O2       1.0000 0.94673  0.80619  0.36734  Biso   1.000  O
  O3       1.0000 0.01609  0.62894  0.21420  Biso   1.000  O
  O4       1.0000 0.00907  0.45933  0.13851  Biso   1.000  O
  O5       1.0000 0.74766  0.65437  0.10985  Biso   1.000  O
  O6       1.0000 0.79281  0.51661  0.00497  Biso   1.000  O
  O7       1.0000 0.08792  0.85162  0.19401  Biso   1.000  O
  O8       1.0000 0.11551  0.01423  0.11837  Biso   1.000  O
  O9       1.0000 0.02652  0.68673  0.02159  Biso   1.000  O
  O10      1.0000 0.10325  0.84827  0.95954  Biso   1.000  O
  O11      1.0000 0.84807  0.90000  0.06550  Biso   1.000  O
  O12      1.0000 0.63125  0.89386  0.10183  Biso   1.000  O
  O13      1.0000 0.30855  0.69644  0.25066  Biso   1.000  O
  O14      1.0000 0.44673  0.69381  0.13266  Biso   1.000  O
  O15      1.0000 0.51609  0.87106  0.28580  Biso   1.000  O
  O16      1.0000 0.50907  0.04067  0.36149  Biso   1.000  O
  O17      1.0000 0.24766  0.84563  0.39015  Biso   1.000  O
  O18      1.0000 0.29281  0.98339  0.49503  Biso   1.000  O
  O19      1.0000 0.58792  0.64838  0.30599  Biso   1.000  O
  O20      1.0000 0.61551  0.48577  0.38163  Biso   1.000  O
  O21      1.0000 0.52652  0.81327  0.47841  Biso   1.000  O
  O22      1.0000 0.60325  0.65173  0.54046  Biso   1.000  O
  O23      1.0000 0.34807  0.60000  0.43450  Biso   1.000  O
  O24      1.0000 0.13125  0.60614  0.39817  Biso   1.000  O
  O25      1.0000 0.19145  0.19644  0.75066  Biso   1.000  O
  O26      1.0000 0.05327  0.19381  0.63266  Biso   1.000  O
  O27      1.0000 0.98391  0.37106  0.78580  Biso   1.000  O
  O28      1.0000 0.99093  0.54067  0.86149  Biso   1.000  O
  O29      1.0000 0.25234  0.34563  0.89015  Biso   1.000  O
  O30      1.0000 0.20719  0.48339  0.99503  Biso   1.000  O
  O31      1.0000 0.91208  0.14838  0.80599  Biso   1.000  O
  O32      1.0000 0.88449  0.98577  0.88163  Biso   1.000  O
  O33      1.0000 0.97348  0.31327  0.97841  Biso   1.000  O
  O34      1.0000 0.89675  0.15173  0.04046  Biso   1.000  O
  O35      1.0000 0.15193  0.10000  0.93450  Biso   1.000  O
  O36      1.0000 0.36875  0.10614  0.89817  Biso   1.000  O
  O37      1.0000 0.69145  0.30356  0.74934  Biso   1.000  O
  O38      1.0000 0.55327  0.30619  0.86734  Biso   1.000  O
  O39      1.0000 0.48391  0.12894  0.71420  Biso   1.000  O
  O40      1.0000 0.49093  0.95933  0.63851  Biso   1.000  O
  O41      1.0000 0.75234  0.15437  0.60985  Biso   1.000  O
  O42      1.0000 0.70719  0.01661  0.50497  Biso   1.000  O
  O43      1.0000 0.41208  0.35162  0.69401  Biso   1.000  O
  O44      1.0000 0.38449  0.51423  0.61837  Biso   1.000  O
  O45      1.0000 0.47348  0.18673  0.52159  Biso   1.000  O
  O46      1.0000 0.39675  0.34827  0.45954  Biso   1.000  O
  O47      1.0000 0.65193  0.40000  0.56550  Biso   1.000  O
  O48      1.0000 0.86875  0.39386  0.60183  Biso   1.000  O
