data_image0
_cell_length_a       9.882
_cell_length_b       11.3983
_cell_length_c       14.6144
_cell_angle_alpha    91.3223
_cell_angle_beta     90
_cell_angle_gamma    90

_symmetry_space_group_name_H-M    P 1
_symmetry_int_tables_number       1

loop_
  _symmetry_equiv_pos_as_xyz
  'x, y, z'

loop_
  _atom_site_label
  _atom_site_occupancy
  _atom_site_fract_x
  _atom_site_fract_y
  _atom_site_fract_z
  _atom_site_thermal_displace_type
  _atom_site_B_iso_or_equiv
  _atom_site_type_symbol
  Fe1      1.0000 0.91847  0.75605  0.13196  Biso   1.000  Fe
  Fe2      1.0000 0.89465  0.26017  0.68717  Biso   1.000  Fe
  Fe3      1.0000 0.41847  0.74395  0.36804  Biso   1.000  Fe
  Fe4      1.0000 0.39465  0.23983  0.81283  Biso   1.000  Fe
  Fe5      1.0000 0.08153  0.24395  0.86804  Biso   1.000  Fe
  Fe6      1.0000 0.10535  0.73983  0.31283  Biso   1.000  Fe
  Fe7      1.0000 0.58153  0.25605  0.63196  Biso   1.000  Fe
  Fe8      1.0000 0.60535  0.76017  0.18717  Biso   1.000  Fe
  Fe9      1.0000 0.00000  0.50000  0.00000  Biso   1.000  Fe
  Fe10     1.0000 0.50000  0.00000  0.50000  Biso   1.000  Fe
  Fe11     1.0000 0.00000  0.00000  0.00000  Biso   1.000  Fe
  Fe12     1.0000 0.50000  0.50000  0.50000  Biso   1.000  Fe
  H1       1.0000 0.75240  0.85970  0.36610  Biso   1.000  H
  H2       1.0000 0.02500  0.47580  0.26550  Biso   1.000  H
  H3       1.0000 0.61880  0.55870  0.03790  Biso   1.000  H
  H4       1.0000 0.18800  0.98030  0.23280  Biso   1.000  H
  H5       1.0000 0.16810  0.70000  0.93400  Biso   1.000  H
  H6       1.0000 0.70010  0.99150  0.01070  Biso   1.000  H
  H7       1.0000 0.25240  0.64030  0.13390  Biso   1.000  H
  H8       1.0000 0.52500  0.02420  0.23450  Biso   1.000  H
  H9       1.0000 0.11880  0.94130  0.46210  Biso   1.000  H
  H10      1.0000 0.68800  0.51970  0.26720  Biso   1.000  H
  H11      1.0000 0.66810  0.80000  0.56600  Biso   1.000  H
  H12      1.0000 0.20010  0.50850  0.48930  Biso   1.000  H
  H13      1.0000 0.24760  0.14030  0.63390  Biso   1.000  H
  H14      1.0000 0.97500  0.52420  0.73450  Biso   1.000  H
  H15      1.0000 0.38120  0.44130  0.96210  Biso   1.000  H
  H16      1.0000 0.81200  0.01970  0.76720  Biso   1.000  H
  H17      1.0000 0.83190  0.30000  0.06600  Biso   1.000  H
  H18      1.0000 0.29990  0.00850  0.98930  Biso   1.000  H
  H19      1.0000 0.74760  0.35970  0.86610  Biso   1.000  H
  H20      1.0000 0.47500  0.97580  0.76550  Biso   1.000  H
  H21      1.0000 0.88120  0.05870  0.53790  Biso   1.000  H
  H22      1.0000 0.31200  0.48030  0.73280  Biso   1.000  H
  H23      1.0000 0.33190  0.20000  0.43400  Biso   1.000  H
  H24      1.0000 0.79990  0.49150  0.51070  Biso   1.000  H
  C1       1.0000 0.82260  0.83011  0.33001  Biso   1.000  C
  C2       1.0000 0.00810  0.51609  0.21209  Biso   1.000  C
  C3       1.0000 0.71000  0.57620  0.04550  Biso   1.000  C
  C4       1.0000 0.12950  0.95291  0.18721  Biso   1.000  C
  C5       1.0000 0.10810  0.74375  0.97015  Biso   1.000  C
  C6       1.0000 0.71680  0.93134  0.05114  Biso   1.000  C
  C7       1.0000 0.32260  0.66989  0.16999  Biso   1.000  C
  C8       1.0000 0.50810  0.98391  0.28791  Biso   1.000  C
  C9       1.0000 0.21000  0.92380  0.45450  Biso   1.000  C
  C10      1.0000 0.62950  0.54709  0.31279  Biso   1.000  C
  C11      1.0000 0.60810  0.75625  0.52985  Biso   1.000  C
  C12      1.0000 0.21680  0.56866  0.44886  Biso   1.000  C
  C13      1.0000 0.17740  0.16989  0.66999  Biso   1.000  C
  C14      1.0000 0.99190  0.48391  0.78791  Biso   1.000  C
  C15      1.0000 0.29000  0.42380  0.95450  Biso   1.000  C
  C16      1.0000 0.87050  0.04709  0.81279  Biso   1.000  C
  C17      1.0000 0.89190  0.25625  0.02985  Biso   1.000  C
  C18      1.0000 0.28320  0.06866  0.94886  Biso   1.000  C
  C19      1.0000 0.67740  0.33011  0.83001  Biso   1.000  C
  C20      1.0000 0.49190  0.01609  0.71209  Biso   1.000  C
  C21      1.0000 0.79000  0.07620  0.54550  Biso   1.000  C
  C22      1.0000 0.37050  0.45291  0.68721  Biso   1.000  C
  C23      1.0000 0.39190  0.24375  0.47015  Biso   1.000  C
  C24      1.0000 0.78320  0.43134  0.55114  Biso   1.000  C
  O1       1.0000 0.79637  0.80903  0.24623  Biso   1.000  O
  O2       1.0000 0.93257  0.81509  0.36829  Biso   1.000  O
  O3       1.0000 0.00102  0.62674  0.21881  Biso   1.000  O
  O4       1.0000 0.99460  0.45693  0.14113  Biso   1.000  O
  O5       1.0000 0.73921  0.65248  0.10611  Biso   1.000  O
  O6       1.0000 0.79027  0.52223  0.99503  Biso   1.000  O
  O7       1.0000 0.08163  0.85119  0.19668  Biso   1.000  O
  O8       1.0000 0.10700  0.01926  0.12416  Biso   1.000  O
  O9       1.0000 0.03008  0.68662  0.02303  Biso   1.000  O
  O10      1.0000 0.11130  0.84997  0.96267  Biso   1.000  O
  O11      1.0000 0.84029  0.89862  0.05983  Biso   1.000  O
  O12      1.0000 0.61840  0.89098  0.09116  Biso   1.000  O
  O13      1.0000 0.29637  0.69097  0.25377  Biso   1.000  O
  O14      1.0000 0.43257  0.68491  0.13171  Biso   1.000  O
  O15      1.0000 0.50102  0.87326  0.28119  Biso   1.000  O
  O16      1.0000 0.49460  0.04307  0.35887  Biso   1.000  O
  O17      1.0000 0.23921  0.84752  0.39389  Biso   1.000  O
  O18      1.0000 0.29027  0.97777  0.50497  Biso   1.000  O
  O19      1.0000 0.58163  0.64881  0.30332  Biso   1.000  O
  O20      1.0000 0.60700  0.48074  0.37584  Biso   1.000  O
  O21      1.0000 0.53008  0.81338  0.47697  Biso   1.000  O
  O22      1.0000 0.61130  0.65003  0.53733  Biso   1.000  O
  O23      1.0000 0.34029  0.60138  0.44017  Biso   1.000  O
  O24      1.0000 0.11840  0.60902  0.40884  Biso   1.000  O
  O25      1.0000 0.20363  0.19097  0.75377  Biso   1.000  O
  O26      1.0000 0.06743  0.18491  0.63171  Biso   1.000  O
  O27      1.0000 0.99898  0.37326  0.78119  Biso   1.000  O
  O28      1.0000 0.00540  0.54307  0.85887  Biso   1.000  O
  O29      1.0000 0.26079  0.34752  0.89389  Biso   1.000  O
  O30      1.0000 0.20973  0.47777  0.00497  Biso   1.000  O
  O31      1.0000 0.91837  0.14881  0.80332  Biso   1.000  O
  O32      1.0000 0.89300  0.98074  0.87584  Biso   1.000  O
  O33      1.0000 0.96992  0.31338  0.97697  Biso   1.000  O
  O34      1.0000 0.88870  0.15003  0.03733  Biso   1.000  O
  O35      1.0000 0.15971  0.10138  0.94017  Biso   1.000  O
  O36      1.0000 0.38160  0.10902  0.90884  Biso   1.000  O
  O37      1.0000 0.70363  0.30903  0.74623  Biso   1.000  O
  O38      1.0000 0.56743  0.31509  0.86829  Biso   1.000  O
  O39      1.0000 0.49898  0.12674  0.71881  Biso   1.000  O
  O40      1.0000 0.50540  0.95693  0.64113  Biso   1.000  O
  O41      1.0000 0.76079  0.15248  0.60611  Biso   1.000  O
  O42      1.0000 0.70973  0.02223  0.49503  Biso   1.000  O
  O43      1.0000 0.41837  0.35119  0.69668  Biso   1.000  O
  O44      1.0000 0.39300  0.51926  0.62416  Biso   1.000  O
  O45      1.0000 0.46992  0.18662  0.52303  Biso   1.000  O
  O46      1.0000 0.38870  0.34997  0.46267  Biso   1.000  O
  O47      1.0000 0.65971  0.39862  0.55983  Biso   1.000  O
  O48      1.0000 0.88160  0.39098  0.59116  Biso   1.000  O
