data_image0
_cell_length_a       22
_cell_length_b       15
_cell_length_c       24
_cell_angle_alpha    90
_cell_angle_beta     90
_cell_angle_gamma    90

_symmetry_space_group_name_H-M    "P 1"
_symmetry_int_tables_number       1

loop_
  _symmetry_equiv_pos_as_xyz
  'x, y, z'

loop_
  _atom_site_label
  _atom_site_occupancy
  _atom_site_fract_x
  _atom_site_fract_y
  _atom_site_fract_z
  _atom_site_thermal_displace_type
  _atom_site_B_iso_or_equiv
  _atom_site_type_symbol
  W1       1.0000 0.88891  0.60022  0.25829  Biso   1.000  W
  W2       1.0000 0.98028  0.60077  0.14752  Biso   1.000  W
  W3       1.0000 0.87410  0.75727  0.16044  Biso   1.000  W
  W4       1.0000 0.09738  0.77473  0.13452  Biso   1.000  W
  W5       1.0000 0.99182  0.93075  0.14754  Biso   1.000  W
  W6       1.0000 0.11132  0.93056  0.23197  Biso   1.000  W
  O1       1.0000 0.97030  0.00630  0.09890  Biso   1.000  O
  O2       1.0000 0.81520  0.77800  0.11770  Biso   1.000  O
  O3       1.0000 0.16750  0.00570  0.23940  Biso   1.000  O
  O4       1.0000 0.14370  0.75340  0.07930  Biso   1.000  O
  O5       1.0000 0.94260  0.96120  0.21060  Biso   1.000  O
  O6       1.0000 0.05900  0.99120  0.18020  Biso   1.000  O
  O7       1.0000 0.95310  0.70200  0.21600  Biso   1.000  O
  O8       1.0000 0.03700  0.82670  0.20700  Biso   1.000  O
  O9       1.0000 0.98710  0.53040  0.09160  Biso   1.000  O
  O10      1.0000 0.95700  0.56690  0.30280  Biso   1.000  O
  O11      1.0000 0.83610  0.52270  0.27740  Biso   1.000  O
  O12      1.0000 0.04760  0.86350  0.10240  Biso   1.000  O
  O13      1.0000 0.92450  0.54040  0.19530  Biso   1.000  O
  O14      1.0000 0.83900  0.66790  0.20670  Biso   1.000  O
  O15      1.0000 0.91360  0.66690  0.11860  Biso   1.000  O
  O16      1.0000 0.87360  0.69100  0.31170  Biso   1.000  O
  O17      1.0000 0.03250  0.69280  0.12350  Biso   1.000  O
  O18      1.0000 0.93240  0.83930  0.13420  Biso   1.000  O
  O19      1.0000 0.14360  0.86440  0.17030  Biso   1.000  O
  O20      1.0000 0.85880  0.83940  0.21960  Biso   1.000  O
  N1       1.0000 0.90730  0.50330  0.98620  Biso   1.000  N
  N2       1.0000 0.82040  0.47950  0.93980  Biso   1.000  N
  N3       1.0000 0.51710  0.27540  0.97420  Biso   1.000  N
  N4       1.0000 0.49680  0.13430  0.97740  Biso   1.000  N
  C1       1.0000 0.87970  0.45490  0.94780  Biso   1.000  C
  H1       1.0000 0.89860  0.40900  0.92820  Biso   1.000  H
  C2       1.0000 0.78100  0.44320  0.90000  Biso   1.000  C
  H2       1.0000 0.79900  0.38920  0.88500  Biso   1.000  H
  H3       1.0000 0.77640  0.48520  0.86960  Biso   1.000  H
  C3       1.0000 0.86540  0.56270  0.00460  Biso   1.000  C
  H4       1.0000 0.87160  0.60430  0.03280  Biso   1.000  H
  C4       1.0000 0.81280  0.55180  0.97550  Biso   1.000  C
  H5       1.0000 0.77790  0.58650  0.97880  Biso   1.000  H
  C5       1.0000 0.60450  0.37940  0.96760  Biso   1.000  C
  C6       1.0000 0.52030  0.19890  0.00610  Biso   1.000  C
  H6       1.0000 0.53640  0.19450  0.04180  Biso   1.000  H
  C7       1.0000 0.48940  0.25280  0.92630  Biso   1.000  C
  H7       1.0000 0.47960  0.29060  0.89700  Biso   1.000  H
  C8       1.0000 0.54310  0.35980  0.99430  Biso   1.000  C
  H8       1.0000 0.54790  0.35690  0.03440  Biso   1.000  H
  H9       1.0000 0.51520  0.40810  0.98600  Biso   1.000  H
  C9       1.0000 0.61650  0.46290  0.94750  Biso   1.000  C
  H10      1.0000 0.58640  0.50640  0.94860  Biso   1.000  H
  C10      1.0000 0.71870  0.42130  0.92370  Biso   1.000  C
  C11      1.0000 0.67400  0.48360  0.92520  Biso   1.000  C
  H11      1.0000 0.68140  0.54050  0.91140  Biso   1.000  H
  C12      1.0000 0.70660  0.33750  0.94360  Biso   1.000  C
  H12      1.0000 0.73650  0.29370  0.94240  Biso   1.000  H
  C13      1.0000 0.65010  0.31770  0.96540  Biso   1.000  C
  H13      1.0000 0.64290  0.26070  0.97900  Biso   1.000  H
  C14      1.0000 0.47890  0.16740  0.92920  Biso   1.000  C
  H14      1.0000 0.46110  0.13400  0.90100  Biso   1.000  H
  W7       1.0000 0.61109  0.89978  0.75829  Biso   1.000  W
  W8       1.0000 0.51972  0.89923  0.64752  Biso   1.000  W
  W9       1.0000 0.62590  0.74273  0.66044  Biso   1.000  W
  W10      1.0000 0.40262  0.72527  0.63452  Biso   1.000  W
  W11      1.0000 0.50818  0.56925  0.64754  Biso   1.000  W
  W12      1.0000 0.38868  0.56944  0.73197  Biso   1.000  W
  O21      1.0000 0.52970  0.49370  0.59890  Biso   1.000  O
  O22      1.0000 0.68480  0.72200  0.61770  Biso   1.000  O
  O23      1.0000 0.33250  0.49430  0.73940  Biso   1.000  O
  O24      1.0000 0.35630  0.74660  0.57930  Biso   1.000  O
  O25      1.0000 0.55740  0.53880  0.71060  Biso   1.000  O
  O26      1.0000 0.44100  0.50880  0.68020  Biso   1.000  O
  O27      1.0000 0.54690  0.79800  0.71600  Biso   1.000  O
  O28      1.0000 0.46300  0.67330  0.70700  Biso   1.000  O
  O29      1.0000 0.51290  0.96960  0.59160  Biso   1.000  O
  O30      1.0000 0.54300  0.93310  0.80280  Biso   1.000  O
  O31      1.0000 0.66390  0.97730  0.77740  Biso   1.000  O
  O32      1.0000 0.45240  0.63650  0.60240  Biso   1.000  O
  O33      1.0000 0.57550  0.95960  0.69530  Biso   1.000  O
  O34      1.0000 0.66100  0.83210  0.70670  Biso   1.000  O
  O35      1.0000 0.58640  0.83310  0.61860  Biso   1.000  O
  O36      1.0000 0.62640  0.80900  0.81170  Biso   1.000  O
  O37      1.0000 0.46750  0.80720  0.62350  Biso   1.000  O
  O38      1.0000 0.56760  0.66070  0.63420  Biso   1.000  O
  O39      1.0000 0.35640  0.63560  0.67030  Biso   1.000  O
  O40      1.0000 0.64120  0.66060  0.71960  Biso   1.000  O
  N5       1.0000 0.59270  0.99670  0.48620  Biso   1.000  N
  N6       1.0000 0.67960  0.02050  0.43980  Biso   1.000  N
  N7       1.0000 0.98290  0.22460  0.47420  Biso   1.000  N
  N8       1.0000 0.00320  0.36570  0.47740  Biso   1.000  N
  C15      1.0000 0.62030  0.04510  0.44780  Biso   1.000  C
  H15      1.0000 0.60140  0.09100  0.42820  Biso   1.000  H
  C16      1.0000 0.71900  0.05680  0.40000  Biso   1.000  C
  H16      1.0000 0.70100  0.11080  0.38500  Biso   1.000  H
  H17      1.0000 0.72360  0.01480  0.36960  Biso   1.000  H
  C17      1.0000 0.63460  0.93730  0.50460  Biso   1.000  C
  H18      1.0000 0.62840  0.89570  0.53280  Biso   1.000  H
  C18      1.0000 0.68720  0.94820  0.47550  Biso   1.000  C
  H19      1.0000 0.72210  0.91350  0.47880  Biso   1.000  H
  C19      1.0000 0.89550  0.12060  0.46760  Biso   1.000  C
  C20      1.0000 0.97970  0.30110  0.50610  Biso   1.000  C
  H20      1.0000 0.96360  0.30550  0.54180  Biso   1.000  H
  C21      1.0000 0.01060  0.24720  0.42630  Biso   1.000  C
  H21      1.0000 0.02040  0.20940  0.39700  Biso   1.000  H
  C22      1.0000 0.95690  0.14020  0.49430  Biso   1.000  C
  H22      1.0000 0.95210  0.14310  0.53440  Biso   1.000  H
  H23      1.0000 0.98480  0.09190  0.48600  Biso   1.000  H
  C23      1.0000 0.88350  0.03710  0.44750  Biso   1.000  C
  H24      1.0000 0.91360  0.99360  0.44860  Biso   1.000  H
  C24      1.0000 0.78130  0.07870  0.42370  Biso   1.000  C
  C25      1.0000 0.82600  0.01640  0.42520  Biso   1.000  C
  H25      1.0000 0.81860  0.95950  0.41140  Biso   1.000  H
  C26      1.0000 0.79340  0.16250  0.44360  Biso   1.000  C
  H26      1.0000 0.76350  0.20630  0.44240  Biso   1.000  H
  C27      1.0000 0.84990  0.18230  0.46540  Biso   1.000  C
  H27      1.0000 0.85710  0.23930  0.47900  Biso   1.000  H
  C28      1.0000 0.02110  0.33260  0.42920  Biso   1.000  C
  H28      1.0000 0.03890  0.36600  0.40100  Biso   1.000  H
  W13      1.0000 0.11109  0.60022  0.24171  Biso   1.000  W
  W14      1.0000 0.01972  0.60077  0.35248  Biso   1.000  W
  W15      1.0000 0.12590  0.75727  0.33956  Biso   1.000  W
  W16      1.0000 0.90262  0.77473  0.36548  Biso   1.000  W
  W17      1.0000 0.00818  0.93075  0.35246  Biso   1.000  W
  W18      1.0000 0.88868  0.93056  0.26803  Biso   1.000  W
  O41      1.0000 0.02970  0.00630  0.40110  Biso   1.000  O
  O42      1.0000 0.18480  0.77800  0.38230  Biso   1.000  O
  O43      1.0000 0.83250  0.00570  0.26060  Biso   1.000  O
  O44      1.0000 0.85630  0.75340  0.42070  Biso   1.000  O
  O45      1.0000 0.05740  0.96120  0.28940  Biso   1.000  O
  O46      1.0000 0.94100  0.99120  0.31980  Biso   1.000  O
  O47      1.0000 0.04690  0.70200  0.28400  Biso   1.000  O
  O48      1.0000 0.96300  0.82670  0.29300  Biso   1.000  O
  O49      1.0000 0.01290  0.53040  0.40840  Biso   1.000  O
  O50      1.0000 0.04300  0.56690  0.19720  Biso   1.000  O
  O51      1.0000 0.16390  0.52270  0.22260  Biso   1.000  O
  O52      1.0000 0.95240  0.86350  0.39760  Biso   1.000  O
  O53      1.0000 0.07550  0.54040  0.30470  Biso   1.000  O
  O54      1.0000 0.16100  0.66790  0.29330  Biso   1.000  O
  O55      1.0000 0.08640  0.66690  0.38140  Biso   1.000  O
  O56      1.0000 0.12640  0.69100  0.18830  Biso   1.000  O
  O57      1.0000 0.96750  0.69280  0.37650  Biso   1.000  O
  O58      1.0000 0.06760  0.83930  0.36580  Biso   1.000  O
  O59      1.0000 0.85640  0.86440  0.32970  Biso   1.000  O
  O60      1.0000 0.14120  0.83940  0.28040  Biso   1.000  O
  N9       1.0000 0.09270  0.50330  0.51380  Biso   1.000  N
  N10      1.0000 0.17960  0.47950  0.56020  Biso   1.000  N
  N11      1.0000 0.48290  0.27540  0.52580  Biso   1.000  N
  N12      1.0000 0.50320  0.13430  0.52260  Biso   1.000  N
  C29      1.0000 0.12030  0.45490  0.55220  Biso   1.000  C
  H29      1.0000 0.10140  0.40900  0.57180  Biso   1.000  H
  C30      1.0000 0.21900  0.44320  0.60000  Biso   1.000  C
  H30      1.0000 0.20100  0.38920  0.61500  Biso   1.000  H
  H31      1.0000 0.22360  0.48520  0.63040  Biso   1.000  H
  C31      1.0000 0.13460  0.56270  0.49540  Biso   1.000  C
  H32      1.0000 0.12840  0.60430  0.46720  Biso   1.000  H
  C32      1.0000 0.18720  0.55180  0.52450  Biso   1.000  C
  H33      1.0000 0.22210  0.58650  0.52120  Biso   1.000  H
  C33      1.0000 0.39550  0.37940  0.53240  Biso   1.000  C
  C34      1.0000 0.47970  0.19890  0.49390  Biso   1.000  C
  H34      1.0000 0.46360  0.19450  0.45820  Biso   1.000  H
  C35      1.0000 0.51060  0.25280  0.57370  Biso   1.000  C
  H35      1.0000 0.52040  0.29060  0.60300  Biso   1.000  H
  C36      1.0000 0.45690  0.35980  0.50570  Biso   1.000  C
  H36      1.0000 0.45210  0.35690  0.46560  Biso   1.000  H
  H37      1.0000 0.48480  0.40810  0.51400  Biso   1.000  H
  C37      1.0000 0.38350  0.46290  0.55250  Biso   1.000  C
  H38      1.0000 0.41360  0.50640  0.55140  Biso   1.000  H
  C38      1.0000 0.28130  0.42130  0.57630  Biso   1.000  C
  C39      1.0000 0.32600  0.48360  0.57480  Biso   1.000  C
  H39      1.0000 0.31860  0.54050  0.58860  Biso   1.000  H
  C40      1.0000 0.29340  0.33750  0.55640  Biso   1.000  C
  H40      1.0000 0.26350  0.29370  0.55760  Biso   1.000  H
  C41      1.0000 0.34990  0.31770  0.53460  Biso   1.000  C
  H41      1.0000 0.35710  0.26070  0.52100  Biso   1.000  H
  C42      1.0000 0.52110  0.16740  0.57080  Biso   1.000  C
  H42      1.0000 0.53890  0.13400  0.59900  Biso   1.000  H
  W19      1.0000 0.38891  0.89978  0.74171  Biso   1.000  W
  W20      1.0000 0.48028  0.89923  0.85248  Biso   1.000  W
  W21      1.0000 0.37410  0.74273  0.83956  Biso   1.000  W
  W22      1.0000 0.59738  0.72527  0.86548  Biso   1.000  W
  W23      1.0000 0.49182  0.56925  0.85246  Biso   1.000  W
  W24      1.0000 0.61132  0.56944  0.76803  Biso   1.000  W
  O61      1.0000 0.47030  0.49370  0.90110  Biso   1.000  O
  O62      1.0000 0.31520  0.72200  0.88230  Biso   1.000  O
  O63      1.0000 0.66750  0.49430  0.76060  Biso   1.000  O
  O64      1.0000 0.64370  0.74660  0.92070  Biso   1.000  O
  O65      1.0000 0.44260  0.53880  0.78940  Biso   1.000  O
  O66      1.0000 0.55900  0.50880  0.81980  Biso   1.000  O
  O67      1.0000 0.45310  0.79800  0.78400  Biso   1.000  O
  O68      1.0000 0.53700  0.67330  0.79300  Biso   1.000  O
  O69      1.0000 0.48710  0.96960  0.90840  Biso   1.000  O
  O70      1.0000 0.45700  0.93310  0.69720  Biso   1.000  O
  O71      1.0000 0.33610  0.97730  0.72260  Biso   1.000  O
  O72      1.0000 0.54760  0.63650  0.89760  Biso   1.000  O
  O73      1.0000 0.42450  0.95960  0.80470  Biso   1.000  O
  O74      1.0000 0.33900  0.83210  0.79330  Biso   1.000  O
  O75      1.0000 0.41360  0.83310  0.88140  Biso   1.000  O
  O76      1.0000 0.37360  0.80900  0.68830  Biso   1.000  O
  O77      1.0000 0.53250  0.80720  0.87650  Biso   1.000  O
  O78      1.0000 0.43240  0.66070  0.86580  Biso   1.000  O
  O79      1.0000 0.64360  0.63560  0.82970  Biso   1.000  O
  O80      1.0000 0.35880  0.66060  0.78040  Biso   1.000  O
  N13      1.0000 0.40730  0.99670  0.01380  Biso   1.000  N
  N14      1.0000 0.32040  0.02050  0.06020  Biso   1.000  N
  N15      1.0000 0.01710  0.22460  0.02580  Biso   1.000  N
  N16      1.0000 0.99680  0.36570  0.02260  Biso   1.000  N
  C43      1.0000 0.37970  0.04510  0.05220  Biso   1.000  C
  H43      1.0000 0.39860  0.09100  0.07180  Biso   1.000  H
  C44      1.0000 0.28100  0.05680  0.10000  Biso   1.000  C
  H44      1.0000 0.29900  0.11080  0.11500  Biso   1.000  H
  H45      1.0000 0.27640  0.01480  0.13040  Biso   1.000  H
  C45      1.0000 0.36540  0.93730  0.99540  Biso   1.000  C
  H46      1.0000 0.37160  0.89570  0.96720  Biso   1.000  H
  C46      1.0000 0.31280  0.94820  0.02450  Biso   1.000  C
  H47      1.0000 0.27790  0.91350  0.02120  Biso   1.000  H
  C47      1.0000 0.10450  0.12060  0.03240  Biso   1.000  C
  C48      1.0000 0.02030  0.30110  0.99390  Biso   1.000  C
  H48      1.0000 0.03640  0.30550  0.95820  Biso   1.000  H
  C49      1.0000 0.98940  0.24720  0.07370  Biso   1.000  C
  H49      1.0000 0.97960  0.20940  0.10300  Biso   1.000  H
  C50      1.0000 0.04310  0.14020  0.00570  Biso   1.000  C
  H50      1.0000 0.04790  0.14310  0.96560  Biso   1.000  H
  H51      1.0000 0.01520  0.09190  0.01400  Biso   1.000  H
  C51      1.0000 0.11650  0.03710  0.05250  Biso   1.000  C
  H52      1.0000 0.08640  0.99360  0.05140  Biso   1.000  H
  C52      1.0000 0.21870  0.07870  0.07630  Biso   1.000  C
  C53      1.0000 0.17400  0.01640  0.07480  Biso   1.000  C
  H53      1.0000 0.18140  0.95950  0.08860  Biso   1.000  H
  C54      1.0000 0.20660  0.16250  0.05640  Biso   1.000  C
  H54      1.0000 0.23650  0.20630  0.05760  Biso   1.000  H
  C55      1.0000 0.15010  0.18230  0.03460  Biso   1.000  C
  H55      1.0000 0.14290  0.23930  0.02100  Biso   1.000  H
  C56      1.0000 0.97890  0.33260  0.07080  Biso   1.000  C
  H56      1.0000 0.96110  0.36600  0.09900  Biso   1.000  H
  W25      1.0000 0.11109  0.39978  0.74171  Biso   1.000  W
  W26      1.0000 0.01972  0.39923  0.85248  Biso   1.000  W
  W27      1.0000 0.12590  0.24273  0.83956  Biso   1.000  W
  W28      1.0000 0.90262  0.22527  0.86548  Biso   1.000  W
  W29      1.0000 0.00818  0.06925  0.85246  Biso   1.000  W
  W30      1.0000 0.88868  0.06944  0.76803  Biso   1.000  W
  O81      1.0000 0.02970  0.99370  0.90110  Biso   1.000  O
  O82      1.0000 0.18480  0.22200  0.88230  Biso   1.000  O
  O83      1.0000 0.83250  0.99430  0.76060  Biso   1.000  O
  O84      1.0000 0.85630  0.24660  0.92070  Biso   1.000  O
  O85      1.0000 0.05740  0.03880  0.78940  Biso   1.000  O
  O86      1.0000 0.94100  0.00880  0.81980  Biso   1.000  O
  O87      1.0000 0.04690  0.29800  0.78400  Biso   1.000  O
  O88      1.0000 0.96300  0.17330  0.79300  Biso   1.000  O
  O89      1.0000 0.01290  0.46960  0.90840  Biso   1.000  O
  O90      1.0000 0.04300  0.43310  0.69720  Biso   1.000  O
  O91      1.0000 0.16390  0.47730  0.72260  Biso   1.000  O
  O92      1.0000 0.95240  0.13650  0.89760  Biso   1.000  O
  O93      1.0000 0.07550  0.45960  0.80470  Biso   1.000  O
  O94      1.0000 0.16100  0.33210  0.79330  Biso   1.000  O
  O95      1.0000 0.08640  0.33310  0.88140  Biso   1.000  O
  O96      1.0000 0.12640  0.30900  0.68830  Biso   1.000  O
  O97      1.0000 0.96750  0.30720  0.87650  Biso   1.000  O
  O98      1.0000 0.06760  0.16070  0.86580  Biso   1.000  O
  O99      1.0000 0.85640  0.13560  0.82970  Biso   1.000  O
  O100     1.0000 0.14120  0.16060  0.78040  Biso   1.000  O
  N17      1.0000 0.09270  0.49670  0.01380  Biso   1.000  N
  N18      1.0000 0.17960  0.52050  0.06020  Biso   1.000  N
  N19      1.0000 0.48290  0.72460  0.02580  Biso   1.000  N
  N20      1.0000 0.50320  0.86570  0.02260  Biso   1.000  N
  C57      1.0000 0.12030  0.54510  0.05220  Biso   1.000  C
  H57      1.0000 0.10140  0.59100  0.07180  Biso   1.000  H
  C58      1.0000 0.21900  0.55680  0.10000  Biso   1.000  C
  H58      1.0000 0.20100  0.61080  0.11500  Biso   1.000  H
  H59      1.0000 0.22360  0.51480  0.13040  Biso   1.000  H
  C59      1.0000 0.13460  0.43730  0.99540  Biso   1.000  C
  H60      1.0000 0.12840  0.39570  0.96720  Biso   1.000  H
  C60      1.0000 0.18720  0.44820  0.02450  Biso   1.000  C
  H61      1.0000 0.22210  0.41350  0.02120  Biso   1.000  H
  C61      1.0000 0.39550  0.62060  0.03240  Biso   1.000  C
  C62      1.0000 0.47970  0.80110  0.99390  Biso   1.000  C
  H62      1.0000 0.46360  0.80550  0.95820  Biso   1.000  H
  C63      1.0000 0.51060  0.74720  0.07370  Biso   1.000  C
  H63      1.0000 0.52040  0.70940  0.10300  Biso   1.000  H
  C64      1.0000 0.45690  0.64020  0.00570  Biso   1.000  C
  H64      1.0000 0.45210  0.64310  0.96560  Biso   1.000  H
  H65      1.0000 0.48480  0.59190  0.01400  Biso   1.000  H
  C65      1.0000 0.38350  0.53710  0.05250  Biso   1.000  C
  H66      1.0000 0.41360  0.49360  0.05140  Biso   1.000  H
  C66      1.0000 0.28130  0.57870  0.07630  Biso   1.000  C
  C67      1.0000 0.32600  0.51640  0.07480  Biso   1.000  C
  H67      1.0000 0.31860  0.45950  0.08860  Biso   1.000  H
  C68      1.0000 0.29340  0.66250  0.05640  Biso   1.000  C
  H68      1.0000 0.26350  0.70630  0.05760  Biso   1.000  H
  C69      1.0000 0.34990  0.68230  0.03460  Biso   1.000  C
  H69      1.0000 0.35710  0.73930  0.02100  Biso   1.000  H
  C70      1.0000 0.52110  0.83260  0.07080  Biso   1.000  C
  H70      1.0000 0.53890  0.86600  0.09900  Biso   1.000  H
  W31      1.0000 0.38891  0.10022  0.24171  Biso   1.000  W
  W32      1.0000 0.48028  0.10077  0.35248  Biso   1.000  W
  W33      1.0000 0.37410  0.25727  0.33956  Biso   1.000  W
  W34      1.0000 0.59738  0.27473  0.36548  Biso   1.000  W
  W35      1.0000 0.49182  0.43075  0.35246  Biso   1.000  W
  W36      1.0000 0.61132  0.43056  0.26803  Biso   1.000  W
  O101     1.0000 0.47030  0.50630  0.40110  Biso   1.000  O
  O102     1.0000 0.31520  0.27800  0.38230  Biso   1.000  O
  O103     1.0000 0.66750  0.50570  0.26060  Biso   1.000  O
  O104     1.0000 0.64370  0.25340  0.42070  Biso   1.000  O
  O105     1.0000 0.44260  0.46120  0.28940  Biso   1.000  O
  O106     1.0000 0.55900  0.49120  0.31980  Biso   1.000  O
  O107     1.0000 0.45310  0.20200  0.28400  Biso   1.000  O
  O108     1.0000 0.53700  0.32670  0.29300  Biso   1.000  O
  O109     1.0000 0.48710  0.03040  0.40840  Biso   1.000  O
  O110     1.0000 0.45700  0.06690  0.19720  Biso   1.000  O
  O111     1.0000 0.33610  0.02270  0.22260  Biso   1.000  O
  O112     1.0000 0.54760  0.36350  0.39760  Biso   1.000  O
  O113     1.0000 0.42450  0.04040  0.30470  Biso   1.000  O
  O114     1.0000 0.33900  0.16790  0.29330  Biso   1.000  O
  O115     1.0000 0.41360  0.16690  0.38140  Biso   1.000  O
  O116     1.0000 0.37360  0.19100  0.18830  Biso   1.000  O
  O117     1.0000 0.53250  0.19280  0.37650  Biso   1.000  O
  O118     1.0000 0.43240  0.33930  0.36580  Biso   1.000  O
  O119     1.0000 0.64360  0.36440  0.32970  Biso   1.000  O
  O120     1.0000 0.35880  0.33940  0.28040  Biso   1.000  O
  N21      1.0000 0.40730  0.00330  0.51380  Biso   1.000  N
  N22      1.0000 0.32040  0.97950  0.56020  Biso   1.000  N
  N23      1.0000 0.01710  0.77540  0.52580  Biso   1.000  N
  N24      1.0000 0.99680  0.63430  0.52260  Biso   1.000  N
  C71      1.0000 0.37970  0.95490  0.55220  Biso   1.000  C
  H71      1.0000 0.39860  0.90900  0.57180  Biso   1.000  H
  C72      1.0000 0.28100  0.94320  0.60000  Biso   1.000  C
  H72      1.0000 0.29900  0.88920  0.61500  Biso   1.000  H
  H73      1.0000 0.27640  0.98520  0.63040  Biso   1.000  H
  C73      1.0000 0.36540  0.06270  0.49540  Biso   1.000  C
  H74      1.0000 0.37160  0.10430  0.46720  Biso   1.000  H
  C74      1.0000 0.31280  0.05180  0.52450  Biso   1.000  C
  H75      1.0000 0.27790  0.08650  0.52120  Biso   1.000  H
  C75      1.0000 0.10450  0.87940  0.53240  Biso   1.000  C
  C76      1.0000 0.02030  0.69890  0.49390  Biso   1.000  C
  H76      1.0000 0.03640  0.69450  0.45820  Biso   1.000  H
  C77      1.0000 0.98940  0.75280  0.57370  Biso   1.000  C
  H77      1.0000 0.97960  0.79060  0.60300  Biso   1.000  H
  C78      1.0000 0.04310  0.85980  0.50570  Biso   1.000  C
  H78      1.0000 0.04790  0.85690  0.46560  Biso   1.000  H
  H79      1.0000 0.01520  0.90810  0.51400  Biso   1.000  H
  C79      1.0000 0.11650  0.96290  0.55250  Biso   1.000  C
  H80      1.0000 0.08640  0.00640  0.55140  Biso   1.000  H
  C80      1.0000 0.21870  0.92130  0.57630  Biso   1.000  C
  C81      1.0000 0.17400  0.98360  0.57480  Biso   1.000  C
  H81      1.0000 0.18140  0.04050  0.58860  Biso   1.000  H
  C82      1.0000 0.20660  0.83750  0.55640  Biso   1.000  C
  H82      1.0000 0.23650  0.79370  0.55760  Biso   1.000  H
  C83      1.0000 0.15010  0.81770  0.53460  Biso   1.000  C
  H83      1.0000 0.14290  0.76070  0.52100  Biso   1.000  H
  C84      1.0000 0.97890  0.66740  0.57080  Biso   1.000  C
  H84      1.0000 0.96110  0.63400  0.59900  Biso   1.000  H
  W37      1.0000 0.88891  0.39978  0.75829  Biso   1.000  W
  W38      1.0000 0.98028  0.39923  0.64752  Biso   1.000  W
  W39      1.0000 0.87410  0.24273  0.66044  Biso   1.000  W
  W40      1.0000 0.09738  0.22527  0.63452  Biso   1.000  W
  W41      1.0000 0.99182  0.06925  0.64754  Biso   1.000  W
  W42      1.0000 0.11132  0.06944  0.73197  Biso   1.000  W
  O121     1.0000 0.97030  0.99370  0.59890  Biso   1.000  O
  O122     1.0000 0.81520  0.22200  0.61770  Biso   1.000  O
  O123     1.0000 0.16750  0.99430  0.73940  Biso   1.000  O
  O124     1.0000 0.14370  0.24660  0.57930  Biso   1.000  O
  O125     1.0000 0.94260  0.03880  0.71060  Biso   1.000  O
  O126     1.0000 0.05900  0.00880  0.68020  Biso   1.000  O
  O127     1.0000 0.95310  0.29800  0.71600  Biso   1.000  O
  O128     1.0000 0.03700  0.17330  0.70700  Biso   1.000  O
  O129     1.0000 0.98710  0.46960  0.59160  Biso   1.000  O
  O130     1.0000 0.95700  0.43310  0.80280  Biso   1.000  O
  O131     1.0000 0.83610  0.47730  0.77740  Biso   1.000  O
  O132     1.0000 0.04760  0.13650  0.60240  Biso   1.000  O
  O133     1.0000 0.92450  0.45960  0.69530  Biso   1.000  O
  O134     1.0000 0.83900  0.33210  0.70670  Biso   1.000  O
  O135     1.0000 0.91360  0.33310  0.61860  Biso   1.000  O
  O136     1.0000 0.87360  0.30900  0.81170  Biso   1.000  O
  O137     1.0000 0.03250  0.30720  0.62350  Biso   1.000  O
  O138     1.0000 0.93240  0.16070  0.63420  Biso   1.000  O
  O139     1.0000 0.14360  0.13560  0.67030  Biso   1.000  O
  O140     1.0000 0.85880  0.16060  0.71960  Biso   1.000  O
  N25      1.0000 0.90730  0.49670  0.48620  Biso   1.000  N
  N26      1.0000 0.82040  0.52050  0.43980  Biso   1.000  N
  N27      1.0000 0.51710  0.72460  0.47420  Biso   1.000  N
  N28      1.0000 0.49680  0.86570  0.47740  Biso   1.000  N
  C85      1.0000 0.87970  0.54510  0.44780  Biso   1.000  C
  H85      1.0000 0.89860  0.59100  0.42820  Biso   1.000  H
  C86      1.0000 0.78100  0.55680  0.40000  Biso   1.000  C
  H86      1.0000 0.79900  0.61080  0.38500  Biso   1.000  H
  H87      1.0000 0.77640  0.51480  0.36960  Biso   1.000  H
  C87      1.0000 0.86540  0.43730  0.50460  Biso   1.000  C
  H88      1.0000 0.87160  0.39570  0.53280  Biso   1.000  H
  C88      1.0000 0.81280  0.44820  0.47550  Biso   1.000  C
  H89      1.0000 0.77790  0.41350  0.47880  Biso   1.000  H
  C89      1.0000 0.60450  0.62060  0.46760  Biso   1.000  C
  C90      1.0000 0.52030  0.80110  0.50610  Biso   1.000  C
  H90      1.0000 0.53640  0.80550  0.54180  Biso   1.000  H
  C91      1.0000 0.48940  0.74720  0.42630  Biso   1.000  C
  H91      1.0000 0.47960  0.70940  0.39700  Biso   1.000  H
  C92      1.0000 0.54310  0.64020  0.49430  Biso   1.000  C
  H92      1.0000 0.54790  0.64310  0.53440  Biso   1.000  H
  H93      1.0000 0.51520  0.59190  0.48600  Biso   1.000  H
  C93      1.0000 0.61650  0.53710  0.44750  Biso   1.000  C
  H94      1.0000 0.58640  0.49360  0.44860  Biso   1.000  H
  C94      1.0000 0.71870  0.57870  0.42370  Biso   1.000  C
  C95      1.0000 0.67400  0.51640  0.42520  Biso   1.000  C
  H95      1.0000 0.68140  0.45950  0.41140  Biso   1.000  H
  C96      1.0000 0.70660  0.66250  0.44360  Biso   1.000  C
  H96      1.0000 0.73650  0.70630  0.44240  Biso   1.000  H
  C97      1.0000 0.65010  0.68230  0.46540  Biso   1.000  C
  H97      1.0000 0.64290  0.73930  0.47900  Biso   1.000  H
  C98      1.0000 0.47890  0.83260  0.42920  Biso   1.000  C
  H98      1.0000 0.46110  0.86600  0.40100  Biso   1.000  H
  W43      1.0000 0.61109  0.10022  0.25829  Biso   1.000  W
  W44      1.0000 0.51972  0.10077  0.14752  Biso   1.000  W
  W45      1.0000 0.62590  0.25727  0.16044  Biso   1.000  W
  W46      1.0000 0.40262  0.27473  0.13452  Biso   1.000  W
  W47      1.0000 0.50818  0.43075  0.14754  Biso   1.000  W
  W48      1.0000 0.38868  0.43056  0.23197  Biso   1.000  W
  O141     1.0000 0.52970  0.50630  0.09890  Biso   1.000  O
  O142     1.0000 0.68480  0.27800  0.11770  Biso   1.000  O
  O143     1.0000 0.33250  0.50570  0.23940  Biso   1.000  O
  O144     1.0000 0.35630  0.25340  0.07930  Biso   1.000  O
  O145     1.0000 0.55740  0.46120  0.21060  Biso   1.000  O
  O146     1.0000 0.44100  0.49120  0.18020  Biso   1.000  O
  O147     1.0000 0.54690  0.20200  0.21600  Biso   1.000  O
  O148     1.0000 0.46300  0.32670  0.20700  Biso   1.000  O
  O149     1.0000 0.51290  0.03040  0.09160  Biso   1.000  O
  O150     1.0000 0.54300  0.06690  0.30280  Biso   1.000  O
  O151     1.0000 0.66390  0.02270  0.27740  Biso   1.000  O
  O152     1.0000 0.45240  0.36350  0.10240  Biso   1.000  O
  O153     1.0000 0.57550  0.04040  0.19530  Biso   1.000  O
  O154     1.0000 0.66100  0.16790  0.20670  Biso   1.000  O
  O155     1.0000 0.58640  0.16690  0.11860  Biso   1.000  O
  O156     1.0000 0.62640  0.19100  0.31170  Biso   1.000  O
  O157     1.0000 0.46750  0.19280  0.12350  Biso   1.000  O
  O158     1.0000 0.56760  0.33930  0.13420  Biso   1.000  O
  O159     1.0000 0.35640  0.36440  0.17030  Biso   1.000  O
  O160     1.0000 0.64120  0.33940  0.21960  Biso   1.000  O
  N29      1.0000 0.59270  0.00330  0.98620  Biso   1.000  N
  N30      1.0000 0.67960  0.97950  0.93980  Biso   1.000  N
  N31      1.0000 0.98290  0.77540  0.97420  Biso   1.000  N
  N32      1.0000 0.00320  0.63430  0.97740  Biso   1.000  N
  C99      1.0000 0.62030  0.95490  0.94780  Biso   1.000  C
  H99      1.0000 0.60140  0.90900  0.92820  Biso   1.000  H
  C100     1.0000 0.71900  0.94320  0.90000  Biso   1.000  C
  H100     1.0000 0.70100  0.88920  0.88500  Biso   1.000  H
  H101     1.0000 0.72360  0.98520  0.86960  Biso   1.000  H
  C101     1.0000 0.63460  0.06270  0.00460  Biso   1.000  C
  H102     1.0000 0.62840  0.10430  0.03280  Biso   1.000  H
  C102     1.0000 0.68720  0.05180  0.97550  Biso   1.000  C
  H103     1.0000 0.72210  0.08650  0.97880  Biso   1.000  H
  C103     1.0000 0.89550  0.87940  0.96760  Biso   1.000  C
  C104     1.0000 0.97970  0.69890  0.00610  Biso   1.000  C
  H104     1.0000 0.96360  0.69450  0.04180  Biso   1.000  H
  C105     1.0000 0.01060  0.75280  0.92630  Biso   1.000  C
  H105     1.0000 0.02040  0.79060  0.89700  Biso   1.000  H
  C106     1.0000 0.95690  0.85980  0.99430  Biso   1.000  C
  H106     1.0000 0.95210  0.85690  0.03440  Biso   1.000  H
  H107     1.0000 0.98480  0.90810  0.98600  Biso   1.000  H
  C107     1.0000 0.88350  0.96290  0.94750  Biso   1.000  C
  H108     1.0000 0.91360  0.00640  0.94860  Biso   1.000  H
  C108     1.0000 0.78130  0.92130  0.92370  Biso   1.000  C
  C109     1.0000 0.82600  0.98360  0.92520  Biso   1.000  C
  H109     1.0000 0.81860  0.04050  0.91140  Biso   1.000  H
  C110     1.0000 0.79340  0.83750  0.94360  Biso   1.000  C
  H110     1.0000 0.76350  0.79370  0.94240  Biso   1.000  H
  C111     1.0000 0.84990  0.81770  0.96540  Biso   1.000  C
  H111     1.0000 0.85710  0.76070  0.97900  Biso   1.000  H
  C112     1.0000 0.02110  0.66740  0.92920  Biso   1.000  C
  H112     1.0000 0.03890  0.63400  0.90100  Biso   1.000  H
  V1       1.0000 0.00000  0.76430  0.25000  Biso   1.000  V
  V2       1.0000 0.50000  0.73570  0.75000  Biso   1.000  V
  V3       1.0000 0.00000  0.23570  0.75000  Biso   1.000  V
  V4       1.0000 0.50000  0.26430  0.25000  Biso   1.000  V
  Ni1      1.0000 0.00000  0.50000  0.00000  Biso   1.000  Ni
  Ni2      1.0000 0.50000  0.00000  0.50000  Biso   1.000  Ni
  Ni3      1.0000 0.00000  0.50000  0.50000  Biso   1.000  Ni
  Ni4      1.0000 0.50000  0.00000  0.00000  Biso   1.000  Ni
