data_image0
_cell_length_a       9.34102
_cell_length_b       11.5726
_cell_length_c       17.3954
_cell_angle_alpha    105.019
_cell_angle_beta     90
_cell_angle_gamma    113.802

_symmetry_space_group_name_H-M    P 1
_symmetry_int_tables_number       1

loop_
  _symmetry_equiv_pos_as_xyz
  'x, y, z'

loop_
  _atom_site_label
  _atom_site_occupancy
  _atom_site_fract_x
  _atom_site_fract_y
  _atom_site_fract_z
  _atom_site_thermal_displace_type
  _atom_site_B_iso_or_equiv
  _atom_site_type_symbol
  Ce1      1.0000 0.66987  0.97240  0.92695  Biso   1.000  Ce
  Ce2      1.0000 0.69747  0.02760  0.57305  Biso   1.000  Ce
  Ce3      1.0000 0.33013  0.02760  0.07305  Biso   1.000  Ce
  Ce4      1.0000 0.30253  0.97240  0.42695  Biso   1.000  Ce
  Cu1      1.0000 0.09456  0.32992  0.13590  Biso   1.000  Cu
  Cu2      1.0000 0.76464  0.67008  0.36410  Biso   1.000  Cu
  Cu3      1.0000 0.90544  0.67008  0.86410  Biso   1.000  Cu
  Cu4      1.0000 0.23536  0.32992  0.63590  Biso   1.000  Cu
  H1       1.0000 0.55980  0.19720  0.77960  Biso   1.000  H
  H2       1.0000 0.50050  0.29760  0.69160  Biso   1.000  H
  H3       1.0000 0.09130  0.23080  0.76830  Biso   1.000  H
  H4       1.0000 0.14080  0.13460  0.85660  Biso   1.000  H
  H5       1.0000 0.18490  0.71960  0.05490  Biso   1.000  H
  H6       1.0000 0.08240  0.56380  0.12120  Biso   1.000  H
  H7       1.0000 0.28940  0.35800  0.00230  Biso   1.000  H
  H8       1.0000 0.38980  0.50280  0.92840  Biso   1.000  H
  H9       1.0000 0.36260  0.80280  0.72040  Biso   1.000  H
  H10      1.0000 0.20290  0.70240  0.80840  Biso   1.000  H
  H11      1.0000 0.86050  0.76920  0.73170  Biso   1.000  H
  H12      1.0000 0.00620  0.86540  0.64340  Biso   1.000  H
  H13      1.0000 0.46530  0.28040  0.44510  Biso   1.000  H
  H14      1.0000 0.51860  0.43620  0.37880  Biso   1.000  H
  H15      1.0000 0.93140  0.64200  0.49770  Biso   1.000  H
  H16      1.0000 0.88700  0.49720  0.57160  Biso   1.000  H
  H17      1.0000 0.44020  0.80280  0.22040  Biso   1.000  H
  H18      1.0000 0.49950  0.70240  0.30840  Biso   1.000  H
  H19      1.0000 0.90870  0.76920  0.23170  Biso   1.000  H
  H20      1.0000 0.85920  0.86540  0.14340  Biso   1.000  H
  H21      1.0000 0.81510  0.28040  0.94510  Biso   1.000  H
  H22      1.0000 0.91760  0.43620  0.87880  Biso   1.000  H
  H23      1.0000 0.71060  0.64200  0.99770  Biso   1.000  H
  H24      1.0000 0.61020  0.49720  0.07160  Biso   1.000  H
  H25      1.0000 0.63740  0.19720  0.27960  Biso   1.000  H
  H26      1.0000 0.79710  0.29760  0.19160  Biso   1.000  H
  H27      1.0000 0.13950  0.23080  0.26830  Biso   1.000  H
  H28      1.0000 0.99380  0.13460  0.35660  Biso   1.000  H
  H29      1.0000 0.53470  0.71960  0.55490  Biso   1.000  H
  H30      1.0000 0.48140  0.56380  0.62120  Biso   1.000  H
  H31      1.0000 0.06860  0.35800  0.50230  Biso   1.000  H
  H32      1.0000 0.11300  0.50280  0.42840  Biso   1.000  H
  C1       1.0000 0.39690  0.08180  0.88140  Biso   1.000  C
  C2       1.0000 0.35110  0.14860  0.82630  Biso   1.000  C
  C3       1.0000 0.46270  0.20140  0.77720  Biso   1.000  C
  C4       1.0000 0.42670  0.26140  0.72410  Biso   1.000  C
  C5       1.0000 0.18600  0.22200  0.76970  Biso   1.000  C
  C6       1.0000 0.21510  0.16420  0.82240  Biso   1.000  C
  C7       1.0000 0.39190  0.74380  0.95000  Biso   1.000  C
  C8       1.0000 0.30440  0.63080  0.98600  Biso   1.000  C
  C9       1.0000 0.20840  0.64680  0.04310  Biso   1.000  C
  C10      1.0000 0.14820  0.55240  0.08270  Biso   1.000  C
  C11      1.0000 0.26670  0.43140  0.01340  Biso   1.000  C
  C12      1.0000 0.33060  0.51920  0.96920  Biso   1.000  C
  C13      1.0000 0.98020  0.92860  0.97620  Biso   1.000  C
  C14      1.0000 0.70180  0.91980  0.73060  Biso   1.000  C
  C15      1.0000 0.31510  0.91820  0.61860  Biso   1.000  C
  C16      1.0000 0.20250  0.85140  0.67370  Biso   1.000  C
  C17      1.0000 0.26130  0.79860  0.72280  Biso   1.000  C
  C18      1.0000 0.16530  0.73860  0.77590  Biso   1.000  C
  C19      1.0000 0.96400  0.77800  0.73030  Biso   1.000  C
  C20      1.0000 0.05090  0.83580  0.67760  Biso   1.000  C
  C21      1.0000 0.64810  0.25620  0.55000  Biso   1.000  C
  C22      1.0000 0.67360  0.36920  0.51400  Biso   1.000  C
  C23      1.0000 0.56160  0.35320  0.45690  Biso   1.000  C
  C24      1.0000 0.59580  0.44760  0.41730  Biso   1.000  C
  C25      1.0000 0.83530  0.56860  0.48660  Biso   1.000  C
  C26      1.0000 0.81140  0.48080  0.53080  Biso   1.000  C
  C27      1.0000 0.05160  0.07140  0.52380  Biso   1.000  C
  C28      1.0000 0.78200  0.08020  0.76940  Biso   1.000  C
  C29      1.0000 0.60310  0.91820  0.11860  Biso   1.000  C
  C30      1.0000 0.64890  0.85140  0.17370  Biso   1.000  C
  C31      1.0000 0.53730  0.79860  0.22280  Biso   1.000  C
  C32      1.0000 0.57330  0.73860  0.27590  Biso   1.000  C
  C33      1.0000 0.81400  0.77800  0.23030  Biso   1.000  C
  C34      1.0000 0.78490  0.83580  0.17760  Biso   1.000  C
  C35      1.0000 0.60810  0.25620  0.05000  Biso   1.000  C
  C36      1.0000 0.69560  0.36920  0.01400  Biso   1.000  C
  C37      1.0000 0.79160  0.35320  0.95690  Biso   1.000  C
  C38      1.0000 0.85180  0.44760  0.91730  Biso   1.000  C
  C39      1.0000 0.73330  0.56860  0.98660  Biso   1.000  C
  C40      1.0000 0.66940  0.48080  0.03080  Biso   1.000  C
  C41      1.0000 0.01980  0.07140  0.02380  Biso   1.000  C
  C42      1.0000 0.29820  0.08020  0.26940  Biso   1.000  C
  C43      1.0000 0.68490  0.08180  0.38140  Biso   1.000  C
  C44      1.0000 0.79750  0.14860  0.32630  Biso   1.000  C
  C45      1.0000 0.73870  0.20140  0.27720  Biso   1.000  C
  C46      1.0000 0.83470  0.26140  0.22410  Biso   1.000  C
  C47      1.0000 0.03600  0.22200  0.26970  Biso   1.000  C
  C48      1.0000 0.94910  0.16420  0.32240  Biso   1.000  C
  C49      1.0000 0.35190  0.74380  0.45000  Biso   1.000  C
  C50      1.0000 0.32640  0.63080  0.48600  Biso   1.000  C
  C51      1.0000 0.43840  0.64680  0.54310  Biso   1.000  C
  C52      1.0000 0.40420  0.55240  0.58270  Biso   1.000  C
  C53      1.0000 0.16470  0.43140  0.51340  Biso   1.000  C
  C54      1.0000 0.18860  0.51920  0.46920  Biso   1.000  C
  C55      1.0000 0.94840  0.92860  0.47620  Biso   1.000  C
  C56      1.0000 0.21800  0.91980  0.23060  Biso   1.000  C
  N1       1.0000 0.28840  0.26680  0.71980  Biso   1.000  N
  N2       1.0000 0.17700  0.44400  0.06980  Biso   1.000  N
  N3       1.0000 0.02160  0.73320  0.78020  Biso   1.000  N
  N4       1.0000 0.73300  0.55600  0.43020  Biso   1.000  N
  N5       1.0000 0.71160  0.73320  0.28020  Biso   1.000  N
  N6       1.0000 0.82300  0.55600  0.93020  Biso   1.000  N
  N7       1.0000 0.97840  0.26680  0.21980  Biso   1.000  N
  N8       1.0000 0.26700  0.44400  0.56980  Biso   1.000  N
  O1       1.0000 0.49090  0.03680  0.86490  Biso   1.000  O
  O2       1.0000 0.31690  0.07860  0.94310  Biso   1.000  O
  O3       1.0000 0.48700  0.72800  0.90050  Biso   1.000  O
  O4       1.0000 0.37380  0.84900  0.97220  Biso   1.000  O
  O5       1.0000 0.86240  0.87180  0.92370  Biso   1.000  O
  O6       1.0000 0.06750  0.87720  0.99600  Biso   1.000  O
  O7       1.0000 0.65260  0.85580  0.77970  Biso   1.000  O
  O8       1.0000 0.70760  0.88240  0.65740  Biso   1.000  O
  O9       1.0000 0.45410  0.96320  0.63510  Biso   1.000  O
  O10      1.0000 0.23830  0.92140  0.55690  Biso   1.000  O
  O11      1.0000 0.75900  0.27200  0.59950  Biso   1.000  O
  O12      1.0000 0.52480  0.15100  0.52780  Biso   1.000  O
  O13      1.0000 0.99060  0.12820  0.57630  Biso   1.000  O
  O14      1.0000 0.19030  0.12280  0.50400  Biso   1.000  O
  O15      1.0000 0.79680  0.14420  0.72030  Biso   1.000  O
  O16      1.0000 0.82520  0.11760  0.84260  Biso   1.000  O
  O17      1.0000 0.50910  0.96320  0.13510  Biso   1.000  O
  O18      1.0000 0.68310  0.92140  0.05690  Biso   1.000  O
  O19      1.0000 0.51300  0.27200  0.09950  Biso   1.000  O
  O20      1.0000 0.62620  0.15100  0.02780  Biso   1.000  O
  O21      1.0000 0.13760  0.12820  0.07630  Biso   1.000  O
  O22      1.0000 0.93250  0.12280  0.00400  Biso   1.000  O
  O23      1.0000 0.34740  0.14420  0.22030  Biso   1.000  O
  O24      1.0000 0.29240  0.11760  0.34260  Biso   1.000  O
  O25      1.0000 0.54590  0.03680  0.36490  Biso   1.000  O
  O26      1.0000 0.76170  0.07860  0.44310  Biso   1.000  O
  O27      1.0000 0.24100  0.72800  0.40050  Biso   1.000  O
  O28      1.0000 0.47520  0.84900  0.47220  Biso   1.000  O
  O29      1.0000 0.00940  0.87180  0.42370  Biso   1.000  O
  O30      1.0000 0.80970  0.87720  0.49600  Biso   1.000  O
  O31      1.0000 0.20320  0.85580  0.27970  Biso   1.000  O
  O32      1.0000 0.17480  0.88240  0.15740  Biso   1.000  O
