data_image0
_cell_length_a       9.39391
_cell_length_b       11.5186
_cell_length_c       17.5535
_cell_angle_alpha    105.289
_cell_angle_beta     90
_cell_angle_gamma    114.065

_symmetry_space_group_name_H-M    P 1
_symmetry_int_tables_number       1

loop_
  _symmetry_equiv_pos_as_xyz
  'x, y, z'

loop_
  _atom_site_label
  _atom_site_occupancy
  _atom_site_fract_x
  _atom_site_fract_y
  _atom_site_fract_z
  _atom_site_thermal_displace_type
  _atom_site_B_iso_or_equiv
  _atom_site_type_symbol
  La1      1.0000 0.66858  0.97134  0.92668  Biso   1.000  La
  La2      1.0000 0.69724  0.02866  0.57332  Biso   1.000  La
  La3      1.0000 0.33142  0.02866  0.07332  Biso   1.000  La
  La4      1.0000 0.30276  0.97134  0.42668  Biso   1.000  La
  Cu1      1.0000 0.09512  0.33006  0.13784  Biso   1.000  Cu
  Cu2      1.0000 0.76506  0.66994  0.36216  Biso   1.000  Cu
  Cu3      1.0000 0.90488  0.66994  0.86216  Biso   1.000  Cu
  Cu4      1.0000 0.23494  0.33006  0.63784  Biso   1.000  Cu
  H1       1.0000 0.55710  0.19520  0.77850  Biso   1.000  H
  H2       1.0000 0.49810  0.29300  0.69230  Biso   1.000  H
  H3       1.0000 0.09290  0.23160  0.76820  Biso   1.000  H
  H4       1.0000 0.14300  0.13660  0.85890  Biso   1.000  H
  H5       1.0000 0.17820  0.71520  0.05150  Biso   1.000  H
  H6       1.0000 0.08270  0.56520  0.12300  Biso   1.000  H
  H7       1.0000 0.27930  0.34960  0.00230  Biso   1.000  H
  H8       1.0000 0.38710  0.49800  0.92990  Biso   1.000  H
  H9       1.0000 0.36190  0.80480  0.72150  Biso   1.000  H
  H10      1.0000 0.20510  0.70700  0.80770  Biso   1.000  H
  H11      1.0000 0.86130  0.76840  0.73180  Biso   1.000  H
  H12      1.0000 0.00640  0.86340  0.64110  Biso   1.000  H
  H13      1.0000 0.46300  0.28480  0.44850  Biso   1.000  H
  H14      1.0000 0.51750  0.43480  0.37700  Biso   1.000  H
  H15      1.0000 0.92970  0.65040  0.49770  Biso   1.000  H
  H16      1.0000 0.88910  0.50200  0.57010  Biso   1.000  H
  H17      1.0000 0.44290  0.80480  0.22150  Biso   1.000  H
  H18      1.0000 0.50190  0.70700  0.30770  Biso   1.000  H
  H19      1.0000 0.90710  0.76840  0.23180  Biso   1.000  H
  H20      1.0000 0.85700  0.86340  0.14110  Biso   1.000  H
  H21      1.0000 0.82180  0.28480  0.94850  Biso   1.000  H
  H22      1.0000 0.91730  0.43480  0.87700  Biso   1.000  H
  H23      1.0000 0.72070  0.65040  0.99770  Biso   1.000  H
  H24      1.0000 0.61290  0.50200  0.07010  Biso   1.000  H
  H25      1.0000 0.63810  0.19520  0.27850  Biso   1.000  H
  H26      1.0000 0.79490  0.29300  0.19230  Biso   1.000  H
  H27      1.0000 0.13870  0.23160  0.26820  Biso   1.000  H
  H28      1.0000 0.99360  0.13660  0.35890  Biso   1.000  H
  H29      1.0000 0.53700  0.71520  0.55150  Biso   1.000  H
  H30      1.0000 0.48250  0.56520  0.62300  Biso   1.000  H
  H31      1.0000 0.07030  0.34960  0.50230  Biso   1.000  H
  H32      1.0000 0.11090  0.49800  0.42990  Biso   1.000  H
  C1       1.0000 0.38939  0.08558  0.88368  Biso   1.000  C
  C2       1.0000 0.35456  0.15212  0.82739  Biso   1.000  C
  C3       1.0000 0.46120  0.20100  0.77730  Biso   1.000  C
  C4       1.0000 0.42430  0.25860  0.72520  Biso   1.000  C
  C5       1.0000 0.18720  0.22340  0.76990  Biso   1.000  C
  C6       1.0000 0.21610  0.16560  0.82460  Biso   1.000  C
  C7       1.0000 0.39009  0.73778  0.94854  Biso   1.000  C
  C8       1.0000 0.30368  0.62896  0.98639  Biso   1.000  C
  C9       1.0000 0.20511  0.64382  0.04220  Biso   1.000  C
  C10      1.0000 0.14630  0.55200  0.08410  Biso   1.000  C
  C11      1.0000 0.26210  0.42600  0.01390  Biso   1.000  C
  C12      1.0000 0.32759  0.51518  0.97010  Biso   1.000  C
  C13      1.0000 0.98029  0.92698  0.97621  Biso   1.000  C
  C14      1.0000 0.70600  0.92400  0.73177  Biso   1.000  C
  C15      1.0000 0.30381  0.91442  0.61632  Biso   1.000  C
  C16      1.0000 0.20244  0.84788  0.67261  Biso   1.000  C
  C17      1.0000 0.26020  0.79900  0.72270  Biso   1.000  C
  C18      1.0000 0.16570  0.74140  0.77480  Biso   1.000  C
  C19      1.0000 0.96380  0.77660  0.73010  Biso   1.000  C
  C20      1.0000 0.05050  0.83440  0.67540  Biso   1.000  C
  C21      1.0000 0.65231  0.26222  0.55146  Biso   1.000  C
  C22      1.0000 0.67472  0.37104  0.51361  Biso   1.000  C
  C23      1.0000 0.56129  0.35618  0.45780  Biso   1.000  C
  C24      1.0000 0.59430  0.44800  0.41590  Biso   1.000  C
  C25      1.0000 0.83610  0.57400  0.48610  Biso   1.000  C
  C26      1.0000 0.81241  0.48482  0.52990  Biso   1.000  C
  C27      1.0000 0.05331  0.07302  0.52379  Biso   1.000  C
  C28      1.0000 0.78200  0.07600  0.76823  Biso   1.000  C
  C29      1.0000 0.61061  0.91442  0.11632  Biso   1.000  C
  C30      1.0000 0.64544  0.84788  0.17261  Biso   1.000  C
  C31      1.0000 0.53880  0.79900  0.22270  Biso   1.000  C
  C32      1.0000 0.57570  0.74140  0.27480  Biso   1.000  C
  C33      1.0000 0.81280  0.77660  0.23010  Biso   1.000  C
  C34      1.0000 0.78390  0.83440  0.17540  Biso   1.000  C
  C35      1.0000 0.60991  0.26222  0.05146  Biso   1.000  C
  C36      1.0000 0.69632  0.37104  0.01361  Biso   1.000  C
  C37      1.0000 0.79489  0.35618  0.95780  Biso   1.000  C
  C38      1.0000 0.85370  0.44800  0.91590  Biso   1.000  C
  C39      1.0000 0.73790  0.57400  0.98610  Biso   1.000  C
  C40      1.0000 0.67241  0.48482  0.02990  Biso   1.000  C
  C41      1.0000 0.01971  0.07302  0.02379  Biso   1.000  C
  C42      1.0000 0.29400  0.07600  0.26823  Biso   1.000  C
  C43      1.0000 0.69619  0.08558  0.38368  Biso   1.000  C
  C44      1.0000 0.79756  0.15212  0.32739  Biso   1.000  C
  C45      1.0000 0.73980  0.20100  0.27730  Biso   1.000  C
  C46      1.0000 0.83430  0.25860  0.22520  Biso   1.000  C
  C47      1.0000 0.03620  0.22340  0.26990  Biso   1.000  C
  C48      1.0000 0.94950  0.16560  0.32460  Biso   1.000  C
  C49      1.0000 0.34769  0.73778  0.44854  Biso   1.000  C
  C50      1.0000 0.32528  0.62896  0.48639  Biso   1.000  C
  C51      1.0000 0.43871  0.64382  0.54220  Biso   1.000  C
  C52      1.0000 0.40570  0.55200  0.58410  Biso   1.000  C
  C53      1.0000 0.16390  0.42600  0.51390  Biso   1.000  C
  C54      1.0000 0.18759  0.51518  0.47010  Biso   1.000  C
  C55      1.0000 0.94669  0.92698  0.47621  Biso   1.000  C
  C56      1.0000 0.21800  0.92400  0.23177  Biso   1.000  C
  N1       1.0000 0.28773  0.26746  0.71982  Biso   1.000  N
  N2       1.0000 0.17592  0.44524  0.07185  Biso   1.000  N
  N3       1.0000 0.02027  0.73254  0.78018  Biso   1.000  N
  N4       1.0000 0.73068  0.55476  0.42815  Biso   1.000  N
  N5       1.0000 0.71227  0.73254  0.28018  Biso   1.000  N
  N6       1.0000 0.82408  0.55476  0.92815  Biso   1.000  N
  N7       1.0000 0.97973  0.26746  0.21982  Biso   1.000  N
  N8       1.0000 0.26932  0.44524  0.57185  Biso   1.000  N
  O1       1.0000 0.48925  0.03970  0.86598  Biso   1.000  O
  O2       1.0000 0.31772  0.08264  0.94366  Biso   1.000  O
  O3       1.0000 0.48219  0.72158  0.89999  Biso   1.000  O
  O4       1.0000 0.37424  0.84548  0.97092  Biso   1.000  O
  O5       1.0000 0.86530  0.86960  0.92299  Biso   1.000  O
  O6       1.0000 0.06556  0.87692  0.99512  Biso   1.000  O
  O7       1.0000 0.65377  0.85574  0.77914  Biso   1.000  O
  O8       1.0000 0.70607  0.88174  0.65847  Biso   1.000  O
  O9       1.0000 0.44955  0.96030  0.63402  Biso   1.000  O
  O10      1.0000 0.23508  0.91736  0.55634  Biso   1.000  O
  O11      1.0000 0.76061  0.27842  0.60001  Biso   1.000  O
  O12      1.0000 0.52876  0.15452  0.52908  Biso   1.000  O
  O13      1.0000 0.99570  0.13040  0.57701  Biso   1.000  O
  O14      1.0000 0.18864  0.12308  0.50488  Biso   1.000  O
  O15      1.0000 0.79803  0.14426  0.72086  Biso   1.000  O
  O16      1.0000 0.82433  0.11826  0.84153  Biso   1.000  O
  O17      1.0000 0.51075  0.96030  0.13402  Biso   1.000  O
  O18      1.0000 0.68228  0.91736  0.05634  Biso   1.000  O
  O19      1.0000 0.51781  0.27842  0.10001  Biso   1.000  O
  O20      1.0000 0.62576  0.15452  0.02908  Biso   1.000  O
  O21      1.0000 0.13470  0.13040  0.07701  Biso   1.000  O
  O22      1.0000 0.93444  0.12308  0.00488  Biso   1.000  O
  O23      1.0000 0.34623  0.14426  0.22086  Biso   1.000  O
  O24      1.0000 0.29393  0.11826  0.34153  Biso   1.000  O
  O25      1.0000 0.55045  0.03970  0.36598  Biso   1.000  O
  O26      1.0000 0.76492  0.08264  0.44366  Biso   1.000  O
  O27      1.0000 0.23939  0.72158  0.39999  Biso   1.000  O
  O28      1.0000 0.47124  0.84548  0.47092  Biso   1.000  O
  O29      1.0000 0.00430  0.86960  0.42299  Biso   1.000  O
  O30      1.0000 0.81136  0.87692  0.49512  Biso   1.000  O
  O31      1.0000 0.20197  0.85574  0.27914  Biso   1.000  O
  O32      1.0000 0.17567  0.88174  0.15847  Biso   1.000  O
