data_NIMWUD_freeONLY
_audit_creation_date              2015-10-16
_audit_creation_method            'Materials Studio'
_symmetry_space_group_name_H-M    'P1'
_symmetry_Int_Tables_number       1
_symmetry_cell_setting            triclinic
loop_
_symmetry_equiv_pos_as_xyz
  x,y,z
_cell_length_a                    11.4545
_cell_length_b                    11.4545
_cell_length_c                    15.0777
_cell_angle_alpha                 109.6210
_cell_angle_beta                  109.6210
_cell_angle_gamma                 96.5834
loop_
_atom_site_label
_atom_site_type_symbol
_atom_site_fract_x
_atom_site_fract_y
_atom_site_fract_z
_atom_site_U_iso_or_equiv
_atom_site_adp_type
_atom_site_occupancy
Cd1    Cd    0.26684   0.00398   0.28620   0.01267  Uiso   1.00
Cd2    Cd    0.73316   0.99602   0.71380   0.01267  Uiso   1.00
Cd3    Cd    0.00398   0.26684   0.78620   0.01267  Uiso   1.00
Cd4    Cd    0.99602   0.73316   0.21380   0.01267  Uiso   1.00
H1     H     0.11620   0.83900   0.92070   0.01267  Uiso   1.00
H2     H     0.75480   0.55840   0.85670   0.01267  Uiso   1.00
H3     H     0.98430   0.48750   0.69600   0.01267  Uiso   1.00
H4     H     0.83900   0.11620   0.42070   0.01267  Uiso   1.00
H5     H     0.55840   0.75480   0.35670   0.01267  Uiso   1.00
H6     H     0.67780   0.66280   0.12700   0.01267  Uiso   1.00
H7     H     0.88380   0.16100   0.07930   0.01267  Uiso   1.00
H8     H     0.24520   0.44160   0.14330   0.01267  Uiso   1.00
H9     H     0.93160   0.81640   0.40940   0.01267  Uiso   1.00
H10    H     0.18360   0.06840   0.09060   0.01267  Uiso   1.00
H11    H     0.33720   0.32220   0.37300   0.01267  Uiso   1.00
H12    H     0.81640   0.93160   0.90940   0.01267  Uiso   1.00
H13    H     0.01570   0.51250   0.30400   0.01267  Uiso   1.00
H14    H     0.47670   0.89490   0.51910   0.01267  Uiso   1.00
H15    H     0.16100   0.88380   0.57930   0.01267  Uiso   1.00
H16    H     0.48750   0.98430   0.19600   0.01267  Uiso   1.00
H17    H     0.10510   0.52330   0.98090   0.01267  Uiso   1.00
H18    H     0.44160   0.24520   0.64330   0.01267  Uiso   1.00
H19    H     0.32220   0.33720   0.87300   0.01267  Uiso   1.00
H20    H     0.00220   0.94860   0.19310   0.01267  Uiso   1.00
H21    H     0.52330   0.10510   0.48090   0.01267  Uiso   1.00
H22    H     0.06840   0.18360   0.59060   0.01267  Uiso   1.00
H23    H     0.51250   0.01570   0.80400   0.01267  Uiso   1.00
H24    H     0.66280   0.67780   0.62700   0.01267  Uiso   1.00
H25    H     0.89490   0.47670   0.01910   0.01267  Uiso   1.00
H26    H     0.05140   0.99780   0.30690   0.01267  Uiso   1.00
H27    H     0.99780   0.05140   0.80690   0.01267  Uiso   1.00
H28    H     0.94860   0.00220   0.69310   0.01267  Uiso   1.00
C1     C     0.78610   0.84610   0.86330   0.01267  Uiso   1.00
C2     C     0.16480   0.77000   0.08400   0.01267  Uiso   1.00
C3     C     0.70090   0.59870   0.73050   0.01267  Uiso   1.00
C4     C     0.84610   0.78610   0.36330   0.01267  Uiso   1.00
C5     C     0.14790   0.20750   0.98230   0.01267  Uiso   1.00
C6     C     0.56120   0.09020   0.43370   0.01267  Uiso   1.00
C7     C     0.95620   0.32860   0.20360   0.01267  Uiso   1.00
C8     C     0.59870   0.70090   0.23050   0.01267  Uiso   1.00
C9     C     0.53960   0.01860   0.26580   0.01267  Uiso   1.00
C10    C     0.32860   0.95620   0.70360   0.01267  Uiso   1.00
C11    C     0.29910   0.40130   0.26950   0.01267  Uiso   1.00
C12    C     0.09610   0.75030   0.89900   0.01267  Uiso   1.00
C13    C     0.90980   0.43880   0.06630   0.01267  Uiso   1.00
C14    C     0.24830   0.20690   0.59760   0.01267  Uiso   1.00
C15    C     0.21390   0.15390   0.13670   0.01267  Uiso   1.00
C16    C     0.46040   0.98140   0.73420   0.01267  Uiso   1.00
C17    C     0.69730   0.69610   0.19720   0.01267  Uiso   1.00
C18    C     0.24960   0.37560   0.16630   0.01267  Uiso   1.00
C19    C     0.90390   0.24970   0.10100   0.01267  Uiso   1.00
C20    C     0.20690   0.24830   0.09760   0.01267  Uiso   1.00
C21    C     0.30640   0.88160   0.53030   0.01267  Uiso   1.00
C22    C     0.30270   0.30390   0.80280   0.01267  Uiso   1.00
C23    C     0.88160   0.30640   0.03030   0.01267  Uiso   1.00
C24    C     0.77000   0.16480   0.58400   0.01267  Uiso   1.00
C25    C     0.24970   0.90390   0.60100   0.01267  Uiso   1.00
C26    C     0.75170   0.79310   0.40240   0.01267  Uiso   1.00
C27    C     0.40130   0.29910   0.76950   0.01267  Uiso   1.00
C28    C     0.11840   0.69360   0.96970   0.01267  Uiso   1.00
C29    C     0.69360   0.11840   0.46970   0.01267  Uiso   1.00
C30    C     0.20750   0.14790   0.48230   0.01267  Uiso   1.00
C31    C     0.15390   0.21390   0.63670   0.01267  Uiso   1.00
C32    C     0.85210   0.79250   0.01770   0.01267  Uiso   1.00
C33    C     0.62440   0.75040   0.33370   0.01267  Uiso   1.00
C34    C     0.23000   0.83520   0.41600   0.01267  Uiso   1.00
C35    C     0.75030   0.09610   0.39900   0.01267  Uiso   1.00
C36    C     0.79310   0.75170   0.90240   0.01267  Uiso   1.00
C37    C     0.67140   0.04380   0.29640   0.01267  Uiso   1.00
C38    C     0.01860   0.53960   0.76580   0.01267  Uiso   1.00
C39    C     0.79250   0.85210   0.51770   0.01267  Uiso   1.00
C40    C     0.98140   0.46040   0.23420   0.01267  Uiso   1.00
C41    C     0.09020   0.56120   0.93370   0.01267  Uiso   1.00
C42    C     0.83520   0.23000   0.91600   0.01267  Uiso   1.00
C43    C     0.04380   0.67140   0.79640   0.01267  Uiso   1.00
C44    C     0.69610   0.69730   0.69720   0.01267  Uiso   1.00
C45    C     0.43880   0.90980   0.56630   0.01267  Uiso   1.00
C46    C     0.37560   0.24960   0.66630   0.01267  Uiso   1.00
C47    C     0.30390   0.30270   0.30280   0.01267  Uiso   1.00
C48    C     0.75040   0.62440   0.83370   0.01267  Uiso   1.00
N1     N     0.48520   0.04200   0.33280   0.01267  Uiso   1.00
N2     N     0.95800   0.51480   0.16720   0.01267  Uiso   1.00
N3     N     0.82000   0.73840   0.26340   0.01267  Uiso   1.00
N4     N     0.26160   0.18000   0.23660   0.01267  Uiso   1.00
N5     N     0.73840   0.82000   0.76340   0.01267  Uiso   1.00
N6     N     0.51480   0.95800   0.66720   0.01267  Uiso   1.00
N7     N     0.18000   0.26160   0.73660   0.01267  Uiso   1.00
N8     N     0.04200   0.48520   0.83280   0.01267  Uiso   1.00
Cl1    Cl    0.73281   0.00415   0.20284   0.01267  Uiso   1.00
Cl2    Cl    0.64702   0.44142   0.63980   0.01267  Uiso   1.00
Cl3    Cl    0.00415   0.73281   0.70284   0.01267  Uiso   1.00
Cl4    Cl    0.26719   0.99585   0.79716   0.01267  Uiso   1.00
Cl5    Cl    0.35298   0.55858   0.36020   0.01267  Uiso   1.00
Cl6    Cl    0.55858   0.35298   0.86020   0.01267  Uiso   1.00
Cl7    Cl    0.99585   0.26719   0.29716   0.01267  Uiso   1.00
Cl8    Cl    0.44142   0.64702   0.13980   0.01267  Uiso   1.00
O1     O     0.71181   0.13779   0.63400   0.01267  Uiso   1.00
O2     O     0.89320   0.91100   0.07060   0.01267  Uiso   1.00
O3     O     0.88440   0.22560   0.61920   0.01267  Uiso   1.00
O4     O     0.91100   0.89320   0.57060   0.01267  Uiso   1.00
O5     O     0.28819   0.86221   0.36600   0.01267  Uiso   1.00
O6     O     0.70531   0.85549   0.55040   0.01267  Uiso   1.00
O7     O     0.05100   0.94900   0.25000   0.01267  Uiso   1.00
O8     O     0.11560   0.77440   0.38080   0.01267  Uiso   1.00
O9     O     0.13779   0.71181   0.13400   0.01267  Uiso   1.00
O10    O     0.14451   0.29469   0.94960   0.01267  Uiso   1.00
O11    O     0.08900   0.10680   0.42940   0.01267  Uiso   1.00
O12    O     0.10680   0.08900   0.92940   0.01267  Uiso   1.00
O13    O     0.22560   0.88440   0.11920   0.01267  Uiso   1.00
O14    O     0.77440   0.11560   0.88080   0.01267  Uiso   1.00
O15    O     0.85549   0.70531   0.05040   0.01267  Uiso   1.00
O16    O     0.29469   0.14451   0.44960   0.01267  Uiso   1.00
O17    O     0.94900   0.05100   0.75000   0.01267  Uiso   1.00
O18    O     0.86221   0.28819   0.86600   0.01267  Uiso   1.00
