data_image0
_cell_length_a       18.8322
_cell_length_b       18.8322
_cell_length_c       18.8322
_cell_angle_alpha    60
_cell_angle_beta     60
_cell_angle_gamma    60

_symmetry_space_group_name_H-M    P 1
_symmetry_int_tables_number       1

loop_
  _symmetry_equiv_pos_as_xyz
  'x, y, z'

loop_
  _atom_site_label
  _atom_site_occupancy
  _atom_site_fract_x
  _atom_site_fract_y
  _atom_site_fract_z
  _atom_site_thermal_displace_type
  _atom_site_B_iso_or_equiv
  _atom_site_type_symbol
  Fe1      1.0000 0.57936  0.42064  0.00000  Biso   1.000  Fe
  Fe2      1.0000 0.42064  0.57936  0.00000  Biso   1.000  Fe
  Fe3      1.0000 0.00000  0.00000  0.57936  Biso   1.000  Fe
  Fe4      1.0000 0.00000  0.00000  0.42064  Biso   1.000  Fe
  Fe5      1.0000 0.57936  0.00000  0.00000  Biso   1.000  Fe
  Fe6      1.0000 0.42064  0.00000  0.00000  Biso   1.000  Fe
  Fe7      1.0000 0.00000  0.57936  0.42064  Biso   1.000  Fe
  Fe8      1.0000 0.00000  0.42064  0.57936  Biso   1.000  Fe
  Fe9      1.0000 0.57936  0.00000  0.42064  Biso   1.000  Fe
  Fe10     1.0000 0.42064  0.00000  0.57936  Biso   1.000  Fe
  Fe11     1.0000 0.00000  0.42064  0.00000  Biso   1.000  Fe
  Fe12     1.0000 0.00000  0.57936  0.00000  Biso   1.000  Fe
  H1       1.0000 0.26800  0.50400  0.96000  Biso   1.000  H
  H2       1.0000 0.50400  0.26800  0.26800  Biso   1.000  H
  H3       1.0000 0.96000  0.26800  0.26800  Biso   1.000  H
  H4       1.0000 0.26800  0.96000  0.50400  Biso   1.000  H
  H5       1.0000 0.26800  0.96000  0.26800  Biso   1.000  H
  H6       1.0000 0.50400  0.26800  0.96000  Biso   1.000  H
  H7       1.0000 0.96000  0.26800  0.50400  Biso   1.000  H
  H8       1.0000 0.26800  0.50400  0.26800  Biso   1.000  H
  H9       1.0000 0.26800  0.26800  0.50400  Biso   1.000  H
  H10      1.0000 0.50400  0.96000  0.26800  Biso   1.000  H
  H11      1.0000 0.96000  0.50400  0.26800  Biso   1.000  H
  H12      1.0000 0.26800  0.26800  0.96000  Biso   1.000  H
  H13      1.0000 0.49600  0.73200  0.04000  Biso   1.000  H
  H14      1.0000 0.73200  0.49600  0.73200  Biso   1.000  H
  H15      1.0000 0.73200  0.04000  0.73200  Biso   1.000  H
  H16      1.0000 0.04000  0.73200  0.49600  Biso   1.000  H
  H17      1.0000 0.04000  0.73200  0.73200  Biso   1.000  H
  H18      1.0000 0.73200  0.49600  0.04000  Biso   1.000  H
  H19      1.0000 0.73200  0.04000  0.49600  Biso   1.000  H
  H20      1.0000 0.49600  0.73200  0.73200  Biso   1.000  H
  H21      1.0000 0.73200  0.73200  0.49600  Biso   1.000  H
  H22      1.0000 0.04000  0.49600  0.73200  Biso   1.000  H
  H23      1.0000 0.49600  0.04000  0.73200  Biso   1.000  H
  H24      1.0000 0.73200  0.73200  0.04000  Biso   1.000  H
  C1       1.0000 0.43070  0.43070  0.97350  Biso   1.000  C
  C2       1.0000 0.38630  0.38630  0.96898  Biso   1.000  C
  C3       1.0000 0.43070  0.43070  0.16510  Biso   1.000  C
  C4       1.0000 0.38630  0.38630  0.25842  Biso   1.000  C
  C5       1.0000 0.97350  0.16510  0.43070  Biso   1.000  C
  C6       1.0000 0.96898  0.25842  0.38630  Biso   1.000  C
  C7       1.0000 0.16510  0.97350  0.43070  Biso   1.000  C
  C8       1.0000 0.25842  0.96898  0.38630  Biso   1.000  C
  C9       1.0000 0.43070  0.97350  0.16510  Biso   1.000  C
  C10      1.0000 0.38630  0.96898  0.25842  Biso   1.000  C
  C11      1.0000 0.43070  0.16510  0.97350  Biso   1.000  C
  C12      1.0000 0.38630  0.25842  0.96898  Biso   1.000  C
  C13      1.0000 0.97350  0.43070  0.43070  Biso   1.000  C
  C14      1.0000 0.96898  0.38630  0.38630  Biso   1.000  C
  C15      1.0000 0.16510  0.43070  0.43070  Biso   1.000  C
  C16      1.0000 0.25842  0.38630  0.38630  Biso   1.000  C
  C17      1.0000 0.43070  0.16510  0.43070  Biso   1.000  C
  C18      1.0000 0.38630  0.25842  0.38630  Biso   1.000  C
  C19      1.0000 0.43070  0.97350  0.43070  Biso   1.000  C
  C20      1.0000 0.38630  0.96898  0.38630  Biso   1.000  C
  C21      1.0000 0.97350  0.43070  0.16510  Biso   1.000  C
  C22      1.0000 0.96898  0.38630  0.25842  Biso   1.000  C
  C23      1.0000 0.16510  0.43070  0.97350  Biso   1.000  C
  C24      1.0000 0.25842  0.38630  0.96898  Biso   1.000  C
  C25      1.0000 0.56930  0.56930  0.02650  Biso   1.000  C
  C26      1.0000 0.61370  0.61370  0.03102  Biso   1.000  C
  C27      1.0000 0.56930  0.56930  0.83490  Biso   1.000  C
  C28      1.0000 0.61370  0.61370  0.74158  Biso   1.000  C
  C29      1.0000 0.83490  0.02650  0.56930  Biso   1.000  C
  C30      1.0000 0.74158  0.03102  0.61370  Biso   1.000  C
  C31      1.0000 0.02650  0.83490  0.56930  Biso   1.000  C
  C32      1.0000 0.03102  0.74158  0.61370  Biso   1.000  C
  C33      1.0000 0.02650  0.56930  0.83490  Biso   1.000  C
  C34      1.0000 0.03102  0.61370  0.74158  Biso   1.000  C
  C35      1.0000 0.83490  0.56930  0.02650  Biso   1.000  C
  C36      1.0000 0.74158  0.61370  0.03102  Biso   1.000  C
  C37      1.0000 0.56930  0.02650  0.56930  Biso   1.000  C
  C38      1.0000 0.61370  0.03102  0.61370  Biso   1.000  C
  C39      1.0000 0.56930  0.83490  0.56930  Biso   1.000  C
  C40      1.0000 0.61370  0.74158  0.61370  Biso   1.000  C
  C41      1.0000 0.83490  0.56930  0.56930  Biso   1.000  C
  C42      1.0000 0.74158  0.61370  0.61370  Biso   1.000  C
  C43      1.0000 0.02650  0.56930  0.56930  Biso   1.000  C
  C44      1.0000 0.03102  0.61370  0.61370  Biso   1.000  C
  C45      1.0000 0.56930  0.02650  0.83490  Biso   1.000  C
  C46      1.0000 0.61370  0.03102  0.74158  Biso   1.000  C
  C47      1.0000 0.56930  0.83490  0.02650  Biso   1.000  C
  C48      1.0000 0.61370  0.74158  0.03102  Biso   1.000  C
  C49      1.0000 0.30130  0.42874  0.96866  Biso   1.000  C
  C50      1.0000 0.42874  0.30130  0.30130  Biso   1.000  C
  C51      1.0000 0.96866  0.30130  0.30130  Biso   1.000  C
  C52      1.0000 0.30130  0.96866  0.42874  Biso   1.000  C
  C53      1.0000 0.30130  0.96866  0.30130  Biso   1.000  C
  C54      1.0000 0.42874  0.30130  0.96866  Biso   1.000  C
  C55      1.0000 0.96866  0.30130  0.42874  Biso   1.000  C
  C56      1.0000 0.30130  0.42874  0.30130  Biso   1.000  C
  C57      1.0000 0.30130  0.30130  0.42874  Biso   1.000  C
  C58      1.0000 0.42874  0.96866  0.30130  Biso   1.000  C
  C59      1.0000 0.96866  0.42874  0.30130  Biso   1.000  C
  C60      1.0000 0.30130  0.30130  0.96866  Biso   1.000  C
  C61      1.0000 0.57126  0.69870  0.03134  Biso   1.000  C
  C62      1.0000 0.69870  0.57126  0.69870  Biso   1.000  C
  C63      1.0000 0.69870  0.03134  0.69870  Biso   1.000  C
  C64      1.0000 0.03134  0.69870  0.57126  Biso   1.000  C
  C65      1.0000 0.03134  0.69870  0.69870  Biso   1.000  C
  C66      1.0000 0.69870  0.57126  0.03134  Biso   1.000  C
  C67      1.0000 0.69870  0.03134  0.57126  Biso   1.000  C
  C68      1.0000 0.57126  0.69870  0.69870  Biso   1.000  C
  C69      1.0000 0.69870  0.69870  0.57126  Biso   1.000  C
  C70      1.0000 0.03134  0.57126  0.69870  Biso   1.000  C
  C71      1.0000 0.57126  0.03134  0.69870  Biso   1.000  C
  C72      1.0000 0.69870  0.69870  0.03134  Biso   1.000  C
  O1       1.0000 0.50458  0.38830  0.97852  Biso   1.000  O
  O2       1.0000 0.38830  0.50458  0.12860  Biso   1.000  O
  O3       1.0000 0.97852  0.12860  0.50458  Biso   1.000  O
  O4       1.0000 0.12860  0.97852  0.38830  Biso   1.000  O
  O5       1.0000 0.50458  0.97852  0.12860  Biso   1.000  O
  O6       1.0000 0.38830  0.12860  0.97852  Biso   1.000  O
  O7       1.0000 0.97852  0.50458  0.38830  Biso   1.000  O
  O8       1.0000 0.12860  0.38830  0.50458  Biso   1.000  O
  O9       1.0000 0.50458  0.12860  0.38830  Biso   1.000  O
  O10      1.0000 0.38830  0.97852  0.50458  Biso   1.000  O
  O11      1.0000 0.97852  0.38830  0.12860  Biso   1.000  O
  O12      1.0000 0.12860  0.50458  0.97852  Biso   1.000  O
  O13      1.0000 0.61170  0.49542  0.02148  Biso   1.000  O
  O14      1.0000 0.49542  0.61170  0.87140  Biso   1.000  O
  O15      1.0000 0.87140  0.02148  0.49542  Biso   1.000  O
  O16      1.0000 0.02148  0.87140  0.61170  Biso   1.000  O
  O17      1.0000 0.02148  0.49542  0.87140  Biso   1.000  O
  O18      1.0000 0.87140  0.61170  0.02148  Biso   1.000  O
  O19      1.0000 0.49542  0.02148  0.61170  Biso   1.000  O
  O20      1.0000 0.61170  0.87140  0.49542  Biso   1.000  O
  O21      1.0000 0.87140  0.49542  0.61170  Biso   1.000  O
  O22      1.0000 0.02148  0.61170  0.49542  Biso   1.000  O
  O23      1.0000 0.61170  0.02148  0.87140  Biso   1.000  O
  O24      1.0000 0.49542  0.87140  0.02148  Biso   1.000  O
  O25      1.0000 0.49542  0.61170  0.02148  Biso   1.000  O
  O26      1.0000 0.61170  0.49542  0.87140  Biso   1.000  O
  O27      1.0000 0.02148  0.87140  0.49542  Biso   1.000  O
  O28      1.0000 0.87140  0.02148  0.61170  Biso   1.000  O
  O29      1.0000 0.49542  0.02148  0.87140  Biso   1.000  O
  O30      1.0000 0.61170  0.87140  0.02148  Biso   1.000  O
  O31      1.0000 0.02148  0.49542  0.61170  Biso   1.000  O
  O32      1.0000 0.87140  0.61170  0.49542  Biso   1.000  O
  O33      1.0000 0.49542  0.87140  0.61170  Biso   1.000  O
  O34      1.0000 0.61170  0.02148  0.49542  Biso   1.000  O
  O35      1.0000 0.02148  0.61170  0.87140  Biso   1.000  O
  O36      1.0000 0.87140  0.49542  0.02148  Biso   1.000  O
  O37      1.0000 0.38830  0.50458  0.97852  Biso   1.000  O
  O38      1.0000 0.50458  0.38830  0.12860  Biso   1.000  O
  O39      1.0000 0.12860  0.97852  0.50458  Biso   1.000  O
  O40      1.0000 0.97852  0.12860  0.38830  Biso   1.000  O
  O41      1.0000 0.97852  0.50458  0.12860  Biso   1.000  O
  O42      1.0000 0.12860  0.38830  0.97852  Biso   1.000  O
  O43      1.0000 0.50458  0.97852  0.38830  Biso   1.000  O
  O44      1.0000 0.38830  0.12860  0.50458  Biso   1.000  O
  O45      1.0000 0.12860  0.50458  0.38830  Biso   1.000  O
  O46      1.0000 0.97852  0.38830  0.50458  Biso   1.000  O
  O47      1.0000 0.38830  0.97852  0.12860  Biso   1.000  O
  O48      1.0000 0.50458  0.12860  0.97852  Biso   1.000  O
