data_image0
_cell_length_a       8.4747
_cell_length_b       8.9873
_cell_length_c       8.9873
_cell_angle_alpha    77.1537
_cell_angle_beta     61.8695
_cell_angle_gamma    61.8695

_symmetry_space_group_name_H-M    P 1
_symmetry_int_tables_number       1

loop_
  _symmetry_equiv_pos_as_xyz
  'x, y, z'

loop_
  _atom_site_label
  _atom_site_occupancy
  _atom_site_fract_x
  _atom_site_fract_y
  _atom_site_fract_z
  _atom_site_thermal_displace_type
  _atom_site_B_iso_or_equiv
  _atom_site_type_symbol
  Zr1      1.0000 0.32770  0.50000  0.50000  Biso   1.000  Zr
  Cd1      1.0000 0.57664  0.00000  0.00000  Biso   1.000  Cd
  Cd2      1.0000 0.07520  0.00000  0.00000  Biso   1.000  Cd
  C1       1.0000 0.58220  0.22880  0.22880  Biso   1.000  C
  C2       1.0000 0.36430  0.27070  0.27070  Biso   1.000  C
  C3       1.0000 0.03980  0.77120  0.77120  Biso   1.000  C
  C4       1.0000 0.90570  0.72930  0.72930  Biso   1.000  C
  C5       1.0000 0.34600  0.77130  0.22870  Biso   1.000  C
  C6       1.0000 0.52300  0.72980  0.27020  Biso   1.000  C
  C7       1.0000 0.34600  0.22870  0.77130  Biso   1.000  C
  C8       1.0000 0.52300  0.27020  0.72980  Biso   1.000  C
  O1       1.0000 0.72120  0.12180  0.12180  Biso   1.000  O
  O2       1.0000 0.31580  0.19820  0.19820  Biso   1.000  O
  O3       1.0000 0.23440  0.38480  0.38480  Biso   1.000  O
  O4       1.0000 0.59270  0.31390  0.31390  Biso   1.000  O
  O5       1.0000 0.95900  0.19600  0.19600  Biso   1.000  O
  O6       1.0000 0.96480  0.87820  0.87820  Biso   1.000  O
  O7       1.0000 0.71220  0.80180  0.80180  Biso   1.000  O
  O8       1.0000 0.00400  0.61520  0.61520  Biso   1.000  O
  O9       1.0000 0.22050  0.68610  0.68610  Biso   1.000  O
  O10      1.0000 0.35100  0.80400  0.80400  Biso   1.000  O
  O11      1.0000 0.32100  0.87850  0.12150  Biso   1.000  O
  O12      1.0000 0.64800  0.80330  0.19670  Biso   1.000  O
  O13      1.0000 0.25400  0.68640  0.31360  Biso   1.000  O
  O14      1.0000 0.53840  0.61360  0.38640  Biso   1.000  O
  O15      1.0000 0.32100  0.12150  0.87850  Biso   1.000  O
  O16      1.0000 0.64800  0.19670  0.80330  Biso   1.000  O
  O17      1.0000 0.25400  0.31360  0.68640  Biso   1.000  O
  O18      1.0000 0.53840  0.38640  0.61360  Biso   1.000  O
  O19      1.0000 0.00500  0.80500  0.19500  Biso   1.000  O
  O20      1.0000 0.00500  0.19500  0.80500  Biso   1.000  O
