data_image0
_cell_length_a       13.736
_cell_length_b       13.736
_cell_length_c       15.17
_cell_angle_alpha    90
_cell_angle_beta     90
_cell_angle_gamma    120

_symmetry_space_group_name_H-M    "P 1"
_symmetry_int_tables_number       1

loop_
  _symmetry_equiv_pos_as_xyz
  'x, y, z'

loop_
  _atom_site_label
  _atom_site_occupancy
  _atom_site_fract_x
  _atom_site_fract_y
  _atom_site_fract_z
  _atom_site_thermal_displace_type
  _atom_site_B_iso_or_equiv
  _atom_site_type_symbol
  Al1      1.0000 0.99687  0.22868  0.10029  Biso   1.000  Al
  Si1      1.0000 0.22862  0.23197  0.10520  Biso   1.000  Si
  O1       1.0000 0.12340  0.24000  0.12820  Biso   1.000  O
  O2       1.0000 0.32510  0.31370  0.16720  Biso   1.000  O
  O3       1.0000 0.20200  0.10960  0.11950  Biso   1.000  O
  O4       1.0000 0.26520  0.26920  0.00870  Biso   1.000  O
  P1       1.0000 0.89864  0.33668  0.22813  Biso   1.000  P
  Al2      1.0000 0.66354  0.56201  0.43362  Biso   1.000  Al
  Si2      1.0000 0.89529  0.56530  0.43853  Biso   1.000  Si
  O5       1.0000 0.79007  0.57333  0.46153  Biso   1.000  O
  O6       1.0000 0.99177  0.64703  0.50053  Biso   1.000  O
  O7       1.0000 0.86867  0.44293  0.45283  Biso   1.000  O
  O8       1.0000 0.93187  0.60253  0.34203  Biso   1.000  O
  P2       1.0000 0.56530  0.67002  0.56147  Biso   1.000  P
  Al3      1.0000 0.33020  0.89535  0.76696  Biso   1.000  Al
  Si3      1.0000 0.56195  0.89864  0.77187  Biso   1.000  Si
  O9       1.0000 0.45673  0.90667  0.79487  Biso   1.000  O
  O10      1.0000 0.65843  0.98037  0.83387  Biso   1.000  O
  O11      1.0000 0.53533  0.77627  0.78617  Biso   1.000  O
  O12      1.0000 0.59853  0.93587  0.67537  Biso   1.000  O
  P3       1.0000 0.23197  0.00335  0.89480  Biso   1.000  P
  Al4      1.0000 0.77132  0.76819  0.10029  Biso   1.000  Al
  Si4      1.0000 0.76803  0.99665  0.10520  Biso   1.000  Si
  O13      1.0000 0.76000  0.88340  0.12820  Biso   1.000  O
  O14      1.0000 0.68630  0.01140  0.16720  Biso   1.000  O
  O15      1.0000 0.89040  0.09240  0.11950  Biso   1.000  O
  O16      1.0000 0.73080  0.99600  0.00870  Biso   1.000  O
  P4       1.0000 0.66332  0.56195  0.22813  Biso   1.000  P
  Al5      1.0000 0.43799  0.10152  0.43362  Biso   1.000  Al
  Si5      1.0000 0.43470  0.32998  0.43853  Biso   1.000  Si
  O17      1.0000 0.42667  0.21673  0.46153  Biso   1.000  O
  O18      1.0000 0.35297  0.34473  0.50053  Biso   1.000  O
  O19      1.0000 0.55707  0.42573  0.45283  Biso   1.000  O
  O20      1.0000 0.39747  0.32933  0.34203  Biso   1.000  O
  P5       1.0000 0.32998  0.89529  0.56147  Biso   1.000  P
  Al6      1.0000 0.10465  0.43486  0.76696  Biso   1.000  Al
  Si6      1.0000 0.10136  0.66332  0.77187  Biso   1.000  Si
  O21      1.0000 0.09333  0.55007  0.79487  Biso   1.000  O
  O22      1.0000 0.01963  0.67807  0.83387  Biso   1.000  O
  O23      1.0000 0.22373  0.75907  0.78617  Biso   1.000  O
  O24      1.0000 0.06413  0.66267  0.67537  Biso   1.000  O
  P6       1.0000 0.99665  0.22862  0.89480  Biso   1.000  P
  Al7      1.0000 0.23181  0.00313  0.10029  Biso   1.000  Al
  Si7      1.0000 0.00335  0.77138  0.10520  Biso   1.000  Si
  O25      1.0000 0.11660  0.87660  0.12820  Biso   1.000  O
  O26      1.0000 0.98860  0.67490  0.16720  Biso   1.000  O
  O27      1.0000 0.90760  0.79800  0.11950  Biso   1.000  O
  O28      1.0000 0.00400  0.73480  0.00870  Biso   1.000  O
  P7       1.0000 0.43805  0.10136  0.22813  Biso   1.000  P
  Al8      1.0000 0.89848  0.33646  0.43362  Biso   1.000  Al
  Si8      1.0000 0.67002  0.10471  0.43853  Biso   1.000  Si
  O29      1.0000 0.78327  0.20993  0.46153  Biso   1.000  O
  O30      1.0000 0.65527  0.00823  0.50053  Biso   1.000  O
  O31      1.0000 0.57427  0.13133  0.45283  Biso   1.000  O
  O32      1.0000 0.67067  0.06813  0.34203  Biso   1.000  O
  P8       1.0000 0.10471  0.43470  0.56147  Biso   1.000  P
  Al9      1.0000 0.56514  0.66980  0.76696  Biso   1.000  Al
  Si9      1.0000 0.33668  0.43805  0.77187  Biso   1.000  Si
  O33      1.0000 0.44993  0.54327  0.79487  Biso   1.000  O
  O34      1.0000 0.32193  0.34157  0.83387  Biso   1.000  O
  O35      1.0000 0.24093  0.46467  0.78617  Biso   1.000  O
  O36      1.0000 0.33733  0.40147  0.67537  Biso   1.000  O
  P9       1.0000 0.77138  0.76803  0.89480  Biso   1.000  P
  Al10     1.0000 0.00313  0.77132  0.89971  Biso   1.000  Al
  O37      1.0000 0.87660  0.76000  0.87180  Biso   1.000  O
  O38      1.0000 0.67490  0.68630  0.83280  Biso   1.000  O
  O39      1.0000 0.79800  0.89040  0.88050  Biso   1.000  O
  O40      1.0000 0.73480  0.73080  0.99130  Biso   1.000  O
  Al11     1.0000 0.66980  0.10465  0.23304  Biso   1.000  Al
  O41      1.0000 0.54327  0.09333  0.20513  Biso   1.000  O
  O42      1.0000 0.34157  0.01963  0.16613  Biso   1.000  O
  O43      1.0000 0.46467  0.22373  0.21383  Biso   1.000  O
  O44      1.0000 0.40147  0.06413  0.32463  Biso   1.000  O
  Al12     1.0000 0.33646  0.43799  0.56638  Biso   1.000  Al
  O45      1.0000 0.20993  0.42667  0.53847  Biso   1.000  O
  O46      1.0000 0.00823  0.35297  0.49947  Biso   1.000  O
  O47      1.0000 0.13133  0.55707  0.54717  Biso   1.000  O
  O48      1.0000 0.06813  0.39747  0.65797  Biso   1.000  O
  Al13     1.0000 0.22868  0.23181  0.89971  Biso   1.000  Al
  O49      1.0000 0.24000  0.11660  0.87180  Biso   1.000  O
  O50      1.0000 0.31370  0.98860  0.83280  Biso   1.000  O
  O51      1.0000 0.10960  0.90760  0.88050  Biso   1.000  O
  O52      1.0000 0.26920  0.00400  0.99130  Biso   1.000  O
  Al14     1.0000 0.89535  0.56514  0.23304  Biso   1.000  Al
  O53      1.0000 0.90667  0.44993  0.20513  Biso   1.000  O
  O54      1.0000 0.98037  0.32193  0.16613  Biso   1.000  O
  O55      1.0000 0.77627  0.24093  0.21383  Biso   1.000  O
  O56      1.0000 0.93587  0.33733  0.32463  Biso   1.000  O
  Al15     1.0000 0.56201  0.89848  0.56638  Biso   1.000  Al
  O57      1.0000 0.57333  0.78327  0.53847  Biso   1.000  O
  O58      1.0000 0.64703  0.65527  0.49947  Biso   1.000  O
  O59      1.0000 0.44293  0.57427  0.54717  Biso   1.000  O
  O60      1.0000 0.60253  0.67067  0.65797  Biso   1.000  O
  Al16     1.0000 0.76819  0.99687  0.89971  Biso   1.000  Al
  O61      1.0000 0.88340  0.12340  0.87180  Biso   1.000  O
  O62      1.0000 0.01140  0.32510  0.83280  Biso   1.000  O
  O63      1.0000 0.09240  0.20200  0.88050  Biso   1.000  O
  O64      1.0000 0.99600  0.26520  0.99130  Biso   1.000  O
  Al17     1.0000 0.43486  0.33020  0.23304  Biso   1.000  Al
  O65      1.0000 0.55007  0.45673  0.20513  Biso   1.000  O
  O66      1.0000 0.67807  0.65843  0.16613  Biso   1.000  O
  O67      1.0000 0.75907  0.53533  0.21383  Biso   1.000  O
  O68      1.0000 0.66267  0.59853  0.32463  Biso   1.000  O
  Al18     1.0000 0.10152  0.66354  0.56638  Biso   1.000  Al
  O69      1.0000 0.21673  0.79007  0.53847  Biso   1.000  O
  O70      1.0000 0.34473  0.99177  0.49947  Biso   1.000  O
  O71      1.0000 0.42573  0.86867  0.54717  Biso   1.000  O
  O72      1.0000 0.32933  0.93187  0.65797  Biso   1.000  O
