data_image0
_cell_length_a       8.7794
_cell_length_b       12.4011
_cell_length_c       24.8971
_cell_angle_alpha    90
_cell_angle_beta     90
_cell_angle_gamma    92.262

_symmetry_space_group_name_H-M    P 1
_symmetry_int_tables_number       1

loop_
  _symmetry_equiv_pos_as_xyz
  'x, y, z'

loop_
  _atom_site_label
  _atom_site_occupancy
  _atom_site_fract_x
  _atom_site_fract_y
  _atom_site_fract_z
  _atom_site_thermal_displace_type
  _atom_site_B_iso_or_equiv
  _atom_site_type_symbol
  La1      1.0000 0.24525  0.99796  0.99154  Biso   1.000  La
  La2      1.0000 0.25475  0.00204  0.49154  Biso   1.000  La
  La3      1.0000 0.75475  0.00204  0.00846  Biso   1.000  La
  La4      1.0000 0.74525  0.99796  0.50846  Biso   1.000  La
  H1       1.0000 0.41050  0.84560  0.82340  Biso   1.000  H
  H2       1.0000 0.33110  0.94550  0.79790  Biso   1.000  H
  H3       1.0000 0.09720  0.71450  0.85330  Biso   1.000  H
  H4       1.0000 0.90290  0.56680  0.69400  Biso   1.000  H
  H5       1.0000 0.54810  0.27520  0.70560  Biso   1.000  H
  H6       1.0000 0.62720  0.36990  0.78370  Biso   1.000  H
  H7       1.0000 0.89750  0.59790  0.85560  Biso   1.000  H
  H8       1.0000 0.51810  0.32750  0.86820  Biso   1.000  H
  H9       1.0000 0.37500  0.27790  0.96140  Biso   1.000  H
  H10      1.0000 0.44520  0.33530  0.01320  Biso   1.000  H
  H11      1.0000 0.39740  0.27310  0.56840  Biso   1.000  H
  H12      1.0000 0.38300  0.20080  0.62080  Biso   1.000  H
  H13      1.0000 0.08950  0.15440  0.32340  Biso   1.000  H
  H14      1.0000 0.16890  0.05450  0.29790  Biso   1.000  H
  H15      1.0000 0.40280  0.28550  0.35330  Biso   1.000  H
  H16      1.0000 0.59710  0.43320  0.19400  Biso   1.000  H
  H17      1.0000 0.95190  0.72480  0.20560  Biso   1.000  H
  H18      1.0000 0.87280  0.63010  0.28370  Biso   1.000  H
  H19      1.0000 0.60250  0.40210  0.35560  Biso   1.000  H
  H20      1.0000 0.98190  0.67250  0.36820  Biso   1.000  H
  H21      1.0000 0.12500  0.72210  0.46140  Biso   1.000  H
  H22      1.0000 0.05480  0.66470  0.51320  Biso   1.000  H
  H23      1.0000 0.10260  0.72690  0.06840  Biso   1.000  H
  H24      1.0000 0.11700  0.79920  0.12080  Biso   1.000  H
  H25      1.0000 0.58950  0.15440  0.17660  Biso   1.000  H
  H26      1.0000 0.66890  0.05450  0.20210  Biso   1.000  H
  H27      1.0000 0.90280  0.28550  0.14670  Biso   1.000  H
  H28      1.0000 0.09710  0.43320  0.30600  Biso   1.000  H
  H29      1.0000 0.45190  0.72480  0.29440  Biso   1.000  H
  H30      1.0000 0.37280  0.63010  0.21630  Biso   1.000  H
  H31      1.0000 0.10250  0.40210  0.14440  Biso   1.000  H
  H32      1.0000 0.48190  0.67250  0.13180  Biso   1.000  H
  H33      1.0000 0.62500  0.72210  0.03860  Biso   1.000  H
  H34      1.0000 0.55480  0.66470  0.98680  Biso   1.000  H
  H35      1.0000 0.60260  0.72690  0.43160  Biso   1.000  H
  H36      1.0000 0.61700  0.79920  0.37920  Biso   1.000  H
  H37      1.0000 0.91050  0.84560  0.67660  Biso   1.000  H
  H38      1.0000 0.83110  0.94550  0.70210  Biso   1.000  H
  H39      1.0000 0.59720  0.71450  0.64670  Biso   1.000  H
  H40      1.0000 0.40290  0.56680  0.80600  Biso   1.000  H
  H41      1.0000 0.04810  0.27520  0.79440  Biso   1.000  H
  H42      1.0000 0.12720  0.36990  0.71630  Biso   1.000  H
  H43      1.0000 0.39750  0.59790  0.64440  Biso   1.000  H
  H44      1.0000 0.01810  0.32750  0.63180  Biso   1.000  H
  H45      1.0000 0.87500  0.27790  0.53860  Biso   1.000  H
  H46      1.0000 0.94520  0.33530  0.48680  Biso   1.000  H
  H47      1.0000 0.89740  0.27310  0.93160  Biso   1.000  H
  H48      1.0000 0.88300  0.20080  0.87920  Biso   1.000  H
  C1       1.0000 0.27280  0.92090  0.87642  Biso   1.000  C
  C2       1.0000 0.31390  0.88230  0.82100  Biso   1.000  C
  C3       1.0000 0.03510  0.68290  0.77360  Biso   1.000  C
  C4       1.0000 0.10900  0.73170  0.81670  Biso   1.000  C
  C5       1.0000 0.91870  0.59460  0.77480  Biso   1.000  C
  C6       1.0000 0.86460  0.54450  0.72760  Biso   1.000  C
  C7       1.0000 0.75210  0.46050  0.73120  Biso   1.000  C
  C8       1.0000 0.68360  0.41060  0.68260  Biso   1.000  C
  C9       1.0000 0.58370  0.32160  0.67800  Biso   1.000  C
  C10      1.0000 0.69940  0.42770  0.78140  Biso   1.000  C
  C11      1.0000 0.75100  0.47860  0.82850  Biso   1.000  C
  C12      1.0000 0.86160  0.56270  0.82440  Biso   1.000  C
  C13      1.0000 0.68960  0.44600  0.88050  Biso   1.000  C
  C14      1.0000 0.57500  0.37080  0.89250  Biso   1.000  C
  C15      1.0000 0.55960  0.19910  0.99185  Biso   1.000  C
  C16      1.0000 0.47050  0.29900  0.97960  Biso   1.000  C
  C17      1.0000 0.55230  0.15290  0.57000  Biso   1.000  C
  C18      1.0000 0.45570  0.23660  0.59610  Biso   1.000  C
  C19      1.0000 0.22720  0.07910  0.37642  Biso   1.000  C
  C20      1.0000 0.18610  0.11770  0.32100  Biso   1.000  C
  C21      1.0000 0.46490  0.31710  0.27360  Biso   1.000  C
  C22      1.0000 0.39100  0.26830  0.31670  Biso   1.000  C
  C23      1.0000 0.58130  0.40540  0.27480  Biso   1.000  C
  C24      1.0000 0.63540  0.45550  0.22760  Biso   1.000  C
  C25      1.0000 0.74790  0.53950  0.23120  Biso   1.000  C
  C26      1.0000 0.81640  0.58940  0.18260  Biso   1.000  C
  C27      1.0000 0.91630  0.67840  0.17800  Biso   1.000  C
  C28      1.0000 0.80060  0.57230  0.28140  Biso   1.000  C
  C29      1.0000 0.74900  0.52140  0.32850  Biso   1.000  C
  C30      1.0000 0.63840  0.43730  0.32440  Biso   1.000  C
  C31      1.0000 0.81040  0.55400  0.38050  Biso   1.000  C
  C32      1.0000 0.92500  0.62920  0.39250  Biso   1.000  C
  C33      1.0000 0.94040  0.80090  0.49185  Biso   1.000  C
  C34      1.0000 0.02950  0.70100  0.47960  Biso   1.000  C
  C35      1.0000 0.94770  0.84710  0.07000  Biso   1.000  C
  C36      1.0000 0.04430  0.76340  0.09610  Biso   1.000  C
  C37      1.0000 0.72720  0.07910  0.12358  Biso   1.000  C
  C38      1.0000 0.68610  0.11770  0.17900  Biso   1.000  C
  C39      1.0000 0.96490  0.31710  0.22640  Biso   1.000  C
  C40      1.0000 0.89100  0.26830  0.18330  Biso   1.000  C
  C41      1.0000 0.08130  0.40540  0.22520  Biso   1.000  C
  C42      1.0000 0.13540  0.45550  0.27240  Biso   1.000  C
  C43      1.0000 0.24790  0.53950  0.26880  Biso   1.000  C
  C44      1.0000 0.31640  0.58940  0.31740  Biso   1.000  C
  C45      1.0000 0.41630  0.67840  0.32200  Biso   1.000  C
  C46      1.0000 0.30060  0.57230  0.21860  Biso   1.000  C
  C47      1.0000 0.24900  0.52140  0.17150  Biso   1.000  C
  C48      1.0000 0.13840  0.43730  0.17560  Biso   1.000  C
  C49      1.0000 0.31040  0.55400  0.11950  Biso   1.000  C
  C50      1.0000 0.42500  0.62920  0.10750  Biso   1.000  C
  C51      1.0000 0.44040  0.80090  0.00815  Biso   1.000  C
  C52      1.0000 0.52950  0.70100  0.02040  Biso   1.000  C
  C53      1.0000 0.44770  0.84710  0.43000  Biso   1.000  C
  C54      1.0000 0.54430  0.76340  0.40390  Biso   1.000  C
  C55      1.0000 0.77280  0.92090  0.62358  Biso   1.000  C
  C56      1.0000 0.81390  0.88230  0.67900  Biso   1.000  C
  C57      1.0000 0.53510  0.68290  0.72640  Biso   1.000  C
  C58      1.0000 0.60900  0.73170  0.68330  Biso   1.000  C
  C59      1.0000 0.41870  0.59460  0.72520  Biso   1.000  C
  C60      1.0000 0.36460  0.54450  0.77240  Biso   1.000  C
  C61      1.0000 0.25210  0.46050  0.76880  Biso   1.000  C
  C62      1.0000 0.18360  0.41060  0.81740  Biso   1.000  C
  C63      1.0000 0.08370  0.32160  0.82200  Biso   1.000  C
  C64      1.0000 0.19940  0.42770  0.71860  Biso   1.000  C
  C65      1.0000 0.25100  0.47860  0.67150  Biso   1.000  C
  C66      1.0000 0.36160  0.56270  0.67560  Biso   1.000  C
  C67      1.0000 0.18960  0.44600  0.61950  Biso   1.000  C
  C68      1.0000 0.07500  0.37080  0.60750  Biso   1.000  C
  C69      1.0000 0.05960  0.19910  0.50815  Biso   1.000  C
  C70      1.0000 0.97050  0.29900  0.52040  Biso   1.000  C
  C71      1.0000 0.05230  0.15290  0.93000  Biso   1.000  C
  C72      1.0000 0.95570  0.23660  0.90390  Biso   1.000  C
  N1       1.0000 0.20190  0.80940  0.79500  Biso   1.000  N
  N2       1.0000 0.19030  0.80880  0.74145  Biso   1.000  N
  N3       1.0000 0.08890  0.73230  0.72837  Biso   1.000  N
  N4       1.0000 0.70490  0.45300  0.63293  Biso   1.000  N
  N5       1.0000 0.62270  0.39480  0.59802  Biso   1.000  N
  N6       1.0000 0.54940  0.31660  0.62563  Biso   1.000  N
  N7       1.0000 0.56140  0.37240  0.94556  Biso   1.000  N
  N8       1.0000 0.66190  0.44440  0.96805  Biso   1.000  N
  N9       1.0000 0.73910  0.48990  0.92794  Biso   1.000  N
  N10      1.0000 0.29810  0.19060  0.29500  Biso   1.000  N
  N11      1.0000 0.30970  0.19120  0.24145  Biso   1.000  N
  N12      1.0000 0.41110  0.26770  0.22837  Biso   1.000  N
  N13      1.0000 0.79510  0.54700  0.13293  Biso   1.000  N
  N14      1.0000 0.87730  0.60520  0.09802  Biso   1.000  N
  N15      1.0000 0.95060  0.68340  0.12563  Biso   1.000  N
  N16      1.0000 0.93860  0.62760  0.44556  Biso   1.000  N
  N17      1.0000 0.83810  0.55560  0.46805  Biso   1.000  N
  N18      1.0000 0.76090  0.51010  0.42794  Biso   1.000  N
  N19      1.0000 0.79810  0.19060  0.20500  Biso   1.000  N
  N20      1.0000 0.80970  0.19120  0.25855  Biso   1.000  N
  N21      1.0000 0.91110  0.26770  0.27163  Biso   1.000  N
  N22      1.0000 0.29510  0.54700  0.36707  Biso   1.000  N
  N23      1.0000 0.37730  0.60520  0.40198  Biso   1.000  N
  N24      1.0000 0.45060  0.68340  0.37437  Biso   1.000  N
  N25      1.0000 0.43860  0.62760  0.05444  Biso   1.000  N
  N26      1.0000 0.33810  0.55560  0.03195  Biso   1.000  N
  N27      1.0000 0.26090  0.51010  0.07206  Biso   1.000  N
  N28      1.0000 0.70190  0.80940  0.70500  Biso   1.000  N
  N29      1.0000 0.69030  0.80880  0.75855  Biso   1.000  N
  N30      1.0000 0.58890  0.73230  0.77163  Biso   1.000  N
  N31      1.0000 0.20490  0.45300  0.86707  Biso   1.000  N
  N32      1.0000 0.12270  0.39480  0.90198  Biso   1.000  N
  N33      1.0000 0.04940  0.31660  0.87437  Biso   1.000  N
  N34      1.0000 0.06140  0.37240  0.55444  Biso   1.000  N
  N35      1.0000 0.16190  0.44440  0.53195  Biso   1.000  N
  N36      1.0000 0.23910  0.48990  0.57206  Biso   1.000  N
  O1       1.0000 0.38100  0.96890  0.90138  Biso   1.000  O
  O2       1.0000 0.14270  0.90820  0.89650  Biso   1.000  O
  O3       1.0000 0.70110  0.20620  0.99758  Biso   1.000  O
  O4       1.0000 0.32210  0.97500  0.09053  Biso   1.000  O
  O5       1.0000 0.18620  0.16580  0.04678  Biso   1.000  O
  O6       1.0000 0.48630  0.10910  0.99636  Biso   1.000  O
  O7       1.0000 0.69170  0.15160  0.57794  Biso   1.000  O
  O8       1.0000 0.48360  0.08380  0.53884  Biso   1.000  O
  O9       1.0000 0.11900  0.03110  0.40138  Biso   1.000  O
  O10      1.0000 0.35730  0.09180  0.39650  Biso   1.000  O
  O11      1.0000 0.79890  0.79380  0.49758  Biso   1.000  O
  O12      1.0000 0.17790  0.02500  0.59053  Biso   1.000  O
  O13      1.0000 0.31380  0.83420  0.54678  Biso   1.000  O
  O14      1.0000 0.01370  0.89090  0.49636  Biso   1.000  O
  O15      1.0000 0.80830  0.84840  0.07794  Biso   1.000  O
  O16      1.0000 0.01640  0.91620  0.03884  Biso   1.000  O
  O17      1.0000 0.61900  0.03110  0.09862  Biso   1.000  O
  O18      1.0000 0.85730  0.09180  0.10350  Biso   1.000  O
  O19      1.0000 0.29890  0.79380  0.00242  Biso   1.000  O
  O20      1.0000 0.67790  0.02500  0.90947  Biso   1.000  O
  O21      1.0000 0.81380  0.83420  0.95322  Biso   1.000  O
  O22      1.0000 0.51370  0.89090  0.00364  Biso   1.000  O
  O23      1.0000 0.30830  0.84840  0.42206  Biso   1.000  O
  O24      1.0000 0.51640  0.91620  0.46116  Biso   1.000  O
  O25      1.0000 0.88100  0.96890  0.59862  Biso   1.000  O
  O26      1.0000 0.64270  0.90820  0.60350  Biso   1.000  O
  O27      1.0000 0.20110  0.20620  0.50242  Biso   1.000  O
  O28      1.0000 0.82210  0.97500  0.40947  Biso   1.000  O
  O29      1.0000 0.68620  0.16580  0.45322  Biso   1.000  O
  O30      1.0000 0.98630  0.10910  0.50364  Biso   1.000  O
  O31      1.0000 0.19170  0.15160  0.92206  Biso   1.000  O
  O32      1.0000 0.98360  0.08380  0.96116  Biso   1.000  O
