data_image0
_cell_length_a       10.143
_cell_length_b       10.257
_cell_length_c       15.5
_cell_angle_alpha    86.982
_cell_angle_beta     73.52
_cell_angle_gamma    81.229

_symmetry_space_group_name_H-M    "P 1"
_symmetry_int_tables_number       1

loop_
  _symmetry_equiv_pos_as_xyz
  'x, y, z'

loop_
  _atom_site_label
  _atom_site_occupancy
  _atom_site_fract_x
  _atom_site_fract_y
  _atom_site_fract_z
  _atom_site_thermal_displace_type
  _atom_site_B_iso_or_equiv
  _atom_site_type_symbol
  Zn1      1.0000 0.48645  0.24757  0.15729  Biso   1.000  Zn
  Zn2      1.0000 0.45532  0.23912  0.93405  Biso   1.000  Zn
  Zn3      1.0000 0.45758  0.77761  0.30037  Biso   1.000  Zn
  Zn4      1.0000 0.45864  0.07837  0.39344  Biso   1.000  Zn
  P1       1.0000 0.58510  0.50795  0.19815  Biso   1.000  P
  P2       1.0000 0.64020  0.95420  0.20262  Biso   1.000  P
  P3       1.0000 0.64800  0.16340  0.48638  Biso   1.000  P
  O1       1.0000 0.54720  0.30000  0.02870  Biso   1.000  O
  O2       1.0000 0.53030  0.57390  0.12220  Biso   1.000  O
  O3       1.0000 0.53060  0.37830  0.22660  Biso   1.000  O
  O4       1.0000 0.54780  0.59700  0.27950  Biso   1.000  O
  O5       1.0000 0.26730  0.29050  0.01660  Biso   1.000  O
  O6       1.0000 0.28880  0.48800  0.06420  Biso   1.000  O
  O7       1.0000 0.61370  0.83710  0.15930  Biso   1.000  O
  O8       1.0000 0.61360  0.08390  0.15670  Biso   1.000  O
  O9       1.0000 0.54990  0.94620  0.30110  Biso   1.000  O
  O10      1.0000 0.33700  0.84510  0.12570  Biso   1.000  O
  O11      1.0000 0.27680  0.82610  0.27620  Biso   1.000  O
  O12      1.0000 0.33350  0.20210  0.34100  Biso   1.000  O
  O13      1.0000 0.29170  0.21660  0.20810  Biso   1.000  O
  O14      1.0000 0.65170  0.01730  0.51020  Biso   1.000  O
  O15      1.0000 0.55860  0.20600  0.42340  Biso   1.000  O
  O16      1.0000 0.60660  0.25190  0.56780  Biso   1.000  O
  C1       1.0000 0.77300  0.47530  0.15930  Biso   1.000  C
  C2       1.0000 0.83900  0.36230  0.10990  Biso   1.000  C
  H1       1.0000 0.78650  0.30160  0.09890  Biso   1.000  H
  C3       1.0000 0.98250  0.34000  0.07730  Biso   1.000  C
  H2       1.0000 0.02510  0.26430  0.04440  Biso   1.000  H
  C4       1.0000 0.06360  0.42800  0.09290  Biso   1.000  C
  C5       1.0000 0.99940  0.53830  0.14270  Biso   1.000  C
  H3       1.0000 0.05280  0.59760  0.15450  Biso   1.000  H
  C6       1.0000 0.85560  0.56240  0.17560  Biso   1.000  C
  H4       1.0000 0.81390  0.63780  0.20910  Biso   1.000  H
  C7       1.0000 0.21970  0.40140  0.05510  Biso   1.000  C
  C8       1.0000 0.81890  0.92850  0.20600  Biso   1.000  C
  C9       1.0000 0.92360  0.94510  0.12770  Biso   1.000  C
  H5       1.0000 0.90040  0.97280  0.07510  Biso   1.000  H
  C10      1.0000 0.06310  0.92090  0.12700  Biso   1.000  C
  H6       1.0000 0.13180  0.93320  0.07410  Biso   1.000  H
  C11      1.0000 0.09910  0.87990  0.20220  Biso   1.000  C
  C12      1.0000 0.99540  0.86370  0.28200  Biso   1.000  C
  H7       1.0000 0.01890  0.83710  0.33470  Biso   1.000  H
  C13      1.0000 0.85710  0.88780  0.28160  Biso   1.000  C
  H8       1.0000 0.78850  0.87580  0.33460  Biso   1.000  H
  C14      1.0000 0.25100  0.84610  0.20120  Biso   1.000  C
  C15      1.0000 0.25330  0.20340  0.29190  Biso   1.000  C
  C16      1.0000 0.10170  0.19590  0.33860  Biso   1.000  C
  C17      1.0000 0.00480  0.21920  0.29120  Biso   1.000  C
  H9       1.0000 0.03220  0.23820  0.22990  Biso   1.000  H
  C18      1.0000 0.86410  0.21430  0.33560  Biso   1.000  C
  H10      1.0000 0.79750  0.23210  0.30420  Biso   1.000  H
  C19      1.0000 0.82540  0.18260  0.42660  Biso   1.000  C
  C20      1.0000 0.92500  0.15860  0.47310  Biso   1.000  C
  H11      1.0000 0.89890  0.13740  0.53410  Biso   1.000  H
  C21      1.0000 0.06320  0.16610  0.42940  Biso   1.000  C
  H12      1.0000 0.12960  0.15120  0.46100  Biso   1.000  H
  Zn5      1.0000 0.51355  0.75243  0.84271  Biso   1.000  Zn
  Zn6      1.0000 0.54468  0.76088  0.06595  Biso   1.000  Zn
  Zn7      1.0000 0.54242  0.22239  0.69963  Biso   1.000  Zn
  Zn8      1.0000 0.54136  0.92163  0.60656  Biso   1.000  Zn
  P4       1.0000 0.41490  0.49205  0.80185  Biso   1.000  P
  P5       1.0000 0.35980  0.04580  0.79738  Biso   1.000  P
  P6       1.0000 0.35200  0.83660  0.51362  Biso   1.000  P
  O17      1.0000 0.45280  0.70000  0.97130  Biso   1.000  O
  O18      1.0000 0.46970  0.42610  0.87780  Biso   1.000  O
  O19      1.0000 0.46940  0.62170  0.77340  Biso   1.000  O
  O20      1.0000 0.45220  0.40300  0.72050  Biso   1.000  O
  O21      1.0000 0.73270  0.70950  0.98340  Biso   1.000  O
  O22      1.0000 0.71120  0.51200  0.93580  Biso   1.000  O
  O23      1.0000 0.38630  0.16290  0.84070  Biso   1.000  O
  O24      1.0000 0.38640  0.91610  0.84330  Biso   1.000  O
  O25      1.0000 0.45010  0.05380  0.69890  Biso   1.000  O
  O26      1.0000 0.66300  0.15490  0.87430  Biso   1.000  O
  O27      1.0000 0.72320  0.17390  0.72380  Biso   1.000  O
  O28      1.0000 0.66650  0.79790  0.65900  Biso   1.000  O
  O29      1.0000 0.70830  0.78340  0.79190  Biso   1.000  O
  O30      1.0000 0.34830  0.98270  0.48980  Biso   1.000  O
  O31      1.0000 0.44140  0.79400  0.57660  Biso   1.000  O
  O32      1.0000 0.39340  0.74810  0.43220  Biso   1.000  O
  C22      1.0000 0.22700  0.52470  0.84070  Biso   1.000  C
  C23      1.0000 0.16100  0.63770  0.89010  Biso   1.000  C
  H13      1.0000 0.21350  0.69840  0.90110  Biso   1.000  H
  C24      1.0000 0.01750  0.66000  0.92270  Biso   1.000  C
  H14      1.0000 0.97490  0.73570  0.95560  Biso   1.000  H
  C25      1.0000 0.93640  0.57200  0.90710  Biso   1.000  C
  C26      1.0000 0.00060  0.46170  0.85730  Biso   1.000  C
  H15      1.0000 0.94720  0.40240  0.84550  Biso   1.000  H
  C27      1.0000 0.14440  0.43760  0.82440  Biso   1.000  C
  H16      1.0000 0.18610  0.36220  0.79090  Biso   1.000  H
  C28      1.0000 0.78030  0.59860  0.94490  Biso   1.000  C
  C29      1.0000 0.18110  0.07150  0.79400  Biso   1.000  C
  C30      1.0000 0.07640  0.05490  0.87230  Biso   1.000  C
  H17      1.0000 0.09960  0.02720  0.92490  Biso   1.000  H
  C31      1.0000 0.93690  0.07910  0.87300  Biso   1.000  C
  H18      1.0000 0.86820  0.06680  0.92590  Biso   1.000  H
  C32      1.0000 0.90090  0.12010  0.79780  Biso   1.000  C
  C33      1.0000 0.00460  0.13630  0.71800  Biso   1.000  C
  H19      1.0000 0.98110  0.16290  0.66530  Biso   1.000  H
  C34      1.0000 0.14290  0.11220  0.71840  Biso   1.000  C
  H20      1.0000 0.21150  0.12420  0.66540  Biso   1.000  H
  C35      1.0000 0.74900  0.15390  0.79880  Biso   1.000  C
  C36      1.0000 0.74670  0.79660  0.70810  Biso   1.000  C
  C37      1.0000 0.89830  0.80410  0.66140  Biso   1.000  C
  C38      1.0000 0.99520  0.78080  0.70880  Biso   1.000  C
  H21      1.0000 0.96780  0.76180  0.77010  Biso   1.000  H
  C39      1.0000 0.13590  0.78570  0.66440  Biso   1.000  C
  H22      1.0000 0.20250  0.76790  0.69580  Biso   1.000  H
  C40      1.0000 0.17460  0.81740  0.57340  Biso   1.000  C
  C41      1.0000 0.07500  0.84140  0.52690  Biso   1.000  C
  H23      1.0000 0.10110  0.86260  0.46590  Biso   1.000  H
  C42      1.0000 0.93680  0.83390  0.57060  Biso   1.000  C
  H24      1.0000 0.87040  0.84880  0.53900  Biso   1.000  H
  Zn9      1.0000 0.50000  0.50000  0.00000  Biso   1.000  Zn
