data_image0
_cell_length_a       11.516
_cell_length_b       14.7776
_cell_length_c       15.2749
_cell_angle_alpha    118.929
_cell_angle_beta     106.292
_cell_angle_gamma    90

_symmetry_space_group_name_H-M    P 1
_symmetry_int_tables_number       1

loop_
  _symmetry_equiv_pos_as_xyz
  'x, y, z'

loop_
  _atom_site_label
  _atom_site_occupancy
  _atom_site_fract_x
  _atom_site_fract_y
  _atom_site_fract_z
  _atom_site_thermal_displace_type
  _atom_site_B_iso_or_equiv
  _atom_site_type_symbol
  Cu1      1.0000 0.50000  0.50000  0.50000  Biso   1.000  Cu
  Cu2      1.0000 0.50000  1.00000  0.50000  Biso   1.000  Cu
  Cu3      1.0000 0.00000  0.50000  0.50000  Biso   1.000  Cu
  Cu4      1.0000 0.00000  1.00000  0.50000  Biso   1.000  Cu
  Cu5      1.0000 0.00000  0.26424  0.00000  Biso   1.000  Cu
  Cu6      1.0000 0.00000  0.73576  0.00000  Biso   1.000  Cu
  H1       1.0000 0.50600  0.65740  0.72540  Biso   1.000  H
  H2       1.0000 0.36690  0.71860  0.81740  Biso   1.000  H
  H3       1.0000 0.16090  0.65390  0.72620  Biso   1.000  H
  H4       1.0000 0.23730  0.48540  0.46800  Biso   1.000  H
  H5       1.0000 0.49400  0.93200  0.27460  Biso   1.000  H
  H6       1.0000 0.63310  0.90120  0.18260  Biso   1.000  H
  H7       1.0000 0.83910  0.92770  0.27380  Biso   1.000  H
  H8       1.0000 0.76270  0.01740  0.53200  Biso   1.000  H
  H9       1.0000 0.49400  0.34260  0.27460  Biso   1.000  H
  H10      1.0000 0.63310  0.28140  0.18260  Biso   1.000  H
  H11      1.0000 0.83910  0.34610  0.27380  Biso   1.000  H
  H12      1.0000 0.76270  0.51460  0.53200  Biso   1.000  H
  H13      1.0000 0.50600  0.06800  0.72540  Biso   1.000  H
  H14      1.0000 0.36690  0.09880  0.81740  Biso   1.000  H
  H15      1.0000 0.16090  0.07230  0.72620  Biso   1.000  H
  H16      1.0000 0.23730  0.98260  0.46800  Biso   1.000  H
  W1       1.0000 0.19848  0.65051  0.30102  Biso   1.000  W
  W2       1.0000 0.80152  0.34949  0.69898  Biso   1.000  W
  W3       1.0000 0.14018  0.13842  0.27684  Biso   1.000  W
  W4       1.0000 0.85982  0.86158  0.72316  Biso   1.000  W
  C1       1.0000 0.33020  0.57058  0.35696  Biso   1.000  C
  C2       1.0000 0.11420  0.49496  0.17292  Biso   1.000  C
  C3       1.0000 0.08070  0.57975  0.34710  Biso   1.000  C
  C4       1.0000 0.08960  0.19655  0.16810  Biso   1.000  C
  C5       1.0000 0.28880  0.26831  0.35902  Biso   1.000  C
  C6       1.0000 0.07800  0.28045  0.37410  Biso   1.000  C
  C7       1.0000 0.42260  0.63316  0.69012  Biso   1.000  C
  C8       1.0000 0.34030  0.66974  0.74548  Biso   1.000  C
  C9       1.0000 0.21800  0.63137  0.69074  Biso   1.000  C
  C10      1.0000 0.26430  0.53248  0.54036  Biso   1.000  C
  C11      1.0000 0.66980  0.21362  0.64304  Biso   1.000  C
  C12      1.0000 0.88580  0.32204  0.82708  Biso   1.000  C
  C13      1.0000 0.91930  0.23265  0.65290  Biso   1.000  C
  C14      1.0000 0.91040  0.02845  0.83190  Biso   1.000  C
  C15      1.0000 0.71120  0.90929  0.64098  Biso   1.000  C
  C16      1.0000 0.92200  0.90635  0.62590  Biso   1.000  C
  C17      1.0000 0.57740  0.94304  0.30988  Biso   1.000  C
  C18      1.0000 0.65970  0.92426  0.25452  Biso   1.000  C
  C19      1.0000 0.78200  0.94063  0.30926  Biso   1.000  C
  C20      1.0000 0.73570  0.99212  0.45964  Biso   1.000  C
  C21      1.0000 0.66980  0.42942  0.64304  Biso   1.000  C
  C22      1.0000 0.88580  0.50504  0.82708  Biso   1.000  C
  C23      1.0000 0.91930  0.42025  0.65290  Biso   1.000  C
  C24      1.0000 0.91040  0.80345  0.83190  Biso   1.000  C
  C25      1.0000 0.71120  0.73169  0.64098  Biso   1.000  C
  C26      1.0000 0.92200  0.71955  0.62590  Biso   1.000  C
  C27      1.0000 0.57740  0.36684  0.30988  Biso   1.000  C
  C28      1.0000 0.65970  0.33026  0.25452  Biso   1.000  C
  C29      1.0000 0.78200  0.36863  0.30926  Biso   1.000  C
  C30      1.0000 0.73570  0.46752  0.45964  Biso   1.000  C
  C31      1.0000 0.33020  0.78638  0.35696  Biso   1.000  C
  C32      1.0000 0.11420  0.67796  0.17292  Biso   1.000  C
  C33      1.0000 0.08070  0.76735  0.34710  Biso   1.000  C
  C34      1.0000 0.08960  0.97155  0.16810  Biso   1.000  C
  C35      1.0000 0.28880  0.09071  0.35902  Biso   1.000  C
  C36      1.0000 0.07800  0.09365  0.37410  Biso   1.000  C
  C37      1.0000 0.42260  0.05696  0.69012  Biso   1.000  C
  C38      1.0000 0.34030  0.07574  0.74548  Biso   1.000  C
  C39      1.0000 0.21800  0.05937  0.69074  Biso   1.000  C
  C40      1.0000 0.26430  0.00788  0.54036  Biso   1.000  C
  C41      1.0000 0.31140  0.59980  0.19960  Biso   1.000  C
  C42      1.0000 0.25600  0.73600  0.47200  Biso   1.000  C
  C43      1.0000 0.68860  0.40020  0.80040  Biso   1.000  C
  C44      1.0000 0.74400  0.26400  0.52800  Biso   1.000  C
  C45      1.0000 0.26470  0.09280  0.18560  Biso   1.000  C
  C46      1.0000 0.94210  0.10570  0.21140  Biso   1.000  C
  C47      1.0000 0.73530  0.90720  0.81440  Biso   1.000  C
  C48      1.0000 0.05790  0.89430  0.78860  Biso   1.000  C
  N1       1.0000 0.39980  0.53419  0.39372  Biso   1.000  N
  N2       1.0000 0.07100  0.41179  0.10698  Biso   1.000  N
  N3       1.0000 0.02530  0.53946  0.37332  Biso   1.000  N
  N4       1.0000 0.06150  0.22396  0.10872  Biso   1.000  N
  N5       1.0000 0.36770  0.33739  0.40238  Biso   1.000  N
  N6       1.0000 0.04750  0.35798  0.42230  Biso   1.000  N
  N7       1.0000 0.38460  0.56387  0.58754  Biso   1.000  N
  N8       1.0000 0.18000  0.56259  0.58780  Biso   1.000  N
  N9       1.0000 0.60020  0.14047  0.60628  Biso   1.000  N
  N10      1.0000 0.92900  0.30481  0.89302  Biso   1.000  N
  N11      1.0000 0.97470  0.16614  0.62668  Biso   1.000  N
  N12      1.0000 0.93850  0.11524  0.89128  Biso   1.000  N
  N13      1.0000 0.63230  0.93501  0.59762  Biso   1.000  N
  N14      1.0000 0.95250  0.93568  0.57770  Biso   1.000  N
  N15      1.0000 0.61540  0.97633  0.41246  Biso   1.000  N
  N16      1.0000 0.82000  0.97479  0.41220  Biso   1.000  N
  N17      1.0000 0.60020  0.46581  0.60628  Biso   1.000  N
  N18      1.0000 0.92900  0.58821  0.89302  Biso   1.000  N
  N19      1.0000 0.97470  0.46054  0.62668  Biso   1.000  N
  N20      1.0000 0.93850  0.77604  0.89128  Biso   1.000  N
  N21      1.0000 0.63230  0.66261  0.59762  Biso   1.000  N
  N22      1.0000 0.95250  0.64202  0.57770  Biso   1.000  N
  N23      1.0000 0.61540  0.43613  0.41246  Biso   1.000  N
  N24      1.0000 0.82000  0.43741  0.41220  Biso   1.000  N
  N25      1.0000 0.39980  0.85953  0.39372  Biso   1.000  N
  N26      1.0000 0.07100  0.69519  0.10698  Biso   1.000  N
  N27      1.0000 0.02530  0.83386  0.37332  Biso   1.000  N
  N28      1.0000 0.06150  0.88476  0.10872  Biso   1.000  N
  N29      1.0000 0.36770  0.06499  0.40238  Biso   1.000  N
  N30      1.0000 0.04750  0.06432  0.42230  Biso   1.000  N
  N31      1.0000 0.38460  0.02367  0.58754  Biso   1.000  N
  N32      1.0000 0.18000  0.02521  0.58780  Biso   1.000  N
  N33      1.0000 0.36930  0.57250  0.14500  Biso   1.000  N
  N34      1.0000 0.28710  0.78118  0.56236  Biso   1.000  N
  N35      1.0000 0.63070  0.42750  0.85500  Biso   1.000  N
  N36      1.0000 0.71290  0.21882  0.43764  Biso   1.000  N
  N37      1.0000 0.33240  0.06970  0.13940  Biso   1.000  N
  N38      1.0000 0.83730  0.08890  0.17780  Biso   1.000  N
  N39      1.0000 0.66760  0.93030  0.86060  Biso   1.000  N
  N40      1.0000 0.16270  0.91110  0.82220  Biso   1.000  N
