data_image0
_cell_length_a       11.512
_cell_length_b       14.78
_cell_length_c       15.1746
_cell_angle_alpha    119.144
_cell_angle_beta     105.968
_cell_angle_gamma    90

_symmetry_space_group_name_H-M    P 1
_symmetry_int_tables_number       1

loop_
  _symmetry_equiv_pos_as_xyz
  'x, y, z'

loop_
  _atom_site_label
  _atom_site_occupancy
  _atom_site_fract_x
  _atom_site_fract_y
  _atom_site_fract_z
  _atom_site_thermal_displace_type
  _atom_site_B_iso_or_equiv
  _atom_site_type_symbol
  Cu1      1.0000 0.50000  0.00000  0.50000  Biso   1.000  Cu
  Cu2      1.0000 0.50000  0.50000  0.50000  Biso   1.000  Cu
  Cu3      1.0000 0.00000  0.00000  0.50000  Biso   1.000  Cu
  Cu4      1.0000 0.00000  0.50000  0.50000  Biso   1.000  Cu
  Cu5      1.0000 0.00000  0.76450  0.00000  Biso   1.000  Cu
  Cu6      1.0000 0.00000  0.23550  0.00000  Biso   1.000  Cu
  H1       1.0000 0.50400  0.15680  0.72680  Biso   1.000  H
  H2       1.0000 0.36450  0.22170  0.81800  Biso   1.000  H
  H3       1.0000 0.16000  0.15570  0.72740  Biso   1.000  H
  H4       1.0000 0.23810  0.98310  0.46720  Biso   1.000  H
  H5       1.0000 0.49600  0.43000  0.27320  Biso   1.000  H
  H6       1.0000 0.63550  0.40370  0.18200  Biso   1.000  H
  H7       1.0000 0.84000  0.42830  0.27260  Biso   1.000  H
  H8       1.0000 0.76190  0.51590  0.53280  Biso   1.000  H
  H9       1.0000 0.49600  0.84320  0.27320  Biso   1.000  H
  H10      1.0000 0.63550  0.77830  0.18200  Biso   1.000  H
  H11      1.0000 0.84000  0.84430  0.27260  Biso   1.000  H
  H12      1.0000 0.76190  0.01690  0.53280  Biso   1.000  H
  H13      1.0000 0.50400  0.57000  0.72680  Biso   1.000  H
  H14      1.0000 0.36450  0.59630  0.81800  Biso   1.000  H
  H15      1.0000 0.16000  0.57170  0.72740  Biso   1.000  H
  H16      1.0000 0.23810  0.48410  0.46720  Biso   1.000  H
  W1       1.0000 0.20064  0.15035  0.30070  Biso   1.000  W
  W2       1.0000 0.79936  0.84965  0.69930  Biso   1.000  W
  W3       1.0000 0.14186  0.63832  0.27664  Biso   1.000  W
  W4       1.0000 0.85814  0.36168  0.72336  Biso   1.000  W
  C1       1.0000 0.33160  0.07060  0.35620  Biso   1.000  C
  C2       1.0000 0.11630  0.99482  0.17264  Biso   1.000  C
  C3       1.0000 0.08270  0.08019  0.34738  Biso   1.000  C
  C4       1.0000 0.09300  0.69755  0.16890  Biso   1.000  C
  C5       1.0000 0.29030  0.76832  0.35964  Biso   1.000  C
  C6       1.0000 0.07920  0.78049  0.37498  Biso   1.000  C
  C7       1.0000 0.42070  0.13310  0.69100  Biso   1.000  C
  C8       1.0000 0.33850  0.17130  0.74620  Biso   1.000  C
  C9       1.0000 0.21710  0.13250  0.69140  Biso   1.000  C
  C10      1.0000 0.26430  0.03111  0.53982  Biso   1.000  C
  C11      1.0000 0.66840  0.71440  0.64380  Biso   1.000  C
  C12      1.0000 0.88370  0.82218  0.82736  Biso   1.000  C
  C13      1.0000 0.91730  0.73281  0.65262  Biso   1.000  C
  C14      1.0000 0.90700  0.52865  0.83110  Biso   1.000  C
  C15      1.0000 0.70970  0.40868  0.64036  Biso   1.000  C
  C16      1.0000 0.92080  0.40551  0.62502  Biso   1.000  C
  C17      1.0000 0.57930  0.44210  0.30900  Biso   1.000  C
  C18      1.0000 0.66150  0.42510  0.25380  Biso   1.000  C
  C19      1.0000 0.78290  0.44110  0.30860  Biso   1.000  C
  C20      1.0000 0.73570  0.49129  0.46018  Biso   1.000  C
  C21      1.0000 0.66840  0.92940  0.64380  Biso   1.000  C
  C22      1.0000 0.88370  0.00518  0.82736  Biso   1.000  C
  C23      1.0000 0.91730  0.91981  0.65262  Biso   1.000  C
  C24      1.0000 0.90700  0.30245  0.83110  Biso   1.000  C
  C25      1.0000 0.70970  0.23168  0.64036  Biso   1.000  C
  C26      1.0000 0.92080  0.21951  0.62502  Biso   1.000  C
  C27      1.0000 0.57930  0.86690  0.30900  Biso   1.000  C
  C28      1.0000 0.66150  0.82870  0.25380  Biso   1.000  C
  C29      1.0000 0.78290  0.86750  0.30860  Biso   1.000  C
  C30      1.0000 0.73570  0.96889  0.46018  Biso   1.000  C
  C31      1.0000 0.33160  0.28560  0.35620  Biso   1.000  C
  C32      1.0000 0.11630  0.17782  0.17264  Biso   1.000  C
  C33      1.0000 0.08270  0.26719  0.34738  Biso   1.000  C
  C34      1.0000 0.09300  0.47135  0.16890  Biso   1.000  C
  C35      1.0000 0.29030  0.59132  0.35964  Biso   1.000  C
  C36      1.0000 0.07920  0.59449  0.37498  Biso   1.000  C
  C37      1.0000 0.42070  0.55790  0.69100  Biso   1.000  C
  C38      1.0000 0.33850  0.57490  0.74620  Biso   1.000  C
  C39      1.0000 0.21710  0.55890  0.69140  Biso   1.000  C
  C40      1.0000 0.26430  0.50871  0.53982  Biso   1.000  C
  C41      1.0000 0.31580  0.09900  0.19800  Biso   1.000  C
  C42      1.0000 0.25730  0.23630  0.47260  Biso   1.000  C
  C43      1.0000 0.68420  0.90100  0.80200  Biso   1.000  C
  C44      1.0000 0.74270  0.76370  0.52740  Biso   1.000  C
  C45      1.0000 0.26650  0.59280  0.18560  Biso   1.000  C
  C46      1.0000 0.94270  0.60550  0.21100  Biso   1.000  C
  C47      1.0000 0.73350  0.40720  0.81440  Biso   1.000  C
  C48      1.0000 0.05730  0.39450  0.78900  Biso   1.000  C
  N1       1.0000 0.40000  0.03378  0.39336  Biso   1.000  N
  N2       1.0000 0.07300  0.91168  0.10576  Biso   1.000  N
  N3       1.0000 0.02750  0.04018  0.37416  Biso   1.000  N
  N4       1.0000 0.06480  0.72506  0.10952  Biso   1.000  N
  N5       1.0000 0.36850  0.83664  0.40268  Biso   1.000  N
  N6       1.0000 0.04740  0.85765  0.42210  Biso   1.000  N
  N7       1.0000 0.38330  0.06306  0.58752  Biso   1.000  N
  N8       1.0000 0.17890  0.06226  0.58772  Biso   1.000  N
  N9       1.0000 0.60000  0.64042  0.60664  Biso   1.000  N
  N10      1.0000 0.92700  0.80592  0.89424  Biso   1.000  N
  N11      1.0000 0.97250  0.66602  0.62584  Biso   1.000  N
  N12      1.0000 0.93520  0.61554  0.89048  Biso   1.000  N
  N13      1.0000 0.63150  0.43396  0.59732  Biso   1.000  N
  N14      1.0000 0.95260  0.43555  0.57790  Biso   1.000  N
  N15      1.0000 0.61670  0.47554  0.41248  Biso   1.000  N
  N16      1.0000 0.82110  0.47454  0.41228  Biso   1.000  N
  N17      1.0000 0.60000  0.96622  0.60664  Biso   1.000  N
  N18      1.0000 0.92700  0.08832  0.89424  Biso   1.000  N
  N19      1.0000 0.97250  0.95982  0.62584  Biso   1.000  N
  N20      1.0000 0.93520  0.27494  0.89048  Biso   1.000  N
  N21      1.0000 0.63150  0.16336  0.59732  Biso   1.000  N
  N22      1.0000 0.95260  0.14235  0.57790  Biso   1.000  N
  N23      1.0000 0.61670  0.93694  0.41248  Biso   1.000  N
  N24      1.0000 0.82110  0.93774  0.41228  Biso   1.000  N
  N25      1.0000 0.40000  0.35958  0.39336  Biso   1.000  N
  N26      1.0000 0.07300  0.19408  0.10576  Biso   1.000  N
  N27      1.0000 0.02750  0.33398  0.37416  Biso   1.000  N
  N28      1.0000 0.06480  0.38446  0.10952  Biso   1.000  N
  N29      1.0000 0.36850  0.56604  0.40268  Biso   1.000  N
  N30      1.0000 0.04740  0.56445  0.42210  Biso   1.000  N
  N31      1.0000 0.38330  0.52446  0.58752  Biso   1.000  N
  N32      1.0000 0.17890  0.52546  0.58772  Biso   1.000  N
  N33      1.0000 0.37610  0.07340  0.14680  Biso   1.000  N
  N34      1.0000 0.28770  0.28200  0.56400  Biso   1.000  N
  N35      1.0000 0.62390  0.92660  0.85320  Biso   1.000  N
  N36      1.0000 0.71230  0.71800  0.43600  Biso   1.000  N
  N37      1.0000 0.33250  0.56840  0.13680  Biso   1.000  N
  N38      1.0000 0.83980  0.58780  0.17560  Biso   1.000  N
  N39      1.0000 0.66750  0.43160  0.86320  Biso   1.000  N
  N40      1.0000 0.16020  0.41220  0.82440  Biso   1.000  N
