data_image0
_cell_length_a       14.5056
_cell_length_b       14.8981
_cell_length_c       22.9934
_cell_angle_alpha    90.534
_cell_angle_beta     92.844
_cell_angle_gamma    104.153

_symmetry_space_group_name_H-M    "P 1"
_symmetry_int_tables_number       1

loop_
  _symmetry_equiv_pos_as_xyz
  'x, y, z'

loop_
  _atom_site_label
  _atom_site_occupancy
  _atom_site_fract_x
  _atom_site_fract_y
  _atom_site_fract_z
  _atom_site_thermal_displace_type
  _atom_site_B_iso_or_equiv
  _atom_site_type_symbol
  W1       1.0000 0.82295  0.88056  0.12795  Biso   1.000  W
  W2       1.0000 0.62497  0.55579  0.13425  Biso   1.000  W
  W3       1.0000 0.58759  0.79708  0.13246  Biso   1.000  W
  W4       1.0000 0.61581  0.80794  0.39720  Biso   1.000  W
  W5       1.0000 0.97265  0.94206  0.26281  Biso   1.000  W
  W6       1.0000 0.65442  0.56722  0.39854  Biso   1.000  W
  W7       1.0000 0.86037  0.64047  0.12571  Biso   1.000  W
  W8       1.0000 0.47847  0.75259  0.27369  Biso   1.000  W
  W9       1.0000 0.00995  0.70127  0.26066  Biso   1.000  W
  W10      1.0000 0.51733  0.51153  0.27547  Biso   1.000  W
  W11      1.0000 0.91226  0.66532  0.39056  Biso   1.000  W
  W12      1.0000 0.87278  0.90488  0.39164  Biso   1.000  W
  W13      1.0000 0.80642  0.08329  0.21736  Biso   1.000  W
  W14      1.0000 0.70777  0.04796  0.34761  Biso   1.000  W
  W15      1.0000 0.80752  0.41894  0.34967  Biso   1.000  W
  W16      1.0000 0.90670  0.45446  0.21932  Biso   1.000  W
  W17      1.0000 0.67030  0.36483  0.22523  Biso   1.000  W
  W18      1.0000 0.56781  0.99396  0.22473  Biso   1.000  W
  Ag1      1.0000 0.26030  0.88730  0.23502  Biso   1.000  Ag
  Ag2      1.0000 0.92956  0.59066  0.92829  Biso   1.000  Ag
  Ag3      1.0000 0.51726  0.37814  0.99770  Biso   1.000  Ag
  P1       1.0000 0.72380  0.85460  0.26440  Biso   1.000  P
  P2       1.0000 0.76400  0.59990  0.26440  Biso   1.000  P
  O1       1.0000 0.67610  0.59790  0.29960  Biso   1.000  O
  O2       1.0000 0.74790  0.62340  0.20040  Biso   1.000  O
  O3       1.0000 0.85400  0.66550  0.29330  Biso   1.000  O
  O4       1.0000 0.77980  0.49820  0.26480  Biso   1.000  O
  O5       1.0000 0.71800  0.82150  0.19920  Biso   1.000  O
  O6       1.0000 0.82190  0.86230  0.29280  Biso   1.000  O
  O7       1.0000 0.64430  0.79410  0.29800  Biso   1.000  O
  O8       1.0000 0.70970  0.95740  0.26440  Biso   1.000  O
  O9       1.0000 0.88440  0.92390  0.06900  Biso   1.000  O
  O10      1.0000 0.79180  0.36220  0.19890  Biso   1.000  O
  O11      1.0000 0.81430  0.00180  0.37480  Biso   1.000  O
  O12      1.0000 0.78290  0.63890  0.40840  Biso   1.000  O
  O13      1.0000 0.86360  0.18540  0.18790  Biso   1.000  O
  O14      1.0000 0.83080  0.34870  0.40300  Biso   1.000  O
  O15      1.0000 0.74720  0.83370  0.40820  Biso   1.000  O
  O16      1.0000 0.92120  0.94170  0.45890  Biso   1.000  O
  O17      1.0000 0.98970  0.40600  0.18890  Biso   1.000  O
  O18      1.0000 0.60070  0.26070  0.20110  Biso   1.000  O
  O19      1.0000 0.69700  0.85300  0.09090  Biso   1.000  O
  O20      1.0000 0.47400  0.03700  0.19990  Biso   1.000  O
  O21      1.0000 0.92060  0.89680  0.18720  Biso   1.000  O
  O22      1.0000 0.54590  0.50760  0.07910  Biso   1.000  O
  O23      1.0000 0.08500  0.00490  0.24800  Biso   1.000  O
  O24      1.0000 0.51500  0.74460  0.19480  Biso   1.000  O
  O25      1.0000 0.65420  0.44430  0.16280  Biso   1.000  O
  O26      1.0000 0.62660  0.53530  0.46690  Biso   1.000  O
  O27      1.0000 0.90910  0.03590  0.25150  Biso   1.000  O
  O28      1.0000 0.50130  0.78270  0.07700  Biso   1.000  O
  O29      1.0000 0.02090  0.68570  0.34270  Biso   1.000  O
  O30      1.0000 0.82440  0.75540  0.11870  Biso   1.000  O
  O31      1.0000 0.61720  0.68200  0.12410  Biso   1.000  O
  O32      1.0000 0.91250  0.79260  0.38920  Biso   1.000  O
  O33      1.0000 0.49010  0.63000  0.28590  Biso   1.000  O
  O34      1.0000 0.58450  0.81630  0.46610  Biso   1.000  O
  O35      1.0000 0.12820  0.72550  0.24700  Biso   1.000  O
  O36      1.0000 0.54600  0.54660  0.19830  Biso   1.000  O
  O37      1.0000 0.97490  0.96090  0.34510  Biso   1.000  O
  O38      1.0000 0.58070  0.41600  0.26380  Biso   1.000  O
  O39      1.0000 0.50520  0.88610  0.26330  Biso   1.000  O
  O40      1.0000 0.87680  0.52700  0.15680  Biso   1.000  O
  O41      1.0000 0.35770  0.73470  0.26540  Biso   1.000  O
  O42      1.0000 0.63370  0.93700  0.37850  Biso   1.000  O
  O43      1.0000 0.95090  0.69950  0.18480  Biso   1.000  O
  O44      1.0000 0.59910  0.05800  0.29900  Biso   1.000  O
  O45      1.0000 0.49490  0.77680  0.35500  Biso   1.000  O
  O46      1.0000 0.92650  0.64320  0.06600  Biso   1.000  O
  O47      1.0000 0.96720  0.66600  0.45700  Biso   1.000  O
  O48      1.0000 0.70770  0.46430  0.37960  Biso   1.000  O
  O49      1.0000 0.40540  0.44260  0.26700  Biso   1.000  O
  O50      1.0000 0.90190  0.40400  0.29660  Biso   1.000  O
  O51      1.0000 0.70450  0.12700  0.40120  Biso   1.000  O
  O52      1.0000 0.98210  0.56930  0.25210  Biso   1.000  O
  O53      1.0000 0.00120  0.82070  0.27330  Biso   1.000  O
  O54      1.0000 0.71450  0.33430  0.29990  Biso   1.000  O
  O55      1.0000 0.78690  0.12330  0.29490  Biso   1.000  O
  O56      1.0000 0.89120  0.53490  0.37370  Biso   1.000  O
  O57      1.0000 0.80280  0.99730  0.15720  Biso   1.000  O
  O58      1.0000 0.67490  0.08610  0.19700  Biso   1.000  O
  O59      1.0000 0.73750  0.57840  0.09110  Biso   1.000  O
  O60      1.0000 0.58080  0.91290  0.16150  Biso   1.000  O
  O61      1.0000 0.61620  0.67740  0.39580  Biso   1.000  O
  O62      1.0000 0.53820  0.50380  0.35750  Biso   1.000  O
  C1       1.0000 0.89900  0.49600  0.61700  Biso   1.000  C
  H1       1.0000 0.95030  0.49660  0.64320  Biso   1.000  H
  C2       1.0000 0.81800  0.52900  0.54770  Biso   1.000  C
  H2       1.0000 0.79850  0.54350  0.51050  Biso   1.000  H
  C3       1.0000 0.76900  0.44800  0.68640  Biso   1.000  C
  H3       1.0000 0.70040  0.44100  0.68610  Biso   1.000  H
  H4       1.0000 0.78010  0.38640  0.69030  Biso   1.000  H
  C4       1.0000 0.81500  0.50600  0.73690  Biso   1.000  C
  H5       1.0000 0.87840  0.49690  0.74200  Biso   1.000  H
  H6       1.0000 0.82160  0.56970  0.72540  Biso   1.000  H
  C5       1.0000 0.77910  0.49960  0.78990  Biso   1.000  C
  H7       1.0000 0.71100  0.49240  0.78430  Biso   1.000  H
  H8       1.0000 0.80480  0.55880  0.80980  Biso   1.000  H
  C6       1.0000 0.79420  0.42510  0.83120  Biso   1.000  C
  H9       1.0000 0.76870  0.36460  0.81290  Biso   1.000  H
  H10      1.0000 0.86190  0.43250  0.83970  Biso   1.000  H
  C7       1.0000 0.71810  0.49340  0.96410  Biso   1.000  C
  H11      1.0000 0.72120  0.53230  0.99640  Biso   1.000  H
  C8       1.0000 0.66440  0.38670  0.90080  Biso   1.000  C
  H12      1.0000 0.62460  0.33620  0.88090  Biso   1.000  H
  C9       1.0000 0.36300  0.22000  0.04660  Biso   1.000  C
  H13      1.0000 0.34430  0.19750  0.00900  Biso   1.000  H
  C10      1.0000 0.42820  0.30680  0.11310  Biso   1.000  C
  H14      1.0000 0.46650  0.35710  0.13410  Biso   1.000  H
  C11      1.0000 0.36720  0.20830  0.19870  Biso   1.000  C
  H15      1.0000 0.39710  0.26250  0.22270  Biso   1.000  H
  H16      1.0000 0.39970  0.16020  0.20800  Biso   1.000  H
  C12      1.0000 0.26250  0.17520  0.21280  Biso   1.000  C
  H17      1.0000 0.23010  0.12800  0.18440  Biso   1.000  H
  H18      1.0000 0.25840  0.14760  0.25090  Biso   1.000  H
  C13      1.0000 0.21440  0.25290  0.21220  Biso   1.000  C
  H19      1.0000 0.22730  0.28510  0.24960  Biso   1.000  H
  H20      1.0000 0.24170  0.29630  0.18280  Biso   1.000  H
  C14      1.0000 0.10950  0.22370  0.20010  Biso   1.000  C
  H21      1.0000 0.08270  0.17340  0.22550  Biso   1.000  H
  H22      1.0000 0.08200  0.27510  0.20890  Biso   1.000  H
  C15      1.0000 0.08060  0.20100  0.04970  Biso   1.000  C
  H23      1.0000 0.08520  0.22330  0.01200  Biso   1.000  H
  C16      1.0000 0.04900  0.11400  0.11820  Biso   1.000  C
  H24      1.0000 0.02610  0.06200  0.14040  Biso   1.000  H
  C17      1.0000 0.14480  0.87000  0.11720  Biso   1.000  C
  H25      1.0000 0.08900  0.83890  0.13380  Biso   1.000  H
  C18      1.0000 0.29300  0.93400  0.10670  Biso   1.000  C
  H26      1.0000 0.35900  0.95470  0.11210  Biso   1.000  H
  C19      1.0000 0.28700  0.98200  0.00330  Biso   1.000  C
  H27      1.0000 0.25030  0.02380  0.98870  Biso   1.000  H
  H28      1.0000 0.35100  0.01850  0.01350  Biso   1.000  H
  C20      1.0000 0.29200  0.92200  0.95920  Biso   1.000  C
  H29      1.0000 0.31150  0.95770  0.92490  Biso   1.000  H
  H30      1.0000 0.22920  0.88280  0.95040  Biso   1.000  H
  C21      1.0000 0.36070  0.85900  0.97030  Biso   1.000  C
  H31      1.0000 0.36720  0.84860  0.01170  Biso   1.000  H
  H32      1.0000 0.42300  0.88900  0.95700  Biso   1.000  H
  C22      1.0000 0.31980  0.76540  0.93650  Biso   1.000  C
  H33      1.0000 0.31640  0.77720  0.89520  Biso   1.000  H
  H34      1.0000 0.36330  0.72600  0.94310  Biso   1.000  H
  C23      1.0000 0.14550  0.68900  0.92150  Biso   1.000  C
  H35      1.0000 0.13930  0.69560  0.88140  Biso   1.000  H
  C24      1.0000 0.12110  0.65300  0.00840  Biso   1.000  C
  H36      1.0000 0.09130  0.62450  0.04070  Biso   1.000  H
  C25      1.0000 0.35330  0.92920  0.36150  Biso   1.000  C
  H37      1.0000 0.41550  0.93600  0.35060  Biso   1.000  H
  C26      1.0000 0.20600  0.90100  0.35820  Biso   1.000  C
  H38      1.0000 0.14320  0.88030  0.34410  Biso   1.000  H
  C27      1.0000 0.37800  0.95100  0.47180  Biso   1.000  C
  H39      1.0000 0.34910  0.98930  0.49590  Biso   1.000  H
  H40      1.0000 0.37170  0.89230  0.49120  Biso   1.000  H
  C28      1.0000 0.47630  0.99400  0.47050  Biso   1.000  C
  H41      1.0000 0.48410  0.05430  0.45300  Biso   1.000  H
  H42      1.0000 0.50650  0.95700  0.44650  Biso   1.000  H
  N1       1.0000 0.89470  0.50410  0.55640  Biso   1.000  N
  N2       1.0000 0.80600  0.48800  0.62750  Biso   1.000  N
  N3       1.0000 0.76600  0.53200  0.59150  Biso   1.000  N
  N4       1.0000 0.64520  0.42280  0.94880  Biso   1.000  N
  N5       1.0000 0.78940  0.50070  0.92450  Biso   1.000  N
  N6       1.0000 0.74770  0.43130  0.88450  Biso   1.000  N
  N7       1.0000 0.41720  0.30070  0.05730  Biso   1.000  N
  N8       1.0000 0.33470  0.17060  0.09560  Biso   1.000  N
  N9       1.0000 0.37740  0.23170  0.13630  Biso   1.000  N
  N10      1.0000 0.08460  0.19430  0.14110  Biso   1.000  N
  N11      1.0000 0.10400  0.25510  0.09510  Biso   1.000  N
  N12      1.0000 0.04820  0.10900  0.06090  Biso   1.000  N
  N13      1.0000 0.15340  0.89900  0.06070  Biso   1.000  N
  N14      1.0000 0.24400  0.94030  0.05820  Biso   1.000  N
  N15      1.0000 0.23720  0.89680  0.14570  Biso   1.000  N
  N16      1.0000 0.22480  0.71600  0.95390  Biso   1.000  N
  N17      1.0000 0.21100  0.69700  0.00940  Biso   1.000  N
  N18      1.0000 0.07610  0.65250  0.95550  Biso   1.000  N
  N19      1.0000 0.27500  0.91380  0.32660  Biso   1.000  N
  N20      1.0000 0.23260  0.92100  0.41710  Biso   1.000  N
  N21      1.0000 0.32340  0.93300  0.41780  Biso   1.000  N
  Ag4      1.0000 0.03760  0.96680  0.00860  Biso   1.000  Ag
  W19      1.0000 0.17705  0.11944  0.87205  Biso   1.000  W
  W20      1.0000 0.37503  0.44421  0.86575  Biso   1.000  W
  W21      1.0000 0.41241  0.20292  0.86754  Biso   1.000  W
  W22      1.0000 0.38419  0.19206  0.60280  Biso   1.000  W
  W23      1.0000 0.02735  0.05794  0.73719  Biso   1.000  W
  W24      1.0000 0.34558  0.43278  0.60146  Biso   1.000  W
  W25      1.0000 0.13963  0.35953  0.87429  Biso   1.000  W
  W26      1.0000 0.52153  0.24741  0.72631  Biso   1.000  W
  W27      1.0000 0.99005  0.29873  0.73934  Biso   1.000  W
  W28      1.0000 0.48267  0.48847  0.72453  Biso   1.000  W
  W29      1.0000 0.08774  0.33468  0.60944  Biso   1.000  W
  W30      1.0000 0.12722  0.09512  0.60836  Biso   1.000  W
  W31      1.0000 0.19358  0.91671  0.78264  Biso   1.000  W
  W32      1.0000 0.29223  0.95204  0.65239  Biso   1.000  W
  W33      1.0000 0.19248  0.58106  0.65033  Biso   1.000  W
  W34      1.0000 0.09330  0.54554  0.78068  Biso   1.000  W
  W35      1.0000 0.32970  0.63517  0.77477  Biso   1.000  W
  W36      1.0000 0.43219  0.00604  0.77527  Biso   1.000  W
  Ag5      1.0000 0.73970  0.11270  0.76498  Biso   1.000  Ag
  Ag6      1.0000 0.07044  0.40934  0.07171  Biso   1.000  Ag
  Ag7      1.0000 0.48274  0.62186  0.00230  Biso   1.000  Ag
  P3       1.0000 0.27620  0.14540  0.73560  Biso   1.000  P
  P4       1.0000 0.23600  0.40010  0.73560  Biso   1.000  P
  O63      1.0000 0.32390  0.40210  0.70040  Biso   1.000  O
  O64      1.0000 0.25210  0.37660  0.79960  Biso   1.000  O
  O65      1.0000 0.14600  0.33450  0.70670  Biso   1.000  O
  O66      1.0000 0.22020  0.50180  0.73520  Biso   1.000  O
  O67      1.0000 0.28200  0.17850  0.80080  Biso   1.000  O
  O68      1.0000 0.17810  0.13770  0.70720  Biso   1.000  O
  O69      1.0000 0.35570  0.20590  0.70200  Biso   1.000  O
  O70      1.0000 0.29030  0.04260  0.73560  Biso   1.000  O
  O71      1.0000 0.11560  0.07610  0.93100  Biso   1.000  O
  O72      1.0000 0.20820  0.63780  0.80110  Biso   1.000  O
  O73      1.0000 0.18570  0.99820  0.62520  Biso   1.000  O
  O74      1.0000 0.21710  0.36110  0.59160  Biso   1.000  O
  O75      1.0000 0.13640  0.81460  0.81210  Biso   1.000  O
  O76      1.0000 0.16920  0.65130  0.59700  Biso   1.000  O
  O77      1.0000 0.25280  0.16630  0.59180  Biso   1.000  O
  O78      1.0000 0.07880  0.05830  0.54110  Biso   1.000  O
  O79      1.0000 0.01030  0.59400  0.81110  Biso   1.000  O
  O80      1.0000 0.39930  0.73930  0.79890  Biso   1.000  O
  O81      1.0000 0.30300  0.14700  0.90910  Biso   1.000  O
  O82      1.0000 0.52600  0.96300  0.80010  Biso   1.000  O
  O83      1.0000 0.07940  0.10320  0.81280  Biso   1.000  O
  O84      1.0000 0.45410  0.49240  0.92090  Biso   1.000  O
  O85      1.0000 0.91500  0.99510  0.75200  Biso   1.000  O
  O86      1.0000 0.48500  0.25540  0.80520  Biso   1.000  O
  O87      1.0000 0.34580  0.55570  0.83720  Biso   1.000  O
  O88      1.0000 0.37340  0.46470  0.53310  Biso   1.000  O
  O89      1.0000 0.09090  0.96410  0.74850  Biso   1.000  O
  O90      1.0000 0.49870  0.21730  0.92300  Biso   1.000  O
  O91      1.0000 0.97910  0.31430  0.65730  Biso   1.000  O
  O92      1.0000 0.17560  0.24460  0.88130  Biso   1.000  O
  O93      1.0000 0.38280  0.31800  0.87590  Biso   1.000  O
  O94      1.0000 0.08750  0.20740  0.61080  Biso   1.000  O
  O95      1.0000 0.50990  0.37000  0.71410  Biso   1.000  O
  O96      1.0000 0.41550  0.18370  0.53390  Biso   1.000  O
  O97      1.0000 0.87180  0.27450  0.75300  Biso   1.000  O
  O98      1.0000 0.45400  0.45340  0.80170  Biso   1.000  O
  O99      1.0000 0.02510  0.03910  0.65490  Biso   1.000  O
  O100     1.0000 0.41930  0.58400  0.73620  Biso   1.000  O
  O101     1.0000 0.49480  0.11390  0.73670  Biso   1.000  O
  O102     1.0000 0.12320  0.47300  0.84320  Biso   1.000  O
  O103     1.0000 0.64230  0.26530  0.73460  Biso   1.000  O
  O104     1.0000 0.36630  0.06300  0.62150  Biso   1.000  O
  O105     1.0000 0.04910  0.30050  0.81520  Biso   1.000  O
  O106     1.0000 0.40090  0.94200  0.70100  Biso   1.000  O
  O107     1.0000 0.50510  0.22320  0.64500  Biso   1.000  O
  O108     1.0000 0.07350  0.35680  0.93400  Biso   1.000  O
  O109     1.0000 0.03280  0.33400  0.54300  Biso   1.000  O
  O110     1.0000 0.29230  0.53570  0.62040  Biso   1.000  O
  O111     1.0000 0.59460  0.55740  0.73300  Biso   1.000  O
  O112     1.0000 0.09810  0.59600  0.70340  Biso   1.000  O
  O113     1.0000 0.29550  0.87300  0.59880  Biso   1.000  O
  O114     1.0000 0.01790  0.43070  0.74790  Biso   1.000  O
  O115     1.0000 0.99880  0.17930  0.72670  Biso   1.000  O
  O116     1.0000 0.28550  0.66570  0.70010  Biso   1.000  O
  O117     1.0000 0.21310  0.87670  0.70510  Biso   1.000  O
  O118     1.0000 0.10880  0.46510  0.62630  Biso   1.000  O
  O119     1.0000 0.19720  0.00270  0.84280  Biso   1.000  O
  O120     1.0000 0.32510  0.91390  0.80300  Biso   1.000  O
  O121     1.0000 0.26250  0.42160  0.90890  Biso   1.000  O
  O122     1.0000 0.41920  0.08710  0.83850  Biso   1.000  O
  O123     1.0000 0.38380  0.32260  0.60420  Biso   1.000  O
  O124     1.0000 0.46180  0.49620  0.64250  Biso   1.000  O
  C29      1.0000 0.10100  0.50400  0.38300  Biso   1.000  C
  H43      1.0000 0.04970  0.50340  0.35680  Biso   1.000  H
  C30      1.0000 0.18200  0.47100  0.45230  Biso   1.000  C
  H44      1.0000 0.20150  0.45650  0.48950  Biso   1.000  H
  C31      1.0000 0.23100  0.55200  0.31360  Biso   1.000  C
  H45      1.0000 0.29960  0.55900  0.31390  Biso   1.000  H
  H46      1.0000 0.21990  0.61360  0.30970  Biso   1.000  H
  C32      1.0000 0.18500  0.49400  0.26310  Biso   1.000  C
  H47      1.0000 0.12160  0.50310  0.25800  Biso   1.000  H
  H48      1.0000 0.17840  0.43030  0.27460  Biso   1.000  H
  C33      1.0000 0.22090  0.50040  0.21010  Biso   1.000  C
  H49      1.0000 0.28900  0.50760  0.21570  Biso   1.000  H
  H50      1.0000 0.19520  0.44120  0.19020  Biso   1.000  H
  C34      1.0000 0.20580  0.57490  0.16880  Biso   1.000  C
  H51      1.0000 0.23130  0.63540  0.18710  Biso   1.000  H
  H52      1.0000 0.13810  0.56750  0.16030  Biso   1.000  H
  C35      1.0000 0.28190  0.50660  0.03590  Biso   1.000  C
  H53      1.0000 0.27880  0.46770  0.00360  Biso   1.000  H
  C36      1.0000 0.33560  0.61330  0.09920  Biso   1.000  C
  H54      1.0000 0.37540  0.66380  0.11910  Biso   1.000  H
  C37      1.0000 0.63700  0.78000  0.95340  Biso   1.000  C
  H55      1.0000 0.65570  0.80250  0.99100  Biso   1.000  H
  C38      1.0000 0.57180  0.69320  0.88690  Biso   1.000  C
  H56      1.0000 0.53350  0.64290  0.86590  Biso   1.000  H
  C39      1.0000 0.63280  0.79170  0.80130  Biso   1.000  C
  H57      1.0000 0.60290  0.73750  0.77730  Biso   1.000  H
  H58      1.0000 0.60030  0.83980  0.79200  Biso   1.000  H
  C40      1.0000 0.73750  0.82480  0.78720  Biso   1.000  C
  H59      1.0000 0.76990  0.87200  0.81560  Biso   1.000  H
  H60      1.0000 0.74160  0.85240  0.74910  Biso   1.000  H
  C41      1.0000 0.78560  0.74710  0.78780  Biso   1.000  C
  H61      1.0000 0.77270  0.71490  0.75040  Biso   1.000  H
  H62      1.0000 0.75830  0.70370  0.81720  Biso   1.000  H
  C42      1.0000 0.89050  0.77630  0.79990  Biso   1.000  C
  H63      1.0000 0.91730  0.82660  0.77450  Biso   1.000  H
  H64      1.0000 0.91800  0.72490  0.79110  Biso   1.000  H
  C43      1.0000 0.91940  0.79900  0.95030  Biso   1.000  C
  H65      1.0000 0.91480  0.77670  0.98800  Biso   1.000  H
  C44      1.0000 0.95100  0.88600  0.88180  Biso   1.000  C
  H66      1.0000 0.97390  0.93800  0.85960  Biso   1.000  H
  C45      1.0000 0.85520  0.13000  0.88280  Biso   1.000  C
  H67      1.0000 0.91100  0.16110  0.86620  Biso   1.000  H
  C46      1.0000 0.70700  0.06600  0.89330  Biso   1.000  C
  H68      1.0000 0.64100  0.04530  0.88790  Biso   1.000  H
  C47      1.0000 0.71300  0.01800  0.99670  Biso   1.000  C
  H69      1.0000 0.74970  0.97620  0.01130  Biso   1.000  H
  H70      1.0000 0.64900  0.98150  0.98650  Biso   1.000  H
  C48      1.0000 0.70800  0.07800  0.04080  Biso   1.000  C
  H71      1.0000 0.68850  0.04230  0.07510  Biso   1.000  H
  H72      1.0000 0.77080  0.11720  0.04960  Biso   1.000  H
  C49      1.0000 0.63930  0.14100  0.02970  Biso   1.000  C
  H73      1.0000 0.63280  0.15140  0.98830  Biso   1.000  H
  H74      1.0000 0.57700  0.11100  0.04300  Biso   1.000  H
  C50      1.0000 0.68020  0.23460  0.06350  Biso   1.000  C
  H75      1.0000 0.68360  0.22280  0.10480  Biso   1.000  H
  H76      1.0000 0.63670  0.27400  0.05690  Biso   1.000  H
  C51      1.0000 0.85450  0.31100  0.07850  Biso   1.000  C
  H77      1.0000 0.86070  0.30440  0.11860  Biso   1.000  H
  C52      1.0000 0.87890  0.34700  0.99160  Biso   1.000  C
  H78      1.0000 0.90870  0.37550  0.95930  Biso   1.000  H
  C53      1.0000 0.64670  0.07080  0.63850  Biso   1.000  C
  H79      1.0000 0.58450  0.06400  0.64940  Biso   1.000  H
  C54      1.0000 0.79400  0.09900  0.64180  Biso   1.000  C
  H80      1.0000 0.85680  0.11970  0.65590  Biso   1.000  H
  C55      1.0000 0.62200  0.04900  0.52820  Biso   1.000  C
  H81      1.0000 0.65090  0.01070  0.50410  Biso   1.000  H
  H82      1.0000 0.62830  0.10770  0.50880  Biso   1.000  H
  C56      1.0000 0.52370  0.00600  0.52950  Biso   1.000  C
  H83      1.0000 0.51590  0.94570  0.54700  Biso   1.000  H
  H84      1.0000 0.49350  0.04300  0.55350  Biso   1.000  H
  N22      1.0000 0.10530  0.49590  0.44360  Biso   1.000  N
  N23      1.0000 0.19400  0.51200  0.37250  Biso   1.000  N
  N24      1.0000 0.23400  0.46800  0.40850  Biso   1.000  N
  N25      1.0000 0.35480  0.57720  0.05120  Biso   1.000  N
  N26      1.0000 0.21060  0.49930  0.07550  Biso   1.000  N
  N27      1.0000 0.25230  0.56870  0.11550  Biso   1.000  N
  N28      1.0000 0.58280  0.69930  0.94270  Biso   1.000  N
  N29      1.0000 0.66530  0.82940  0.90440  Biso   1.000  N
  N30      1.0000 0.62260  0.76830  0.86370  Biso   1.000  N
  N31      1.0000 0.91540  0.80570  0.85890  Biso   1.000  N
  N32      1.0000 0.89600  0.74490  0.90490  Biso   1.000  N
  N33      1.0000 0.95180  0.89100  0.93910  Biso   1.000  N
  N34      1.0000 0.84660  0.10100  0.93930  Biso   1.000  N
  N35      1.0000 0.75600  0.05970  0.94180  Biso   1.000  N
  N36      1.0000 0.76280  0.10320  0.85430  Biso   1.000  N
  N37      1.0000 0.77520  0.28400  0.04610  Biso   1.000  N
  N38      1.0000 0.78900  0.30300  0.99060  Biso   1.000  N
  N39      1.0000 0.92390  0.34750  0.04450  Biso   1.000  N
  N40      1.0000 0.72500  0.08620  0.67340  Biso   1.000  N
  N41      1.0000 0.76740  0.07900  0.58290  Biso   1.000  N
  N42      1.0000 0.67660  0.06700  0.58220  Biso   1.000  N
  Ag8      1.0000 0.96240  0.03320  0.99140  Biso   1.000  Ag
  Ag9      1.0000 0.00000  0.00000  0.00000  Biso   1.000  Ag
  Ag10     1.0000 0.00000  0.50000  0.50000  Biso   1.000  Ag
