data_image0
_cell_length_a       27.1683
_cell_length_b       15.3846
_cell_length_c       19.2713
_cell_angle_alpha    90
_cell_angle_beta     98.162
_cell_angle_gamma    90

_symmetry_space_group_name_H-M    "P 1"
_symmetry_int_tables_number       1

loop_
  _symmetry_equiv_pos_as_xyz
  'x, y, z'

loop_
  _atom_site_label
  _atom_site_occupancy
  _atom_site_fract_x
  _atom_site_fract_y
  _atom_site_fract_z
  _atom_site_thermal_displace_type
  _atom_site_B_iso_or_equiv
  _atom_site_type_symbol
  Br1      1.0000 0.18388  0.64376  0.42336  Biso   1.000  Br
  C1       1.0000 0.53018  0.81350  0.31630  Biso   1.000  C
  C2       1.0000 0.50538  0.74910  0.34870  Biso   1.000  C
  C3       1.0000 0.53214  0.70080  0.40270  Biso   1.000  C
  C4       1.0000 0.58149  0.72260  0.42750  Biso   1.000  C
  H1       1.0000 0.59930  0.68950  0.46450  Biso   1.000  H
  C5       1.0000 0.60506  0.79210  0.39910  Biso   1.000  C
  C6       1.0000 0.57943  0.83440  0.34250  Biso   1.000  C
  H2       1.0000 0.59560  0.87920  0.32040  Biso   1.000  H
  O1       1.0000 0.45509  0.73590  0.32990  Biso   1.000  O
  C7       1.0000 0.42888  0.79220  0.37310  Biso   1.000  C
  H3       1.0000 0.43600  0.85380  0.36350  Biso   1.000  H
  H4       1.0000 0.44040  0.78070  0.42330  Biso   1.000  H
  C8       1.0000 0.37373  0.77560  0.35700  Biso   1.000  C
  C9       1.0000 0.34609  0.77470  0.41160  Biso   1.000  C
  H5       1.0000 0.36300  0.78060  0.45800  Biso   1.000  H
  N1       1.0000 0.29627  0.76570  0.40270  Biso   1.000  N
  C10      1.0000 0.27330  0.75680  0.33760  Biso   1.000  C
  H6       1.0000 0.23820  0.75030  0.33030  Biso   1.000  H
  C11      1.0000 0.29820  0.75660  0.28020  Biso   1.000  C
  H7       1.0000 0.28050  0.75080  0.23430  Biso   1.000  H
  C12      1.0000 0.34970  0.76480  0.29040  Biso   1.000  C
  H8       1.0000 0.36780  0.76290  0.25170  Biso   1.000  H
  C13      1.0000 0.65810  0.81880  0.43050  Biso   1.000  C
  C14      1.0000 0.69330  0.74300  0.42470  Biso   1.000  C
  H9       1.0000 0.72750  0.76130  0.44130  Biso   1.000  H
  H10      1.0000 0.69080  0.72450  0.37560  Biso   1.000  H
  H11      1.0000 0.68440  0.69450  0.45340  Biso   1.000  H
  C15      1.0000 0.67680  0.89730  0.39190  Biso   1.000  C
  H12      1.0000 0.65400  0.94630  0.39370  Biso   1.000  H
  H13      1.0000 0.67820  0.88170  0.34300  Biso   1.000  H
  H14      1.0000 0.71000  0.91370  0.41470  Biso   1.000  H
  C16      1.0000 0.65860  0.84390  0.50780  Biso   1.000  C
  H15      1.0000 0.64370  0.79700  0.53220  Biso   1.000  H
  H16      1.0000 0.63950  0.89750  0.51060  Biso   1.000  H
  H17      1.0000 0.69300  0.85310  0.52980  Biso   1.000  H
  S1       1.0000 0.50367  0.62185  0.45109  Biso   1.000  S
  C17      1.0000 0.47130  0.55060  0.38770  Biso   1.000  C
  C18      1.0000 0.49685  0.49670  0.34740  Biso   1.000  C
  C19      1.0000 0.46976  0.43670  0.30210  Biso   1.000  C
  C20      1.0000 0.41910  0.42830  0.30120  Biso   1.000  C
  H18      1.0000 0.40130  0.38750  0.27020  Biso   1.000  H
  C21      1.0000 0.39324  0.47820  0.34460  Biso   1.000  C
  C22      1.0000 0.42005  0.54120  0.38570  Biso   1.000  C
  H19      1.0000 0.40300  0.57900  0.41320  Biso   1.000  H
  O2       1.0000 0.54803  0.50090  0.35230  Biso   1.000  O
  C23      1.0000 0.57046  0.43760  0.40170  Biso   1.000  C
  H20      1.0000 0.55940  0.37870  0.38590  Biso   1.000  H
  H21      1.0000 0.55980  0.44810  0.44800  Biso   1.000  H
  C24      1.0000 0.62610  0.44310  0.40820  Biso   1.000  C
  C25      1.0000 0.65373  0.37260  0.43430  Biso   1.000  C
  H22      1.0000 0.63650  0.32070  0.44250  Biso   1.000  H
  N2       1.0000 0.70376  0.37240  0.44910  Biso   1.000  N
  C26      1.0000 0.72732  0.44490  0.43400  Biso   1.000  C
  H23      1.0000 0.76260  0.44660  0.44420  Biso   1.000  H
  C27      1.0000 0.70290  0.51680  0.40450  Biso   1.000  C
  H24      1.0000 0.72110  0.56600  0.39260  Biso   1.000  H
  C28      1.0000 0.65130  0.51680  0.39220  Biso   1.000  C
  H25      1.0000 0.63360  0.56660  0.37320  Biso   1.000  H
  C29      1.0000 0.33790  0.46240  0.34810  Biso   1.000  C
  C30      1.0000 0.33500  0.39070  0.40250  Biso   1.000  C
  H26      1.0000 0.35340  0.40870  0.44760  Biso   1.000  H
  H27      1.0000 0.34950  0.33710  0.38680  Biso   1.000  H
  H28      1.0000 0.30010  0.38040  0.40780  Biso   1.000  H
  C31      1.0000 0.31150  0.42540  0.28320  Biso   1.000  C
  H29      1.0000 0.32550  0.36820  0.27500  Biso   1.000  H
  H30      1.0000 0.31520  0.46400  0.24390  Biso   1.000  H
  H31      1.0000 0.27610  0.41920  0.28750  Biso   1.000  H
  C32      1.0000 0.31210  0.53770  0.37600  Biso   1.000  C
  H32      1.0000 0.32010  0.59110  0.35210  Biso   1.000  H
  H33      1.0000 0.32310  0.54350  0.42640  Biso   1.000  H
  H34      1.0000 0.27610  0.52810  0.36770  Biso   1.000  H
  Br2      1.0000 0.68388  0.14376  0.42336  Biso   1.000  Br
  C33      1.0000 0.03018  0.31350  0.31630  Biso   1.000  C
  C34      1.0000 0.00538  0.24910  0.34870  Biso   1.000  C
  C35      1.0000 0.03214  0.20080  0.40270  Biso   1.000  C
  C36      1.0000 0.08149  0.22260  0.42750  Biso   1.000  C
  H35      1.0000 0.09930  0.18950  0.46450  Biso   1.000  H
  C37      1.0000 0.10506  0.29210  0.39910  Biso   1.000  C
  C38      1.0000 0.07943  0.33440  0.34250  Biso   1.000  C
  H36      1.0000 0.09560  0.37920  0.32040  Biso   1.000  H
  O3       1.0000 0.95509  0.23590  0.32990  Biso   1.000  O
  C39      1.0000 0.92888  0.29220  0.37310  Biso   1.000  C
  H37      1.0000 0.93600  0.35380  0.36350  Biso   1.000  H
  H38      1.0000 0.94040  0.28070  0.42330  Biso   1.000  H
  C40      1.0000 0.87373  0.27560  0.35700  Biso   1.000  C
  C41      1.0000 0.84609  0.27470  0.41160  Biso   1.000  C
  H39      1.0000 0.86300  0.28060  0.45800  Biso   1.000  H
  N3       1.0000 0.79627  0.26570  0.40270  Biso   1.000  N
  C42      1.0000 0.77330  0.25680  0.33760  Biso   1.000  C
  H40      1.0000 0.73820  0.25030  0.33030  Biso   1.000  H
  C43      1.0000 0.79820  0.25660  0.28020  Biso   1.000  C
  H41      1.0000 0.78050  0.25080  0.23430  Biso   1.000  H
  C44      1.0000 0.84970  0.26480  0.29040  Biso   1.000  C
  H42      1.0000 0.86780  0.26290  0.25170  Biso   1.000  H
  C45      1.0000 0.15810  0.31880  0.43050  Biso   1.000  C
  C46      1.0000 0.19330  0.24300  0.42470  Biso   1.000  C
  H43      1.0000 0.22750  0.26130  0.44130  Biso   1.000  H
  H44      1.0000 0.19080  0.22450  0.37560  Biso   1.000  H
  H45      1.0000 0.18440  0.19450  0.45340  Biso   1.000  H
  C47      1.0000 0.17680  0.39730  0.39190  Biso   1.000  C
  H46      1.0000 0.15400  0.44630  0.39370  Biso   1.000  H
  H47      1.0000 0.17820  0.38170  0.34300  Biso   1.000  H
  H48      1.0000 0.21000  0.41370  0.41470  Biso   1.000  H
  C48      1.0000 0.15860  0.34390  0.50780  Biso   1.000  C
  H49      1.0000 0.14370  0.29700  0.53220  Biso   1.000  H
  H50      1.0000 0.13950  0.39750  0.51060  Biso   1.000  H
  H51      1.0000 0.19300  0.35310  0.52980  Biso   1.000  H
  S2       1.0000 0.00367  0.12185  0.45109  Biso   1.000  S
  C49      1.0000 0.97130  0.05060  0.38770  Biso   1.000  C
  C50      1.0000 0.99685  0.99670  0.34740  Biso   1.000  C
  C51      1.0000 0.96976  0.93670  0.30210  Biso   1.000  C
  C52      1.0000 0.91910  0.92830  0.30120  Biso   1.000  C
  H52      1.0000 0.90130  0.88750  0.27020  Biso   1.000  H
  C53      1.0000 0.89324  0.97820  0.34460  Biso   1.000  C
  C54      1.0000 0.92005  0.04120  0.38570  Biso   1.000  C
  H53      1.0000 0.90300  0.07900  0.41320  Biso   1.000  H
  O4       1.0000 0.04803  0.00090  0.35230  Biso   1.000  O
  C55      1.0000 0.07046  0.93760  0.40170  Biso   1.000  C
  H54      1.0000 0.05940  0.87870  0.38590  Biso   1.000  H
  H55      1.0000 0.05980  0.94810  0.44800  Biso   1.000  H
  C56      1.0000 0.12610  0.94310  0.40820  Biso   1.000  C
  C57      1.0000 0.15373  0.87260  0.43430  Biso   1.000  C
  H56      1.0000 0.13650  0.82070  0.44250  Biso   1.000  H
  N4       1.0000 0.20376  0.87240  0.44910  Biso   1.000  N
  C58      1.0000 0.22732  0.94490  0.43400  Biso   1.000  C
  H57      1.0000 0.26260  0.94660  0.44420  Biso   1.000  H
  C59      1.0000 0.20290  0.01680  0.40450  Biso   1.000  C
  H58      1.0000 0.22110  0.06600  0.39260  Biso   1.000  H
  C60      1.0000 0.15130  0.01680  0.39220  Biso   1.000  C
  H59      1.0000 0.13360  0.06660  0.37320  Biso   1.000  H
  C61      1.0000 0.83790  0.96240  0.34810  Biso   1.000  C
  C62      1.0000 0.83500  0.89070  0.40250  Biso   1.000  C
  H60      1.0000 0.85340  0.90870  0.44760  Biso   1.000  H
  H61      1.0000 0.84950  0.83710  0.38680  Biso   1.000  H
  H62      1.0000 0.80010  0.88040  0.40780  Biso   1.000  H
  C63      1.0000 0.81150  0.92540  0.28320  Biso   1.000  C
  H63      1.0000 0.82550  0.86820  0.27500  Biso   1.000  H
  H64      1.0000 0.81520  0.96400  0.24390  Biso   1.000  H
  H65      1.0000 0.77610  0.91920  0.28750  Biso   1.000  H
  C64      1.0000 0.81210  0.03770  0.37600  Biso   1.000  C
  H66      1.0000 0.82010  0.09110  0.35210  Biso   1.000  H
  H67      1.0000 0.82310  0.04350  0.42640  Biso   1.000  H
  H68      1.0000 0.77610  0.02810  0.36770  Biso   1.000  H
  Br3      1.0000 0.81612  0.64376  0.07664  Biso   1.000  Br
  C65      1.0000 0.46982  0.81350  0.18370  Biso   1.000  C
  C66      1.0000 0.49462  0.74910  0.15130  Biso   1.000  C
  C67      1.0000 0.46786  0.70080  0.09730  Biso   1.000  C
  C68      1.0000 0.41851  0.72260  0.07250  Biso   1.000  C
  H69      1.0000 0.40070  0.68950  0.03550  Biso   1.000  H
  C69      1.0000 0.39494  0.79210  0.10090  Biso   1.000  C
  C70      1.0000 0.42057  0.83440  0.15750  Biso   1.000  C
  H70      1.0000 0.40440  0.87920  0.17960  Biso   1.000  H
  O5       1.0000 0.54491  0.73590  0.17010  Biso   1.000  O
  C71      1.0000 0.57112  0.79220  0.12690  Biso   1.000  C
  H71      1.0000 0.56400  0.85380  0.13650  Biso   1.000  H
  H72      1.0000 0.55960  0.78070  0.07670  Biso   1.000  H
  C72      1.0000 0.62627  0.77560  0.14300  Biso   1.000  C
  C73      1.0000 0.65391  0.77470  0.08840  Biso   1.000  C
  H73      1.0000 0.63700  0.78060  0.04200  Biso   1.000  H
  N5       1.0000 0.70373  0.76570  0.09730  Biso   1.000  N
  C74      1.0000 0.72670  0.75680  0.16240  Biso   1.000  C
  H74      1.0000 0.76180  0.75030  0.16970  Biso   1.000  H
  C75      1.0000 0.70180  0.75660  0.21980  Biso   1.000  C
  H75      1.0000 0.71950  0.75080  0.26570  Biso   1.000  H
  C76      1.0000 0.65030  0.76480  0.20960  Biso   1.000  C
  H76      1.0000 0.63220  0.76290  0.24830  Biso   1.000  H
  C77      1.0000 0.34190  0.81880  0.06950  Biso   1.000  C
  C78      1.0000 0.30670  0.74300  0.07530  Biso   1.000  C
  H77      1.0000 0.27250  0.76130  0.05870  Biso   1.000  H
  H78      1.0000 0.30920  0.72450  0.12440  Biso   1.000  H
  H79      1.0000 0.31560  0.69450  0.04660  Biso   1.000  H
  C79      1.0000 0.32320  0.89730  0.10810  Biso   1.000  C
  H80      1.0000 0.34600  0.94630  0.10630  Biso   1.000  H
  H81      1.0000 0.32180  0.88170  0.15700  Biso   1.000  H
  H82      1.0000 0.29000  0.91370  0.08530  Biso   1.000  H
  C80      1.0000 0.34140  0.84390  0.99220  Biso   1.000  C
  H83      1.0000 0.35630  0.79700  0.96780  Biso   1.000  H
  H84      1.0000 0.36050  0.89750  0.98940  Biso   1.000  H
  H85      1.0000 0.30700  0.85310  0.97020  Biso   1.000  H
  S3       1.0000 0.49633  0.62185  0.04891  Biso   1.000  S
  C81      1.0000 0.52870  0.55060  0.11230  Biso   1.000  C
  C82      1.0000 0.50315  0.49670  0.15260  Biso   1.000  C
  C83      1.0000 0.53024  0.43670  0.19790  Biso   1.000  C
  C84      1.0000 0.58090  0.42830  0.19880  Biso   1.000  C
  H86      1.0000 0.59870  0.38750  0.22980  Biso   1.000  H
  C85      1.0000 0.60676  0.47820  0.15540  Biso   1.000  C
  C86      1.0000 0.57995  0.54120  0.11430  Biso   1.000  C
  H87      1.0000 0.59700  0.57900  0.08680  Biso   1.000  H
  O6       1.0000 0.45197  0.50090  0.14770  Biso   1.000  O
  C87      1.0000 0.42954  0.43760  0.09830  Biso   1.000  C
  H88      1.0000 0.44060  0.37870  0.11410  Biso   1.000  H
  H89      1.0000 0.44020  0.44810  0.05200  Biso   1.000  H
  C88      1.0000 0.37390  0.44310  0.09180  Biso   1.000  C
  C89      1.0000 0.34627  0.37260  0.06570  Biso   1.000  C
  H90      1.0000 0.36350  0.32070  0.05750  Biso   1.000  H
  N6       1.0000 0.29624  0.37240  0.05090  Biso   1.000  N
  C90      1.0000 0.27268  0.44490  0.06600  Biso   1.000  C
  H91      1.0000 0.23740  0.44660  0.05580  Biso   1.000  H
  C91      1.0000 0.29710  0.51680  0.09550  Biso   1.000  C
  H92      1.0000 0.27890  0.56600  0.10740  Biso   1.000  H
  C92      1.0000 0.34870  0.51680  0.10780  Biso   1.000  C
  H93      1.0000 0.36640  0.56660  0.12680  Biso   1.000  H
  C93      1.0000 0.66210  0.46240  0.15190  Biso   1.000  C
  C94      1.0000 0.66500  0.39070  0.09750  Biso   1.000  C
  H94      1.0000 0.64660  0.40870  0.05240  Biso   1.000  H
  H95      1.0000 0.65050  0.33710  0.11320  Biso   1.000  H
  H96      1.0000 0.69990  0.38040  0.09220  Biso   1.000  H
  C95      1.0000 0.68850  0.42540  0.21680  Biso   1.000  C
  H97      1.0000 0.67450  0.36820  0.22500  Biso   1.000  H
  H98      1.0000 0.68480  0.46400  0.25610  Biso   1.000  H
  H99      1.0000 0.72390  0.41920  0.21250  Biso   1.000  H
  C96      1.0000 0.68790  0.53770  0.12400  Biso   1.000  C
  H100     1.0000 0.67990  0.59110  0.14790  Biso   1.000  H
  H101     1.0000 0.67690  0.54350  0.07360  Biso   1.000  H
  H102     1.0000 0.72390  0.52810  0.13230  Biso   1.000  H
  Br4      1.0000 0.31612  0.14376  0.07664  Biso   1.000  Br
  C97      1.0000 0.96982  0.31350  0.18370  Biso   1.000  C
  C98      1.0000 0.99462  0.24910  0.15130  Biso   1.000  C
  C99      1.0000 0.96786  0.20080  0.09730  Biso   1.000  C
  C100     1.0000 0.91851  0.22260  0.07250  Biso   1.000  C
  H103     1.0000 0.90070  0.18950  0.03550  Biso   1.000  H
  C101     1.0000 0.89494  0.29210  0.10090  Biso   1.000  C
  C102     1.0000 0.92057  0.33440  0.15750  Biso   1.000  C
  H104     1.0000 0.90440  0.37920  0.17960  Biso   1.000  H
  O7       1.0000 0.04491  0.23590  0.17010  Biso   1.000  O
  C103     1.0000 0.07112  0.29220  0.12690  Biso   1.000  C
  H105     1.0000 0.06400  0.35380  0.13650  Biso   1.000  H
  H106     1.0000 0.05960  0.28070  0.07670  Biso   1.000  H
  C104     1.0000 0.12627  0.27560  0.14300  Biso   1.000  C
  C105     1.0000 0.15391  0.27470  0.08840  Biso   1.000  C
  H107     1.0000 0.13700  0.28060  0.04200  Biso   1.000  H
  N7       1.0000 0.20373  0.26570  0.09730  Biso   1.000  N
  C106     1.0000 0.22670  0.25680  0.16240  Biso   1.000  C
  H108     1.0000 0.26180  0.25030  0.16970  Biso   1.000  H
  C107     1.0000 0.20180  0.25660  0.21980  Biso   1.000  C
  H109     1.0000 0.21950  0.25080  0.26570  Biso   1.000  H
  C108     1.0000 0.15030  0.26480  0.20960  Biso   1.000  C
  H110     1.0000 0.13220  0.26290  0.24830  Biso   1.000  H
  C109     1.0000 0.84190  0.31880  0.06950  Biso   1.000  C
  C110     1.0000 0.80670  0.24300  0.07530  Biso   1.000  C
  H111     1.0000 0.77250  0.26130  0.05870  Biso   1.000  H
  H112     1.0000 0.80920  0.22450  0.12440  Biso   1.000  H
  H113     1.0000 0.81560  0.19450  0.04660  Biso   1.000  H
  C111     1.0000 0.82320  0.39730  0.10810  Biso   1.000  C
  H114     1.0000 0.84600  0.44630  0.10630  Biso   1.000  H
  H115     1.0000 0.82180  0.38170  0.15700  Biso   1.000  H
  H116     1.0000 0.79000  0.41370  0.08530  Biso   1.000  H
  C112     1.0000 0.84140  0.34390  0.99220  Biso   1.000  C
  H117     1.0000 0.85630  0.29700  0.96780  Biso   1.000  H
  H118     1.0000 0.86050  0.39750  0.98940  Biso   1.000  H
  H119     1.0000 0.80700  0.35310  0.97020  Biso   1.000  H
  S4       1.0000 0.99633  0.12185  0.04891  Biso   1.000  S
  C113     1.0000 0.02870  0.05060  0.11230  Biso   1.000  C
  C114     1.0000 0.00315  0.99670  0.15260  Biso   1.000  C
  C115     1.0000 0.03024  0.93670  0.19790  Biso   1.000  C
  C116     1.0000 0.08090  0.92830  0.19880  Biso   1.000  C
  H120     1.0000 0.09870  0.88750  0.22980  Biso   1.000  H
  C117     1.0000 0.10676  0.97820  0.15540  Biso   1.000  C
  C118     1.0000 0.07995  0.04120  0.11430  Biso   1.000  C
  H121     1.0000 0.09700  0.07900  0.08680  Biso   1.000  H
  O8       1.0000 0.95197  0.00090  0.14770  Biso   1.000  O
  C119     1.0000 0.92954  0.93760  0.09830  Biso   1.000  C
  H122     1.0000 0.94060  0.87870  0.11410  Biso   1.000  H
  H123     1.0000 0.94020  0.94810  0.05200  Biso   1.000  H
  C120     1.0000 0.87390  0.94310  0.09180  Biso   1.000  C
  C121     1.0000 0.84627  0.87260  0.06570  Biso   1.000  C
  H124     1.0000 0.86350  0.82070  0.05750  Biso   1.000  H
  N8       1.0000 0.79624  0.87240  0.05090  Biso   1.000  N
  C122     1.0000 0.77268  0.94490  0.06600  Biso   1.000  C
  H125     1.0000 0.73740  0.94660  0.05580  Biso   1.000  H
  C123     1.0000 0.79710  0.01680  0.09550  Biso   1.000  C
  H126     1.0000 0.77890  0.06600  0.10740  Biso   1.000  H
  C124     1.0000 0.84870  0.01680  0.10780  Biso   1.000  C
  H127     1.0000 0.86640  0.06660  0.12680  Biso   1.000  H
  C125     1.0000 0.16210  0.96240  0.15190  Biso   1.000  C
  C126     1.0000 0.16500  0.89070  0.09750  Biso   1.000  C
  H128     1.0000 0.14660  0.90870  0.05240  Biso   1.000  H
  H129     1.0000 0.15050  0.83710  0.11320  Biso   1.000  H
  H130     1.0000 0.19990  0.88040  0.09220  Biso   1.000  H
  C127     1.0000 0.18850  0.92540  0.21680  Biso   1.000  C
  H131     1.0000 0.17450  0.86820  0.22500  Biso   1.000  H
  H132     1.0000 0.18480  0.96400  0.25610  Biso   1.000  H
  H133     1.0000 0.22390  0.91920  0.21250  Biso   1.000  H
  C128     1.0000 0.18790  0.03770  0.12400  Biso   1.000  C
  H134     1.0000 0.17990  0.09110  0.14790  Biso   1.000  H
  H135     1.0000 0.17690  0.04350  0.07360  Biso   1.000  H
  H136     1.0000 0.22390  0.02810  0.13230  Biso   1.000  H
  Br5      1.0000 0.81612  0.35624  0.57664  Biso   1.000  Br
  C129     1.0000 0.46982  0.18650  0.68370  Biso   1.000  C
  C130     1.0000 0.49462  0.25090  0.65130  Biso   1.000  C
  C131     1.0000 0.46786  0.29920  0.59730  Biso   1.000  C
  C132     1.0000 0.41851  0.27740  0.57250  Biso   1.000  C
  H137     1.0000 0.40070  0.31050  0.53550  Biso   1.000  H
  C133     1.0000 0.39494  0.20790  0.60090  Biso   1.000  C
  C134     1.0000 0.42057  0.16560  0.65750  Biso   1.000  C
  H138     1.0000 0.40440  0.12080  0.67960  Biso   1.000  H
  O9       1.0000 0.54491  0.26410  0.67010  Biso   1.000  O
  C135     1.0000 0.57112  0.20780  0.62690  Biso   1.000  C
  H139     1.0000 0.56400  0.14620  0.63650  Biso   1.000  H
  H140     1.0000 0.55960  0.21930  0.57670  Biso   1.000  H
  C136     1.0000 0.62627  0.22440  0.64300  Biso   1.000  C
  C137     1.0000 0.65391  0.22530  0.58840  Biso   1.000  C
  H141     1.0000 0.63700  0.21940  0.54200  Biso   1.000  H
  N9       1.0000 0.70373  0.23430  0.59730  Biso   1.000  N
  C138     1.0000 0.72670  0.24320  0.66240  Biso   1.000  C
  H142     1.0000 0.76180  0.24970  0.66970  Biso   1.000  H
  C139     1.0000 0.70180  0.24340  0.71980  Biso   1.000  C
  H143     1.0000 0.71950  0.24920  0.76570  Biso   1.000  H
  C140     1.0000 0.65030  0.23520  0.70960  Biso   1.000  C
  H144     1.0000 0.63220  0.23710  0.74830  Biso   1.000  H
  C141     1.0000 0.34190  0.18120  0.56950  Biso   1.000  C
  C142     1.0000 0.30670  0.25700  0.57530  Biso   1.000  C
  H145     1.0000 0.27250  0.23870  0.55870  Biso   1.000  H
  H146     1.0000 0.30920  0.27550  0.62440  Biso   1.000  H
  H147     1.0000 0.31560  0.30550  0.54660  Biso   1.000  H
  C143     1.0000 0.32320  0.10270  0.60810  Biso   1.000  C
  H148     1.0000 0.34600  0.05370  0.60630  Biso   1.000  H
  H149     1.0000 0.32180  0.11830  0.65700  Biso   1.000  H
  H150     1.0000 0.29000  0.08630  0.58530  Biso   1.000  H
  C144     1.0000 0.34140  0.15610  0.49220  Biso   1.000  C
  H151     1.0000 0.35630  0.20300  0.46780  Biso   1.000  H
  H152     1.0000 0.36050  0.10250  0.48940  Biso   1.000  H
  H153     1.0000 0.30700  0.14690  0.47020  Biso   1.000  H
  S5       1.0000 0.49633  0.37815  0.54891  Biso   1.000  S
  C145     1.0000 0.52870  0.44940  0.61230  Biso   1.000  C
  C146     1.0000 0.50315  0.50330  0.65260  Biso   1.000  C
  C147     1.0000 0.53024  0.56330  0.69790  Biso   1.000  C
  C148     1.0000 0.58090  0.57170  0.69880  Biso   1.000  C
  H154     1.0000 0.59870  0.61250  0.72980  Biso   1.000  H
  C149     1.0000 0.60676  0.52180  0.65540  Biso   1.000  C
  C150     1.0000 0.57995  0.45880  0.61430  Biso   1.000  C
  H155     1.0000 0.59700  0.42100  0.58680  Biso   1.000  H
  O10      1.0000 0.45197  0.49910  0.64770  Biso   1.000  O
  C151     1.0000 0.42954  0.56240  0.59830  Biso   1.000  C
  H156     1.0000 0.44060  0.62130  0.61410  Biso   1.000  H
  H157     1.0000 0.44020  0.55190  0.55200  Biso   1.000  H
  C152     1.0000 0.37390  0.55690  0.59180  Biso   1.000  C
  C153     1.0000 0.34627  0.62740  0.56570  Biso   1.000  C
  H158     1.0000 0.36350  0.67930  0.55750  Biso   1.000  H
  N10      1.0000 0.29624  0.62760  0.55090  Biso   1.000  N
  C154     1.0000 0.27268  0.55510  0.56600  Biso   1.000  C
  H159     1.0000 0.23740  0.55340  0.55580  Biso   1.000  H
  C155     1.0000 0.29710  0.48320  0.59550  Biso   1.000  C
  H160     1.0000 0.27890  0.43400  0.60740  Biso   1.000  H
  C156     1.0000 0.34870  0.48320  0.60780  Biso   1.000  C
  H161     1.0000 0.36640  0.43340  0.62680  Biso   1.000  H
  C157     1.0000 0.66210  0.53760  0.65190  Biso   1.000  C
  C158     1.0000 0.66500  0.60930  0.59750  Biso   1.000  C
  H162     1.0000 0.64660  0.59130  0.55240  Biso   1.000  H
  H163     1.0000 0.65050  0.66290  0.61320  Biso   1.000  H
  H164     1.0000 0.69990  0.61960  0.59220  Biso   1.000  H
  C159     1.0000 0.68850  0.57460  0.71680  Biso   1.000  C
  H165     1.0000 0.67450  0.63180  0.72500  Biso   1.000  H
  H166     1.0000 0.68480  0.53600  0.75610  Biso   1.000  H
  H167     1.0000 0.72390  0.58080  0.71250  Biso   1.000  H
  C160     1.0000 0.68790  0.46230  0.62400  Biso   1.000  C
  H168     1.0000 0.67990  0.40890  0.64790  Biso   1.000  H
  H169     1.0000 0.67690  0.45650  0.57360  Biso   1.000  H
  H170     1.0000 0.72390  0.47190  0.63230  Biso   1.000  H
  Br6      1.0000 0.31612  0.85624  0.57664  Biso   1.000  Br
  C161     1.0000 0.96982  0.68650  0.68370  Biso   1.000  C
  C162     1.0000 0.99462  0.75090  0.65130  Biso   1.000  C
  C163     1.0000 0.96786  0.79920  0.59730  Biso   1.000  C
  C164     1.0000 0.91851  0.77740  0.57250  Biso   1.000  C
  H171     1.0000 0.90070  0.81050  0.53550  Biso   1.000  H
  C165     1.0000 0.89494  0.70790  0.60090  Biso   1.000  C
  C166     1.0000 0.92057  0.66560  0.65750  Biso   1.000  C
  H172     1.0000 0.90440  0.62080  0.67960  Biso   1.000  H
  O11      1.0000 0.04491  0.76410  0.67010  Biso   1.000  O
  C167     1.0000 0.07112  0.70780  0.62690  Biso   1.000  C
  H173     1.0000 0.06400  0.64620  0.63650  Biso   1.000  H
  H174     1.0000 0.05960  0.71930  0.57670  Biso   1.000  H
  C168     1.0000 0.12627  0.72440  0.64300  Biso   1.000  C
  C169     1.0000 0.15391  0.72530  0.58840  Biso   1.000  C
  H175     1.0000 0.13700  0.71940  0.54200  Biso   1.000  H
  N11      1.0000 0.20373  0.73430  0.59730  Biso   1.000  N
  C170     1.0000 0.22670  0.74320  0.66240  Biso   1.000  C
  H176     1.0000 0.26180  0.74970  0.66970  Biso   1.000  H
  C171     1.0000 0.20180  0.74340  0.71980  Biso   1.000  C
  H177     1.0000 0.21950  0.74920  0.76570  Biso   1.000  H
  C172     1.0000 0.15030  0.73520  0.70960  Biso   1.000  C
  H178     1.0000 0.13220  0.73710  0.74830  Biso   1.000  H
  C173     1.0000 0.84190  0.68120  0.56950  Biso   1.000  C
  C174     1.0000 0.80670  0.75700  0.57530  Biso   1.000  C
  H179     1.0000 0.77250  0.73870  0.55870  Biso   1.000  H
  H180     1.0000 0.80920  0.77550  0.62440  Biso   1.000  H
  H181     1.0000 0.81560  0.80550  0.54660  Biso   1.000  H
  C175     1.0000 0.82320  0.60270  0.60810  Biso   1.000  C
  H182     1.0000 0.84600  0.55370  0.60630  Biso   1.000  H
  H183     1.0000 0.82180  0.61830  0.65700  Biso   1.000  H
  H184     1.0000 0.79000  0.58630  0.58530  Biso   1.000  H
  C176     1.0000 0.84140  0.65610  0.49220  Biso   1.000  C
  H185     1.0000 0.85630  0.70300  0.46780  Biso   1.000  H
  H186     1.0000 0.86050  0.60250  0.48940  Biso   1.000  H
  H187     1.0000 0.80700  0.64690  0.47020  Biso   1.000  H
  S6       1.0000 0.99633  0.87815  0.54891  Biso   1.000  S
  C177     1.0000 0.02870  0.94940  0.61230  Biso   1.000  C
  C178     1.0000 0.00315  0.00330  0.65260  Biso   1.000  C
  C179     1.0000 0.03024  0.06330  0.69790  Biso   1.000  C
  C180     1.0000 0.08090  0.07170  0.69880  Biso   1.000  C
  H188     1.0000 0.09870  0.11250  0.72980  Biso   1.000  H
  C181     1.0000 0.10676  0.02180  0.65540  Biso   1.000  C
  C182     1.0000 0.07995  0.95880  0.61430  Biso   1.000  C
  H189     1.0000 0.09700  0.92100  0.58680  Biso   1.000  H
  O12      1.0000 0.95197  0.99910  0.64770  Biso   1.000  O
  C183     1.0000 0.92954  0.06240  0.59830  Biso   1.000  C
  H190     1.0000 0.94060  0.12130  0.61410  Biso   1.000  H
  H191     1.0000 0.94020  0.05190  0.55200  Biso   1.000  H
  C184     1.0000 0.87390  0.05690  0.59180  Biso   1.000  C
  C185     1.0000 0.84627  0.12740  0.56570  Biso   1.000  C
  H192     1.0000 0.86350  0.17930  0.55750  Biso   1.000  H
  N12      1.0000 0.79624  0.12760  0.55090  Biso   1.000  N
  C186     1.0000 0.77268  0.05510  0.56600  Biso   1.000  C
  H193     1.0000 0.73740  0.05340  0.55580  Biso   1.000  H
  C187     1.0000 0.79710  0.98320  0.59550  Biso   1.000  C
  H194     1.0000 0.77890  0.93400  0.60740  Biso   1.000  H
  C188     1.0000 0.84870  0.98320  0.60780  Biso   1.000  C
  H195     1.0000 0.86640  0.93340  0.62680  Biso   1.000  H
  C189     1.0000 0.16210  0.03760  0.65190  Biso   1.000  C
  C190     1.0000 0.16500  0.10930  0.59750  Biso   1.000  C
  H196     1.0000 0.14660  0.09130  0.55240  Biso   1.000  H
  H197     1.0000 0.15050  0.16290  0.61320  Biso   1.000  H
  H198     1.0000 0.19990  0.11960  0.59220  Biso   1.000  H
  C191     1.0000 0.18850  0.07460  0.71680  Biso   1.000  C
  H199     1.0000 0.17450  0.13180  0.72500  Biso   1.000  H
  H200     1.0000 0.18480  0.03600  0.75610  Biso   1.000  H
  H201     1.0000 0.22390  0.08080  0.71250  Biso   1.000  H
  C192     1.0000 0.18790  0.96230  0.62400  Biso   1.000  C
  H202     1.0000 0.17990  0.90890  0.64790  Biso   1.000  H
  H203     1.0000 0.17690  0.95650  0.57360  Biso   1.000  H
  H204     1.0000 0.22390  0.97190  0.63230  Biso   1.000  H
  Br7      1.0000 0.18388  0.35624  0.92336  Biso   1.000  Br
  C193     1.0000 0.53018  0.18650  0.81630  Biso   1.000  C
  C194     1.0000 0.50538  0.25090  0.84870  Biso   1.000  C
  C195     1.0000 0.53214  0.29920  0.90270  Biso   1.000  C
  C196     1.0000 0.58149  0.27740  0.92750  Biso   1.000  C
  H205     1.0000 0.59930  0.31050  0.96450  Biso   1.000  H
  C197     1.0000 0.60506  0.20790  0.89910  Biso   1.000  C
  C198     1.0000 0.57943  0.16560  0.84250  Biso   1.000  C
  H206     1.0000 0.59560  0.12080  0.82040  Biso   1.000  H
  O13      1.0000 0.45509  0.26410  0.82990  Biso   1.000  O
  C199     1.0000 0.42888  0.20780  0.87310  Biso   1.000  C
  H207     1.0000 0.43600  0.14620  0.86350  Biso   1.000  H
  H208     1.0000 0.44040  0.21930  0.92330  Biso   1.000  H
  C200     1.0000 0.37373  0.22440  0.85700  Biso   1.000  C
  C201     1.0000 0.34609  0.22530  0.91160  Biso   1.000  C
  H209     1.0000 0.36300  0.21940  0.95800  Biso   1.000  H
  N13      1.0000 0.29627  0.23430  0.90270  Biso   1.000  N
  C202     1.0000 0.27330  0.24320  0.83760  Biso   1.000  C
  H210     1.0000 0.23820  0.24970  0.83030  Biso   1.000  H
  C203     1.0000 0.29820  0.24340  0.78020  Biso   1.000  C
  H211     1.0000 0.28050  0.24920  0.73430  Biso   1.000  H
  C204     1.0000 0.34970  0.23520  0.79040  Biso   1.000  C
  H212     1.0000 0.36780  0.23710  0.75170  Biso   1.000  H
  C205     1.0000 0.65810  0.18120  0.93050  Biso   1.000  C
  C206     1.0000 0.69330  0.25700  0.92470  Biso   1.000  C
  H213     1.0000 0.72750  0.23870  0.94130  Biso   1.000  H
  H214     1.0000 0.69080  0.27550  0.87560  Biso   1.000  H
  H215     1.0000 0.68440  0.30550  0.95340  Biso   1.000  H
  C207     1.0000 0.67680  0.10270  0.89190  Biso   1.000  C
  H216     1.0000 0.65400  0.05370  0.89370  Biso   1.000  H
  H217     1.0000 0.67820  0.11830  0.84300  Biso   1.000  H
  H218     1.0000 0.71000  0.08630  0.91470  Biso   1.000  H
  C208     1.0000 0.65860  0.15610  0.00780  Biso   1.000  C
  H219     1.0000 0.64370  0.20300  0.03220  Biso   1.000  H
  H220     1.0000 0.63950  0.10250  0.01060  Biso   1.000  H
  H221     1.0000 0.69300  0.14690  0.02980  Biso   1.000  H
  S7       1.0000 0.50367  0.37815  0.95109  Biso   1.000  S
  C209     1.0000 0.47130  0.44940  0.88770  Biso   1.000  C
  C210     1.0000 0.49685  0.50330  0.84740  Biso   1.000  C
  C211     1.0000 0.46976  0.56330  0.80210  Biso   1.000  C
  C212     1.0000 0.41910  0.57170  0.80120  Biso   1.000  C
  H222     1.0000 0.40130  0.61250  0.77020  Biso   1.000  H
  C213     1.0000 0.39324  0.52180  0.84460  Biso   1.000  C
  C214     1.0000 0.42005  0.45880  0.88570  Biso   1.000  C
  H223     1.0000 0.40300  0.42100  0.91320  Biso   1.000  H
  O14      1.0000 0.54803  0.49910  0.85230  Biso   1.000  O
  C215     1.0000 0.57046  0.56240  0.90170  Biso   1.000  C
  H224     1.0000 0.55940  0.62130  0.88590  Biso   1.000  H
  H225     1.0000 0.55980  0.55190  0.94800  Biso   1.000  H
  C216     1.0000 0.62610  0.55690  0.90820  Biso   1.000  C
  C217     1.0000 0.65373  0.62740  0.93430  Biso   1.000  C
  H226     1.0000 0.63650  0.67930  0.94250  Biso   1.000  H
  N14      1.0000 0.70376  0.62760  0.94910  Biso   1.000  N
  C218     1.0000 0.72732  0.55510  0.93400  Biso   1.000  C
  H227     1.0000 0.76260  0.55340  0.94420  Biso   1.000  H
  C219     1.0000 0.70290  0.48320  0.90450  Biso   1.000  C
  H228     1.0000 0.72110  0.43400  0.89260  Biso   1.000  H
  C220     1.0000 0.65130  0.48320  0.89220  Biso   1.000  C
  H229     1.0000 0.63360  0.43340  0.87320  Biso   1.000  H
  C221     1.0000 0.33790  0.53760  0.84810  Biso   1.000  C
  C222     1.0000 0.33500  0.60930  0.90250  Biso   1.000  C
  H230     1.0000 0.35340  0.59130  0.94760  Biso   1.000  H
  H231     1.0000 0.34950  0.66290  0.88680  Biso   1.000  H
  H232     1.0000 0.30010  0.61960  0.90780  Biso   1.000  H
  C223     1.0000 0.31150  0.57460  0.78320  Biso   1.000  C
  H233     1.0000 0.32550  0.63180  0.77500  Biso   1.000  H
  H234     1.0000 0.31520  0.53600  0.74390  Biso   1.000  H
  H235     1.0000 0.27610  0.58080  0.78750  Biso   1.000  H
  C224     1.0000 0.31210  0.46230  0.87600  Biso   1.000  C
  H236     1.0000 0.32010  0.40890  0.85210  Biso   1.000  H
  H237     1.0000 0.32310  0.45650  0.92640  Biso   1.000  H
  H238     1.0000 0.27610  0.47190  0.86770  Biso   1.000  H
  Br8      1.0000 0.68388  0.85624  0.92336  Biso   1.000  Br
  C225     1.0000 0.03018  0.68650  0.81630  Biso   1.000  C
  C226     1.0000 0.00538  0.75090  0.84870  Biso   1.000  C
  C227     1.0000 0.03214  0.79920  0.90270  Biso   1.000  C
  C228     1.0000 0.08149  0.77740  0.92750  Biso   1.000  C
  H239     1.0000 0.09930  0.81050  0.96450  Biso   1.000  H
  C229     1.0000 0.10506  0.70790  0.89910  Biso   1.000  C
  C230     1.0000 0.07943  0.66560  0.84250  Biso   1.000  C
  H240     1.0000 0.09560  0.62080  0.82040  Biso   1.000  H
  O15      1.0000 0.95509  0.76410  0.82990  Biso   1.000  O
  C231     1.0000 0.92888  0.70780  0.87310  Biso   1.000  C
  H241     1.0000 0.93600  0.64620  0.86350  Biso   1.000  H
  H242     1.0000 0.94040  0.71930  0.92330  Biso   1.000  H
  C232     1.0000 0.87373  0.72440  0.85700  Biso   1.000  C
  C233     1.0000 0.84609  0.72530  0.91160  Biso   1.000  C
  H243     1.0000 0.86300  0.71940  0.95800  Biso   1.000  H
  N15      1.0000 0.79627  0.73430  0.90270  Biso   1.000  N
  C234     1.0000 0.77330  0.74320  0.83760  Biso   1.000  C
  H244     1.0000 0.73820  0.74970  0.83030  Biso   1.000  H
  C235     1.0000 0.79820  0.74340  0.78020  Biso   1.000  C
  H245     1.0000 0.78050  0.74920  0.73430  Biso   1.000  H
  C236     1.0000 0.84970  0.73520  0.79040  Biso   1.000  C
  H246     1.0000 0.86780  0.73710  0.75170  Biso   1.000  H
  C237     1.0000 0.15810  0.68120  0.93050  Biso   1.000  C
  C238     1.0000 0.19330  0.75700  0.92470  Biso   1.000  C
  H247     1.0000 0.22750  0.73870  0.94130  Biso   1.000  H
  H248     1.0000 0.19080  0.77550  0.87560  Biso   1.000  H
  H249     1.0000 0.18440  0.80550  0.95340  Biso   1.000  H
  C239     1.0000 0.17680  0.60270  0.89190  Biso   1.000  C
  H250     1.0000 0.15400  0.55370  0.89370  Biso   1.000  H
  H251     1.0000 0.17820  0.61830  0.84300  Biso   1.000  H
  H252     1.0000 0.21000  0.58630  0.91470  Biso   1.000  H
  C240     1.0000 0.15860  0.65610  0.00780  Biso   1.000  C
  H253     1.0000 0.14370  0.70300  0.03220  Biso   1.000  H
  H254     1.0000 0.13950  0.60250  0.01060  Biso   1.000  H
  H255     1.0000 0.19300  0.64690  0.02980  Biso   1.000  H
  S8       1.0000 0.00367  0.87815  0.95109  Biso   1.000  S
  C241     1.0000 0.97130  0.94940  0.88770  Biso   1.000  C
  C242     1.0000 0.99685  0.00330  0.84740  Biso   1.000  C
  C243     1.0000 0.96976  0.06330  0.80210  Biso   1.000  C
  C244     1.0000 0.91910  0.07170  0.80120  Biso   1.000  C
  H256     1.0000 0.90130  0.11250  0.77020  Biso   1.000  H
  C245     1.0000 0.89324  0.02180  0.84460  Biso   1.000  C
  C246     1.0000 0.92005  0.95880  0.88570  Biso   1.000  C
  H257     1.0000 0.90300  0.92100  0.91320  Biso   1.000  H
  O16      1.0000 0.04803  0.99910  0.85230  Biso   1.000  O
  C247     1.0000 0.07046  0.06240  0.90170  Biso   1.000  C
  H258     1.0000 0.05940  0.12130  0.88590  Biso   1.000  H
  H259     1.0000 0.05980  0.05190  0.94800  Biso   1.000  H
  C248     1.0000 0.12610  0.05690  0.90820  Biso   1.000  C
  C249     1.0000 0.15373  0.12740  0.93430  Biso   1.000  C
  H260     1.0000 0.13650  0.17930  0.94250  Biso   1.000  H
  N16      1.0000 0.20376  0.12760  0.94910  Biso   1.000  N
  C250     1.0000 0.22732  0.05510  0.93400  Biso   1.000  C
  H261     1.0000 0.26260  0.05340  0.94420  Biso   1.000  H
  C251     1.0000 0.20290  0.98320  0.90450  Biso   1.000  C
  H262     1.0000 0.22110  0.93400  0.89260  Biso   1.000  H
  C252     1.0000 0.15130  0.98320  0.89220  Biso   1.000  C
  H263     1.0000 0.13360  0.93340  0.87320  Biso   1.000  H
  C253     1.0000 0.83790  0.03760  0.84810  Biso   1.000  C
  C254     1.0000 0.83500  0.10930  0.90250  Biso   1.000  C
  H264     1.0000 0.85340  0.09130  0.94760  Biso   1.000  H
  H265     1.0000 0.84950  0.16290  0.88680  Biso   1.000  H
  H266     1.0000 0.80010  0.11960  0.90780  Biso   1.000  H
  C255     1.0000 0.81150  0.07460  0.78320  Biso   1.000  C
  H267     1.0000 0.82550  0.13180  0.77500  Biso   1.000  H
  H268     1.0000 0.81520  0.03600  0.74390  Biso   1.000  H
  H269     1.0000 0.77610  0.08080  0.78750  Biso   1.000  H
  C256     1.0000 0.81210  0.96230  0.87600  Biso   1.000  C
  H270     1.0000 0.82010  0.90890  0.85210  Biso   1.000  H
  H271     1.0000 0.82310  0.95650  0.92640  Biso   1.000  H
  H272     1.0000 0.77610  0.97190  0.86770  Biso   1.000  H
  Cd1      1.0000 0.25000  0.75000  0.50000  Biso   1.000  Cd
  Cd2      1.0000 0.75000  0.75000  0.00000  Biso   1.000  Cd
  Cd3      1.0000 0.75000  0.25000  0.50000  Biso   1.000  Cd
  Cd4      1.0000 0.25000  0.25000  0.00000  Biso   1.000  Cd
  S9       1.0000 0.50000  0.88248  0.25000  Biso   1.000  S
  S10      1.0000 0.50000  0.36429  0.25000  Biso   1.000  S
  S11      1.0000 0.00000  0.38248  0.25000  Biso   1.000  S
  S12      1.0000 0.00000  0.86429  0.25000  Biso   1.000  S
  S13      1.0000 0.50000  0.11752  0.75000  Biso   1.000  S
  S14      1.0000 0.50000  0.63571  0.75000  Biso   1.000  S
  S15      1.0000 0.00000  0.61752  0.75000  Biso   1.000  S
  S16      1.0000 0.00000  0.13571  0.75000  Biso   1.000  S
