data_NODTIL_clean
_audit_creation_date              2015-08-20
_audit_creation_method            'Materials Studio'
_symmetry_space_group_name_H-M    'P1'
_symmetry_Int_Tables_number       1
_symmetry_cell_setting            triclinic
loop_
_symmetry_equiv_pos_as_xyz
  x,y,z
_cell_length_a                    18.0449
_cell_length_b                    18.0449
_cell_length_c                    18.0449
_cell_angle_alpha                 60.0000
_cell_angle_beta                  60.0000
_cell_angle_gamma                 60.0000
loop_
_atom_site_label
_atom_site_type_symbol
_atom_site_fract_x
_atom_site_fract_y
_atom_site_fract_z
_atom_site_U_iso_or_equiv
_atom_site_adp_type
_atom_site_occupancy
Zn1    Zn    0.38137   0.20621   0.20621   0.01267  Uiso   1.00
Zn2    Zn    0.20621   0.38137   0.20621   0.01267  Uiso   1.00
Zn3    Zn    0.20621   0.20621   0.38137   0.01267  Uiso   1.00
Zn4    Zn    0.20621   0.20621   0.20621   0.01267  Uiso   1.00
Zn5    Zn    0.79379   0.61863   0.79379   0.01267  Uiso   1.00
Zn6    Zn    0.61863   0.79379   0.79379   0.01267  Uiso   1.00
Zn7    Zn    0.79379   0.79379   0.61863   0.01267  Uiso   1.00
Zn8    Zn    0.79379   0.79379   0.79379   0.01267  Uiso   1.00
C9     C     0.53160   0.41760   0.02540   0.01267  Uiso   1.00
C10    C     0.41760   0.53160   0.02540   0.01267  Uiso   1.00
C11    C     0.02540   0.02540   0.53160   0.01267  Uiso   1.00
C12    C     0.02540   0.02540   0.41760   0.01267  Uiso   1.00
C13    C     0.53160   0.02540   0.02540   0.01267  Uiso   1.00
C14    C     0.41760   0.02540   0.02540   0.01267  Uiso   1.00
C15    C     0.02540   0.53160   0.41760   0.01267  Uiso   1.00
C16    C     0.02540   0.41760   0.53160   0.01267  Uiso   1.00
C17    C     0.53160   0.02540   0.41760   0.01267  Uiso   1.00
C18    C     0.41760   0.02540   0.53160   0.01267  Uiso   1.00
C19    C     0.02540   0.41760   0.02540   0.01267  Uiso   1.00
C20    C     0.02540   0.53160   0.02540   0.01267  Uiso   1.00
C21    C     0.58240   0.46840   0.97460   0.01267  Uiso   1.00
C22    C     0.46840   0.58240   0.97460   0.01267  Uiso   1.00
C23    C     0.97460   0.97460   0.46840   0.01267  Uiso   1.00
C24    C     0.97460   0.97460   0.58240   0.01267  Uiso   1.00
C25    C     0.97460   0.46840   0.97460   0.01267  Uiso   1.00
C26    C     0.97460   0.58240   0.97460   0.01267  Uiso   1.00
C27    C     0.46840   0.97460   0.58240   0.01267  Uiso   1.00
C28    C     0.58240   0.97460   0.46840   0.01267  Uiso   1.00
C29    C     0.97460   0.46840   0.58240   0.01267  Uiso   1.00
C30    C     0.97460   0.58240   0.46840   0.01267  Uiso   1.00
C31    C     0.58240   0.97460   0.97460   0.01267  Uiso   1.00
C32    C     0.46840   0.97460   0.97460   0.01267  Uiso   1.00
C33    C     0.44560   0.44560   0.05440   0.01267  Uiso   1.00
C34    C     0.38970   0.38970   0.11030   0.01267  Uiso   1.00
C35    C     0.05440   0.05440   0.44560   0.01267  Uiso   1.00
C36    C     0.11030   0.11030   0.38970   0.01267  Uiso   1.00
C37    C     0.44560   0.05440   0.05440   0.01267  Uiso   1.00
C38    C     0.38970   0.11030   0.11030   0.01267  Uiso   1.00
C39    C     0.05440   0.44560   0.44560   0.01267  Uiso   1.00
C40    C     0.11030   0.38970   0.38970   0.01267  Uiso   1.00
C41    C     0.44560   0.05440   0.44560   0.01267  Uiso   1.00
C42    C     0.38970   0.11030   0.38970   0.01267  Uiso   1.00
C43    C     0.05440   0.44560   0.05440   0.01267  Uiso   1.00
C44    C     0.11030   0.38970   0.11030   0.01267  Uiso   1.00
C45    C     0.55440   0.55440   0.94560   0.01267  Uiso   1.00
C46    C     0.61030   0.61030   0.88970   0.01267  Uiso   1.00
C47    C     0.94560   0.94560   0.55440   0.01267  Uiso   1.00
C48    C     0.88970   0.88970   0.61030   0.01267  Uiso   1.00
C49    C     0.94560   0.55440   0.94560   0.01267  Uiso   1.00
C50    C     0.88970   0.61030   0.88970   0.01267  Uiso   1.00
C51    C     0.55440   0.94560   0.55440   0.01267  Uiso   1.00
C52    C     0.61030   0.88970   0.61030   0.01267  Uiso   1.00
C53    C     0.94560   0.55440   0.55440   0.01267  Uiso   1.00
C54    C     0.88970   0.61030   0.61030   0.01267  Uiso   1.00
C55    C     0.55440   0.94560   0.94560   0.01267  Uiso   1.00
C56    C     0.61030   0.88970   0.88970   0.01267  Uiso   1.00
O57    O     0.25000   0.25000   0.25000   0.01267  Uiso   1.00
O58    O     0.75000   0.75000   0.75000   0.01267  Uiso   1.00
O59    O     0.42550   0.30590   0.13430   0.01267  Uiso   1.00
O60    O     0.30590   0.42550   0.13430   0.01267  Uiso   1.00
O61    O     0.13430   0.13430   0.42550   0.01267  Uiso   1.00
O62    O     0.13430   0.13430   0.30590   0.01267  Uiso   1.00
O63    O     0.42550   0.13430   0.13430   0.01267  Uiso   1.00
O64    O     0.30590   0.13430   0.13430   0.01267  Uiso   1.00
O65    O     0.13430   0.42550   0.30590   0.01267  Uiso   1.00
O66    O     0.13430   0.30590   0.42550   0.01267  Uiso   1.00
O67    O     0.42550   0.13430   0.30590   0.01267  Uiso   1.00
O68    O     0.30590   0.13430   0.42550   0.01267  Uiso   1.00
O69    O     0.13430   0.30590   0.13430   0.01267  Uiso   1.00
O70    O     0.13430   0.42550   0.13430   0.01267  Uiso   1.00
O71    O     0.69410   0.57450   0.86570   0.01267  Uiso   1.00
O72    O     0.57450   0.69410   0.86570   0.01267  Uiso   1.00
O73    O     0.86570   0.86570   0.57450   0.01267  Uiso   1.00
O74    O     0.86570   0.86570   0.69410   0.01267  Uiso   1.00
O75    O     0.86570   0.57450   0.86570   0.01267  Uiso   1.00
O76    O     0.86570   0.69410   0.86570   0.01267  Uiso   1.00
O77    O     0.57450   0.86570   0.69410   0.01267  Uiso   1.00
O78    O     0.69410   0.86570   0.57450   0.01267  Uiso   1.00
O79    O     0.86570   0.57450   0.69410   0.01267  Uiso   1.00
O80    O     0.86570   0.69410   0.57450   0.01267  Uiso   1.00
O81    O     0.69410   0.86570   0.86570   0.01267  Uiso   1.00
O82    O     0.57450   0.86570   0.86570   0.01267  Uiso   1.00
H83    H     0.56398   0.34055   0.04774   0.00000  Uiso   1.00
H84    H     0.34055   0.56398   0.04774   0.00000  Uiso   1.00
H85    H     0.04774   0.04774   0.56398   0.00000  Uiso   1.00
H86    H     0.04774   0.04774   0.34055   0.00000  Uiso   1.00
H87    H     0.34055   0.04774   0.04774   0.00000  Uiso   1.00
H88    H     0.04774   0.56398   0.34055   0.00000  Uiso   1.00
H89    H     0.04774   0.34055   0.56398   0.00000  Uiso   1.00
H90    H     0.56398   0.04774   0.34055   0.00000  Uiso   1.00
H91    H     0.34055   0.04774   0.56398   0.00000  Uiso   1.00
H92    H     0.04774   0.34055   0.04774   0.00000  Uiso   1.00
H93    H     0.04774   0.56398   0.04774   0.00000  Uiso   1.00
H94    H     0.65945   0.43602   0.95226   0.00000  Uiso   1.00
H95    H     0.43602   0.65945   0.95226   0.00000  Uiso   1.00
H96    H     0.95226   0.95226   0.43602   0.00000  Uiso   1.00
H97    H     0.95226   0.95226   0.65945   0.00000  Uiso   1.00
H98    H     0.95226   0.43602   0.95226   0.00000  Uiso   1.00
H99    H     0.95226   0.65945   0.95226   0.00000  Uiso   1.00
H100   H     0.43602   0.95226   0.65945   0.00000  Uiso   1.00
H101   H     0.65945   0.95226   0.43602   0.00000  Uiso   1.00
H102   H     0.95226   0.65945   0.43602   0.00000  Uiso   1.00
H103   H     0.65945   0.95226   0.95226   0.00000  Uiso   1.00
H104   H     0.43602   0.95226   0.95226   0.00000  Uiso   1.00
H105   H     0.95226   0.43602   0.65945   0.00000  Uiso   1.00
H106   H     0.56398   0.04774   0.04774   0.00000  Uiso   1.00
loop_
_geom_bond_atom_site_label_1
_geom_bond_atom_site_label_2
_geom_bond_distance
_geom_bond_site_symmetry_2
_ccdc_geom_bond_type
Zn1    O57     1.936   .     S
Zn1    O59     1.902   .     S
Zn1    O63     1.902   .     S
Zn1    O67     1.902   .     S
Zn2    O57     1.936   .     S
Zn2    O60     1.902   .     S
Zn2    O65     1.902   .     S
Zn2    O70     1.902   .     S
Zn3    O57     1.936   .     S
Zn3    O61     1.902   .     S
Zn3    O66     1.902   .     S
Zn3    O68     1.902   .     S
Zn4    O57     1.936   .     S
Zn4    O62     1.902   .     S
Zn4    O64     1.902   .     S
Zn4    O69     1.902   .     S
Zn5    O58     1.936   .     S
Zn5    O71     1.902   .     S
Zn5    O75     1.902   .     S
Zn5    O79     1.902   .     S
Zn6    O58     1.936   .     S
Zn6    O72     1.902   .     S
Zn6    O77     1.902   .     S
Zn6    O82     1.902   .     S
Zn7    O58     1.936   .     S
Zn7    O73     1.902   .     S
Zn7    O78     1.902   .     S
Zn7    O80     1.902   .     S
Zn8    O58     1.936   .     S
Zn8    O74     1.902   .     S
Zn8    O76     1.902   .     S
Zn8    O81     1.902   .     S
C9     C21     1.296   1_554 A
C9     C33     1.267   .     A
C9     H83     1.140   .     S
C10    C22     1.296   1_554 A
C10    C33     1.267   .     A
C10    H84     1.140   .     S
C11    C24     1.296   1_445 A
C11    C35     1.267   .     A
C11    H85     1.140   .     S
C12    C23     1.296   1_445 A
C12    C35     1.267   .     A
C12    H86     1.140   .     S
C13    C31     1.296   1_544 A
C13    C37     1.267   .     A
C13    H106    1.140   .     S
C14    C32     1.296   1_544 A
C14    C37     1.267   .     S
C14    H87     1.140   .     S
C15    C30     1.296   1_455 A
C15    C39     1.267   .     A
C15    H88     1.140   .     S
C16    C29     1.296   1_455 A
C16    C39     1.267   .     A
C16    H89     1.140   .     S
C17    C28     1.296   1_545 A
C17    C41     1.267   .     A
C17    H90     1.140   .     S
C18    C27     1.296   1_545 A
C18    C41     1.267   .     A
C18    H91     1.140   .     S
C19    C25     1.296   1_454 A
C19    C43     1.267   .     A
C19    H92     1.140   .     S
C20    C26     1.296   1_454 A
C20    C43     1.267   .     A
C20    H93     1.140   .     S
C21    C9      1.296   1_556 A
C21    C45     1.267   .     A
C21    H94     1.140   .     S
C22    C10     1.296   1_556 A
C22    C45     1.267   .     A
C22    H95     1.140   .     S
C23    C12     1.296   1_665 A
C23    C47     1.267   .     A
C23    H96     1.140   .     S
C24    C11     1.296   1_665 A
C24    C47     1.267   .     A
C24    H97     1.140   .     S
C25    C19     1.296   1_656 A
C25    C49     1.267   .     A
C25    H98     1.140   .     S
C26    C20     1.296   1_656 A
C26    C49     1.267   .     A
C26    H99     1.140   .     S
C27    C18     1.296   1_565 A
C27    C51     1.267   .     A
C27    H100    1.140   .     S
C28    C17     1.296   1_565 A
C28    C51     1.267   .     A
C28    H101    1.140   .     S
C29    C16     1.296   1_655 A
C29    C53     1.267   .     A
C29    H105    1.140   .     S
C30    C15     1.296   1_655 A
C30    C53     1.267   .     S
C30    H102    1.140   .     S
C31    C13     1.296   1_566 A
C31    C55     1.267   .     A
C31    H103    1.140   .     S
C32    C14     1.296   1_566 A
C32    C55     1.267   .     A
C32    H104    1.140   .     S
C33    C34     1.427   .     S
C34    O59     1.241   .     A
C34    O60     1.241   .     A
C35    C36     1.427   .     S
C36    O61     1.241   .     A
C36    O62     1.241   .     A
C37    C38     1.427   .     S
C38    O63     1.241   .     A
C38    O64     1.241   .     A
C39    C40     1.427   .     S
C40    O65     1.241   .     A
C40    O66     1.241   .     A
C41    C42     1.427   .     S
C42    O67     1.241   .     A
C42    O68     1.241   .     A
C43    C44     1.427   .     S
C44    O69     1.241   .     A
C44    O70     1.241   .     A
C45    C46     1.427   .     A
C46    O71     1.241   .     A
C46    O72     1.241   .     A
C47    C48     1.427   .     S
C48    O73     1.241   .     A
C48    O74     1.241   .     A
C49    C50     1.427   .     S
C50    O75     1.241   .     A
C50    O76     1.241   .     A
C51    C52     1.427   .     A
C52    O77     1.241   .     A
C52    O78     1.241   .     A
C53    C54     1.427   .     S
C54    O79     1.241   .     A
C54    O80     1.241   .     A
C55    C56     1.427   .     A
C56    O81     1.241   .     A
C56    O82     1.241   .     A
