data_NODTOR_clean
_audit_creation_date              2015-08-20
_audit_creation_method            'Materials Studio'
_symmetry_space_group_name_H-M    'P1'
_symmetry_Int_Tables_number       1
_symmetry_cell_setting            triclinic
loop_
_symmetry_equiv_pos_as_xyz
  x,y,z
_cell_length_a                    18.1499
_cell_length_b                    18.1499
_cell_length_c                    18.1499
_cell_angle_alpha                 90.0009
_cell_angle_beta                  120.0000
_cell_angle_gamma                 119.9990
loop_
_atom_site_label
_atom_site_type_symbol
_atom_site_fract_x
_atom_site_fract_y
_atom_site_fract_z
_atom_site_U_iso_or_equiv
_atom_site_adp_type
_atom_site_occupancy
Zn1    Zn    0.58667   0.70669   0.29331   0.01267  Uiso   1.00
Zn2    Zn    0.58667   0.87998   0.29336   0.01267  Uiso   1.00
Zn3    Zn    0.41333   0.70669   0.29331   0.01267  Uiso   1.00
Zn4    Zn    0.41333   0.70664   0.12002   0.01267  Uiso   1.00
Zn5    Zn    0.41333   0.29331   0.70669   0.01267  Uiso   1.00
Zn6    Zn    0.41333   0.12002   0.70664   0.01267  Uiso   1.00
Zn7    Zn    0.58667   0.29331   0.70669   0.01267  Uiso   1.00
Zn8    Zn    0.58667   0.29336   0.87998   0.01267  Uiso   1.00
C9     C     0.94658   0.90759   0.47279   0.01267  Uiso   1.00
C10    C     0.56700   0.52700   0.47480   0.01267  Uiso   1.00
C11    C     0.56680   0.52800   0.09240   0.01267  Uiso   1.00
C12    C     0.94658   0.03899   0.47379   0.01267  Uiso   1.00
C13    C     0.56700   0.04000   0.09220   0.01267  Uiso   1.00
C14    C     0.56680   0.03880   0.47440   0.01267  Uiso   1.00
C15    C     0.05342   0.52721   0.09241   0.01267  Uiso   1.00
C16    C     0.43300   0.52520   0.47300   0.01267  Uiso   1.00
C17    C     0.43320   0.90760   0.47200   0.01267  Uiso   1.00
C18    C     0.05342   0.52621   0.96101   0.01267  Uiso   1.00
C19    C     0.43300   0.90780   0.96000   0.01267  Uiso   1.00
C20    C     0.43320   0.52560   0.96120   0.01267  Uiso   1.00
C21    C     0.05342   0.09241   0.52721   0.01267  Uiso   1.00
C22    C     0.43300   0.47300   0.52520   0.01267  Uiso   1.00
C23    C     0.43320   0.47200   0.90760   0.01267  Uiso   1.00
C24    C     0.05342   0.96101   0.52621   0.01267  Uiso   1.00
C25    C     0.43300   0.96000   0.90780   0.01267  Uiso   1.00
C26    C     0.43320   0.96120   0.52560   0.01267  Uiso   1.00
C27    C     0.94658   0.47279   0.90759   0.01267  Uiso   1.00
C28    C     0.56700   0.47480   0.52700   0.01267  Uiso   1.00
C29    C     0.56680   0.09240   0.52800   0.01267  Uiso   1.00
C30    C     0.94658   0.47379   0.03899   0.01267  Uiso   1.00
C31    C     0.56700   0.09220   0.04000   0.01267  Uiso   1.00
C32    C     0.56680   0.47440   0.03880   0.01267  Uiso   1.00
C33    C     0.89240   0.94620   0.44620   0.01267  Uiso   1.00
C34    C     0.77504   0.88752   0.38752   0.01267  Uiso   1.00
C35    C     0.10760   0.55380   0.05380   0.01267  Uiso   1.00
C36    C     0.22496   0.61248   0.11248   0.01267  Uiso   1.00
C37    C     0.10760   0.05380   0.55380   0.01267  Uiso   1.00
C38    C     0.22496   0.11248   0.61248   0.01267  Uiso   1.00
C39    C     0.89240   0.44620   0.94620   0.01267  Uiso   1.00
C40    C     0.77504   0.38752   0.88752   0.01267  Uiso   1.00
C41    C     0.50000   0.55360   0.05360   0.01267  Uiso   1.00
C42    C     0.50000   0.61200   0.11200   0.01267  Uiso   1.00
C43    C     0.50000   0.94640   0.44640   0.01267  Uiso   1.00
C44    C     0.50000   0.88800   0.38800   0.01267  Uiso   1.00
C45    C     0.50000   0.44640   0.94640   0.01267  Uiso   1.00
C46    C     0.50000   0.38800   0.88800   0.01267  Uiso   1.00
C47    C     0.50000   0.05360   0.55360   0.01267  Uiso   1.00
C48    C     0.50000   0.11200   0.61200   0.01267  Uiso   1.00
C49    C     0.50000   0.55340   0.44660   0.01267  Uiso   1.00
C50    C     0.50000   0.61180   0.38820   0.01267  Uiso   1.00
C51    C     0.50000   0.94660   0.05340   0.01267  Uiso   1.00
C52    C     0.50000   0.88820   0.11180   0.01267  Uiso   1.00
C53    C     0.50000   0.44660   0.55340   0.01267  Uiso   1.00
C54    C     0.50000   0.38820   0.61180   0.01267  Uiso   1.00
C55    C     0.50000   0.05340   0.94660   0.01267  Uiso   1.00
C56    C     0.50000   0.11180   0.88820   0.01267  Uiso   1.00
O57    O     0.73144   0.80328   0.36652   0.01267  Uiso   1.00
O58    O     0.56274   0.63508   0.19588   0.01267  Uiso   1.00
O59    O     0.56324   0.63472   0.36610   0.01267  Uiso   1.00
O60    O     0.73144   0.92816   0.36492   0.01267  Uiso   1.00
O61    O     0.56274   0.92766   0.36686   0.01267  Uiso   1.00
O62    O     0.56324   0.92852   0.19714   0.01267  Uiso   1.00
O63    O     0.26856   0.63348   0.19672   0.01267  Uiso   1.00
O64    O     0.43726   0.80412   0.36492   0.01267  Uiso   1.00
O65    O     0.43676   0.63390   0.36528   0.01267  Uiso   1.00
O66    O     0.26856   0.63508   0.07184   0.01267  Uiso   1.00
O67    O     0.43726   0.63314   0.07234   0.01267  Uiso   1.00
O68    O     0.43676   0.80286   0.07148   0.01267  Uiso   1.00
O69    O     0.26856   0.19672   0.63348   0.01267  Uiso   1.00
O70    O     0.43726   0.36492   0.80412   0.01267  Uiso   1.00
O71    O     0.43676   0.36528   0.63390   0.01267  Uiso   1.00
O72    O     0.26856   0.07184   0.63508   0.01267  Uiso   1.00
O73    O     0.43726   0.07234   0.63314   0.01267  Uiso   1.00
O74    O     0.43676   0.07148   0.80286   0.01267  Uiso   1.00
O75    O     0.73144   0.36652   0.80328   0.01267  Uiso   1.00
O76    O     0.56274   0.19588   0.63508   0.01267  Uiso   1.00
O77    O     0.56324   0.36610   0.63472   0.01267  Uiso   1.00
O78    O     0.73144   0.36492   0.92816   0.01267  Uiso   1.00
O79    O     0.56274   0.36686   0.92766   0.01267  Uiso   1.00
O80    O     0.56324   0.19714   0.92852   0.01267  Uiso   1.00
O81    O     0.50000   0.75000   0.25000   0.01267  Uiso   1.00
O82    O     0.50000   0.25000   0.75000   0.01267  Uiso   1.00
H83    H     0.62213   0.54995   0.45333   0.00000  Uiso   1.00
H84    H     0.37787   0.54667   0.45005   0.00000  Uiso   1.00
H85    H     0.37787   0.45005   0.54667   0.00000  Uiso   1.00
H86    H     0.62213   0.45333   0.54995   0.00000  Uiso   1.00
H87    H     0.37782   0.83101   0.44880   0.00000  Uiso   1.00
H88    H     0.37782   0.92902   0.54681   0.00000  Uiso   1.00
H89    H     0.62218   0.55120   0.16899   0.00000  Uiso   1.00
H90    H     0.62218   0.45319   0.07098   0.00000  Uiso   1.00
H91    H     0.90217   0.07118   0.45200   0.00000  Uiso   1.00
H92    H     0.62213   0.07218   0.16880   0.00000  Uiso   1.00
H93    H     0.90217   0.45200   0.07118   0.00000  Uiso   1.00
H94    H     0.62213   0.16880   0.07218   0.00000  Uiso   1.00
H95    H     0.62218   0.07098   0.45319   0.00000  Uiso   1.00
H96    H     0.62218   0.16899   0.55120   0.00000  Uiso   1.00
H97    H     0.37782   0.54681   0.92902   0.00000  Uiso   1.00
H98    H     0.37782   0.44880   0.83101   0.00000  Uiso   1.00
H99    H     0.90217   0.45017   0.83099   0.00000  Uiso   1.00
H100   H     0.37787   0.83120   0.92782   0.00000  Uiso   1.00
H101   H     0.37787   0.92782   0.83120   0.00000  Uiso   1.00
H102   H     0.09783   0.54800   0.92882   0.00000  Uiso   1.00
H103   H     0.09783   0.92882   0.54800   0.00000  Uiso   1.00
H104   H     0.90217   0.83099   0.45017   0.00000  Uiso   1.00
H105   H     0.09783   0.16901   0.54983   0.00000  Uiso   1.00
H106   H     0.09783   0.54983   0.16901   0.00000  Uiso   1.00
loop_
_geom_bond_atom_site_label_1
_geom_bond_atom_site_label_2
_geom_bond_distance
_geom_bond_site_symmetry_2
_ccdc_geom_bond_type
Zn1    O57     1.909   .     S
Zn1    O58     1.916   .     S
Zn1    O59     1.908   .     S
Zn1    O81     1.926   .     S
Zn2    O60     1.909   .     S
Zn2    O61     1.916   .     S
Zn2    O62     1.908   .     S
Zn2    O81     1.926   .     S
Zn3    O63     1.909   .     S
Zn3    O64     1.916   .     S
Zn3    O65     1.908   .     S
Zn3    O81     1.926   .     S
Zn4    O66     1.909   .     S
Zn4    O67     1.916   .     S
Zn4    O68     1.908   .     S
Zn4    O81     1.926   .     S
Zn5    O69     1.909   .     S
Zn5    O70     1.916   .     S
Zn5    O71     1.908   .     S
Zn5    O82     1.926   .     S
Zn6    O72     1.909   .     S
Zn6    O73     1.916   .     S
Zn6    O74     1.908   .     S
Zn6    O82     1.926   .     S
Zn7    O75     1.909   .     S
Zn7    O76     1.916   .     S
Zn7    O77     1.908   .     S
Zn7    O82     1.926   .     S
Zn8    O78     1.909   .     S
Zn8    O79     1.916   .     S
Zn8    O80     1.908   .     S
Zn8    O82     1.926   .     S
C9     C24     1.371   1_655 A
C9     C33     1.380   .     S
C9     H104    1.140   .     S
C10    C28     1.340   .     A
C10    C49     1.389   .     A
C10    H83     1.140   .     S
C11    C32     1.376   .     A
C11    C41     1.375   .     A
C11    H89     1.140   .     S
C12    C21     1.371   1_655 A
C12    C33     1.380   1_545 A
C12    H91     1.140   .     S
C13    C31     1.340   .     A
C13    C51     1.389   1_545 A
C13    H92     1.140   .     S
C14    C29     1.376   .     A
C14    C43     1.375   1_545 A
C14    H95     1.140   .     S
C15    C30     1.371   1_455 A
C15    C35     1.380   .     A
C15    H106    1.140   .     S
C16    C22     1.340   .     A
C16    C49     1.389   .     A
C16    H84     1.140   .     S
C17    C26     1.376   .     A
C17    C43     1.375   .     A
C17    H87     1.140   .     S
C18    C27     1.371   1_455 A
C18    C35     1.380   1_556 A
C18    H102    1.140   .     S
C19    C25     1.340   .     A
C19    C51     1.389   1_556 A
C19    H100    1.140   .     S
C20    C23     1.376   .     A
C20    C41     1.375   1_556 A
C20    H97     1.140   .     S
C21    C12     1.371   1_455 A
C21    C37     1.380   .     A
C21    H105    1.140   .     S
C22    C53     1.389   .     A
C22    H85     1.140   .     S
C23    C45     1.375   .     A
C23    H98     1.140   .     S
C24    C9      1.371   1_455 A
C24    C37     1.380   1_565 A
C24    H103    1.140   .     S
C25    C55     1.389   1_565 A
C25    H101    1.140   .     S
C26    C47     1.375   1_565 A
C26    H88     1.140   .     S
C27    C18     1.371   1_655 A
C27    C39     1.380   .     A
C27    H99     1.140   .     S
C28    C53     1.389   .     A
C28    H86     1.140   .     S
C29    C47     1.375   .     A
C29    H96     1.140   .     S
C30    C15     1.371   1_655 A
C30    C39     1.380   1_554 A
C30    H93     1.140   .     S
C31    C55     1.389   1_554 A
C31    H94     1.140   .     S
C32    C45     1.375   1_554 A
C32    H90     1.140   .     S
C33    C12     1.380   1_565 A
C33    C34     1.506   .     S
C34    O57     1.264   .     A
C34    O60     1.264   .     A
C35    C18     1.380   1_554 A
C35    C36     1.506   .     S
C36    O63     1.264   .     A
C36    O66     1.264   .     A
C37    C24     1.380   1_545 A
C37    C38     1.506   .     S
C38    O69     1.264   .     A
C38    O72     1.264   .     A
C39    C30     1.380   1_556 A
C39    C40     1.506   .     S
C40    O75     1.264   .     A
C40    O78     1.264   .     A
C41    C20     1.375   1_554 A
C41    C42     1.499   .     S
C42    O58     1.257   .     A
C42    O67     1.257   .     A
C43    C14     1.375   1_565 A
C43    C44     1.499   .     S
C44    O61     1.257   .     A
C44    O64     1.257   .     A
C45    C32     1.375   1_556 A
C45    C46     1.499   .     S
C46    O70     1.257   .     A
C46    O79     1.257   .     A
C47    C26     1.375   1_545 A
C47    C48     1.499   .     S
C48    O73     1.257   .     A
C48    O76     1.257   .     A
C49    C50     1.499   .     A
C50    O59     1.278   .     A
C50    O65     1.278   .     A
C51    C13     1.389   1_565 A
C51    C19     1.389   1_554 A
C51    C52     1.499   .     S
C52    O62     1.278   .     A
C52    O68     1.278   .     A
C53    C54     1.499   .     S
C54    O71     1.278   .     A
C54    O77     1.278   .     A
C55    C31     1.389   1_556 A
C55    C25     1.389   1_545 A
C55    C56     1.499   .     S
C56    O74     1.278   .     A
C56    O80     1.278   .     A
