data_NODTEH_clean
_audit_creation_date              2015-08-20
_audit_creation_method            'Materials Studio'
_symmetry_space_group_name_H-M    'P1'
_symmetry_Int_Tables_number       1
_symmetry_cell_setting            triclinic
loop_
_symmetry_equiv_pos_as_xyz
  x,y,z
_cell_length_a                    18.0703
_cell_length_b                    18.0703
_cell_length_c                    18.0703
_cell_angle_alpha                 60.0000
_cell_angle_beta                  60.0000
_cell_angle_gamma                 60.0000
loop_
_atom_site_label
_atom_site_type_symbol
_atom_site_fract_x
_atom_site_fract_y
_atom_site_fract_z
_atom_site_U_iso_or_equiv
_atom_site_adp_type
_atom_site_occupancy
Zn1    Zn    0.29350   0.29350   0.29350   0.01267  Uiso   1.00
Zn2    Zn    0.29350   0.29350   0.11950   0.01267  Uiso   1.00
Zn3    Zn    0.29350   0.11950   0.29350   0.01267  Uiso   1.00
Zn4    Zn    0.11950   0.29350   0.29350   0.01267  Uiso   1.00
Zn5    Zn    0.70650   0.70650   0.70650   0.01267  Uiso   1.00
Zn6    Zn    0.70650   0.70650   0.88050   0.01267  Uiso   1.00
Zn7    Zn    0.88050   0.70650   0.70650   0.01267  Uiso   1.00
Zn8    Zn    0.70650   0.88050   0.70650   0.01267  Uiso   1.00
C9     C     0.47340   0.47340   0.96080   0.01267  Uiso   1.00
C10    C     0.47340   0.47340   0.09240   0.01267  Uiso   1.00
C11    C     0.96080   0.09240   0.47340   0.01267  Uiso   1.00
C12    C     0.09240   0.96080   0.47340   0.01267  Uiso   1.00
C13    C     0.47340   0.96080   0.09240   0.01267  Uiso   1.00
C14    C     0.47340   0.09240   0.96080   0.01267  Uiso   1.00
C15    C     0.96080   0.47340   0.47340   0.01267  Uiso   1.00
C16    C     0.09240   0.47340   0.47340   0.01267  Uiso   1.00
C17    C     0.47340   0.09240   0.47340   0.01267  Uiso   1.00
C18    C     0.47340   0.96080   0.47340   0.01267  Uiso   1.00
C19    C     0.96080   0.47340   0.09240   0.01267  Uiso   1.00
C20    C     0.09240   0.47340   0.96080   0.01267  Uiso   1.00
C21    C     0.52660   0.52660   0.03920   0.01267  Uiso   1.00
C22    C     0.52660   0.52660   0.90760   0.01267  Uiso   1.00
C23    C     0.90760   0.03920   0.52660   0.01267  Uiso   1.00
C24    C     0.03920   0.90760   0.52660   0.01267  Uiso   1.00
C25    C     0.03920   0.52660   0.90760   0.01267  Uiso   1.00
C26    C     0.90760   0.52660   0.03920   0.01267  Uiso   1.00
C27    C     0.52660   0.03920   0.52660   0.01267  Uiso   1.00
C28    C     0.52660   0.90760   0.52660   0.01267  Uiso   1.00
C29    C     0.90760   0.52660   0.52660   0.01267  Uiso   1.00
C30    C     0.03920   0.52660   0.52660   0.01267  Uiso   1.00
C31    C     0.52660   0.03920   0.90760   0.01267  Uiso   1.00
C32    C     0.52660   0.90760   0.03920   0.01267  Uiso   1.00
C33    C     0.38820   0.38820   0.11180   0.01267  Uiso   1.00
C34    C     0.44590   0.44590   0.05410   0.01267  Uiso   1.00
C35    C     0.11180   0.11180   0.38820   0.01267  Uiso   1.00
C36    C     0.05410   0.05410   0.44590   0.01267  Uiso   1.00
C37    C     0.38820   0.11180   0.11180   0.01267  Uiso   1.00
C38    C     0.44590   0.05410   0.05410   0.01267  Uiso   1.00
C39    C     0.11180   0.38820   0.38820   0.01267  Uiso   1.00
C40    C     0.05410   0.44590   0.44590   0.01267  Uiso   1.00
C41    C     0.38820   0.11180   0.38820   0.01267  Uiso   1.00
C42    C     0.44590   0.05410   0.44590   0.01267  Uiso   1.00
C43    C     0.11180   0.38820   0.11180   0.01267  Uiso   1.00
C44    C     0.05410   0.44590   0.05410   0.01267  Uiso   1.00
C45    C     0.61180   0.61180   0.88820   0.01267  Uiso   1.00
C46    C     0.55410   0.55410   0.94590   0.01267  Uiso   1.00
C47    C     0.88820   0.88820   0.61180   0.01267  Uiso   1.00
C48    C     0.94590   0.94590   0.55410   0.01267  Uiso   1.00
C49    C     0.88820   0.61180   0.88820   0.01267  Uiso   1.00
C50    C     0.94590   0.55410   0.94590   0.01267  Uiso   1.00
C51    C     0.61180   0.88820   0.61180   0.01267  Uiso   1.00
C52    C     0.55410   0.94590   0.55410   0.01267  Uiso   1.00
C53    C     0.88820   0.61180   0.61180   0.01267  Uiso   1.00
C54    C     0.94590   0.55410   0.55410   0.01267  Uiso   1.00
C55    C     0.61180   0.88820   0.88820   0.01267  Uiso   1.00
C56    C     0.55410   0.94590   0.94590   0.01267  Uiso   1.00
O57    O     0.25000   0.25000   0.25000   0.01267  Uiso   1.00
O58    O     0.75000   0.75000   0.75000   0.01267  Uiso   1.00
O59    O     0.36569   0.36569   0.19789   0.01267  Uiso   1.00
O60    O     0.36569   0.36569   0.07073   0.01267  Uiso   1.00
O61    O     0.19789   0.07073   0.36569   0.01267  Uiso   1.00
O62    O     0.07073   0.19789   0.36569   0.01267  Uiso   1.00
O63    O     0.36569   0.19789   0.07073   0.01267  Uiso   1.00
O64    O     0.36569   0.07073   0.19789   0.01267  Uiso   1.00
O65    O     0.19789   0.36569   0.36569   0.01267  Uiso   1.00
O66    O     0.07073   0.36569   0.36569   0.01267  Uiso   1.00
O67    O     0.36569   0.07073   0.36569   0.01267  Uiso   1.00
O68    O     0.36569   0.19789   0.36569   0.01267  Uiso   1.00
O69    O     0.19789   0.36569   0.07073   0.01267  Uiso   1.00
O70    O     0.07073   0.36569   0.19789   0.01267  Uiso   1.00
O71    O     0.63431   0.63431   0.80211   0.01267  Uiso   1.00
O72    O     0.63431   0.63431   0.92927   0.01267  Uiso   1.00
O73    O     0.92927   0.80211   0.63431   0.01267  Uiso   1.00
O74    O     0.80211   0.92927   0.63431   0.01267  Uiso   1.00
O75    O     0.80211   0.63431   0.92927   0.01267  Uiso   1.00
O76    O     0.92927   0.63431   0.80211   0.01267  Uiso   1.00
O77    O     0.63431   0.80211   0.63431   0.01267  Uiso   1.00
O78    O     0.63431   0.92927   0.63431   0.01267  Uiso   1.00
O79    O     0.92927   0.63431   0.63431   0.01267  Uiso   1.00
O80    O     0.80211   0.63431   0.63431   0.01267  Uiso   1.00
O81    O     0.63431   0.80211   0.92927   0.01267  Uiso   1.00
O82    O     0.63431   0.92927   0.80211   0.01267  Uiso   1.00
H83    H     0.45110   0.45110   0.92847   0.00000  Uiso   1.00
H84    H     0.45110   0.45110   0.16934   0.00000  Uiso   1.00
H85    H     0.92847   0.16934   0.45110   0.00000  Uiso   1.00
H86    H     0.16934   0.92847   0.45110   0.00000  Uiso   1.00
H87    H     0.45110   0.92847   0.16934   0.00000  Uiso   1.00
H88    H     0.45110   0.16934   0.92847   0.00000  Uiso   1.00
H89    H     0.92847   0.45110   0.45110   0.00000  Uiso   1.00
H90    H     0.16934   0.45110   0.45110   0.00000  Uiso   1.00
H91    H     0.45110   0.16934   0.45110   0.00000  Uiso   1.00
H92    H     0.45110   0.92847   0.45110   0.00000  Uiso   1.00
H93    H     0.92847   0.45110   0.16934   0.00000  Uiso   1.00
H94    H     0.16934   0.45110   0.92847   0.00000  Uiso   1.00
H95    H     0.54890   0.54890   0.07153   0.00000  Uiso   1.00
H96    H     0.54890   0.54890   0.83066   0.00000  Uiso   1.00
H97    H     0.83066   0.07153   0.54890   0.00000  Uiso   1.00
H98    H     0.07153   0.83066   0.54890   0.00000  Uiso   1.00
H99    H     0.07153   0.54890   0.83066   0.00000  Uiso   1.00
H100   H     0.83066   0.54890   0.07153   0.00000  Uiso   1.00
H101   H     0.54890   0.07153   0.54890   0.00000  Uiso   1.00
H102   H     0.54890   0.83066   0.54890   0.00000  Uiso   1.00
H103   H     0.83066   0.54890   0.54890   0.00000  Uiso   1.00
H104   H     0.07153   0.54890   0.54890   0.00000  Uiso   1.00
H105   H     0.54890   0.07153   0.83066   0.00000  Uiso   1.00
H106   H     0.54890   0.83066   0.07153   0.00000  Uiso   1.00
loop_
_geom_bond_atom_site_label_1
_geom_bond_atom_site_label_2
_geom_bond_distance
_geom_bond_site_symmetry_2
_ccdc_geom_bond_type
Zn1    O57     1.925   .     S
Zn1    O59     1.893   .     S
Zn1    O65     1.893   .     S
Zn1    O68     1.893   .     S
Zn2    O57     1.925   .     S
Zn2    O60     1.893   .     S
Zn2    O63     1.893   .     S
Zn2    O69     1.893   .     S
Zn3    O57     1.925   .     S
Zn3    O61     1.893   .     S
Zn3    O64     1.893   .     S
Zn3    O67     1.893   .     S
Zn4    O57     1.925   .     S
Zn4    O62     1.893   .     S
Zn4    O66     1.893   .     S
Zn4    O70     1.893   .     S
Zn5    O58     1.925   .     S
Zn5    O71     1.893   .     S
Zn5    O77     1.893   .     S
Zn5    O80     1.893   .     S
Zn6    O58     1.925   .     S
Zn6    O72     1.893   .     S
Zn6    O75     1.893   .     S
Zn6    O81     1.893   .     S
Zn7    O58     1.925   .     S
Zn7    O73     1.893   .     S
Zn7    O76     1.893   .     S
Zn7    O79     1.893   .     S
Zn8    O58     1.925   .     S
Zn8    O74     1.893   .     S
Zn8    O78     1.893   .     S
Zn8    O82     1.893   .     S
C9     C22     1.360   .     A
C9     C34     1.381   1_556 A
C9     H83     1.140   .     S
C10    C21     1.360   .     A
C10    C34     1.381   .     A
C10    H84     1.140   .     S
C11    C23     1.360   .     A
C11    C36     1.381   1_655 A
C11    H85     1.140   .     S
C12    C24     1.360   .     A
C12    C36     1.381   1_565 A
C12    H86     1.140   .     S
C13    C32     1.360   .     A
C13    C38     1.381   1_565 A
C13    H87     1.140   .     S
C14    C31     1.360   .     A
C14    C38     1.381   1_556 A
C14    H88     1.140   .     S
C15    C29     1.360   .     A
C15    C40     1.381   1_655 A
C15    H89     1.140   .     S
C16    C30     1.360   .     A
C16    C40     1.381   .     A
C16    H90     1.140   .     S
C17    C27     1.360   .     A
C17    C42     1.381   .     A
C17    H91     1.140   .     S
C18    C28     1.360   .     A
C18    C42     1.381   1_565 A
C18    H92     1.140   .     S
C19    C26     1.360   .     A
C19    C44     1.381   1_655 A
C19    H93     1.140   .     S
C20    C25     1.360   .     A
C20    C44     1.381   1_556 A
C20    H94     1.140   .     S
C21    C46     1.381   1_554 A
C21    H95     1.140   .     S
C22    C46     1.381   .     A
C22    H96     1.140   .     S
C23    C48     1.381   1_545 A
C23    H97     1.140   .     S
C24    C48     1.381   1_455 A
C24    H98     1.140   .     S
C25    C50     1.381   1_455 A
C25    H99     1.140   .     S
C26    C50     1.381   1_554 A
C26    H100    1.140   .     S
C27    C52     1.381   1_545 A
C27    H101    1.140   .     S
C28    C52     1.381   .     A
C28    H102    1.140   .     S
C29    C54     1.381   .     A
C29    H103    1.140   .     S
C30    C54     1.381   1_455 A
C30    H104    1.140   .     S
C31    C56     1.381   1_545 A
C31    H105    1.140   .     S
C32    C56     1.381   1_554 A
C32    H106    1.140   .     S
C33    C34     1.475   .     S
C33    O59     1.285   .     A
C33    O60     1.285   .     A
C34    C9      1.381   1_554 A
C35    C36     1.475   .     S
C35    O61     1.285   .     A
C35    O62     1.285   .     A
C36    C11     1.381   1_455 A
C36    C12     1.381   1_545 A
C37    C38     1.475   .     A
C37    O63     1.285   .     A
C37    O64     1.285   .     A
C38    C14     1.381   1_554 A
C38    C13     1.381   1_545 A
C39    C40     1.475   .     S
C39    O65     1.285   .     A
C39    O66     1.285   .     A
C40    C15     1.381   1_455 A
C41    C42     1.475   .     A
C41    O67     1.285   .     A
C41    O68     1.285   .     A
C42    C18     1.381   1_545 A
C43    C44     1.475   .     S
C43    O69     1.285   .     A
C43    O70     1.285   .     A
C44    C20     1.381   1_554 A
C44    C19     1.381   1_455 A
C45    C46     1.475   .     S
C45    O71     1.285   .     A
C45    O72     1.285   .     A
C46    C21     1.381   1_556 A
C47    C48     1.475   .     S
C47    O73     1.285   .     A
C47    O74     1.285   .     A
C48    C24     1.381   1_655 A
C48    C23     1.381   1_565 A
C49    C50     1.475   .     S
C49    O75     1.285   .     A
C49    O76     1.285   .     A
C50    C26     1.381   1_556 A
C50    C25     1.381   1_655 A
C51    C52     1.475   .     S
C51    O77     1.285   .     A
C51    O78     1.285   .     A
C52    C27     1.381   1_565 A
C53    C54     1.475   .     A
C53    O79     1.285   .     A
C53    O80     1.285   .     A
C54    C30     1.381   1_655 A
C55    C56     1.475   .     A
C55    O81     1.285   .     A
C55    O82     1.285   .     A
C56    C31     1.381   1_565 A
C56    C32     1.381   1_556 A
