data_image0
_cell_length_a       10.4299
_cell_length_b       13.5219
_cell_length_c       31.6642
_cell_angle_alpha    90
_cell_angle_beta     97.6208
_cell_angle_gamma    90

_symmetry_space_group_name_H-M    P 1
_symmetry_int_tables_number       1

loop_
  _symmetry_equiv_pos_as_xyz
  'x, y, z'

loop_
  _atom_site_label
  _atom_site_occupancy
  _atom_site_fract_x
  _atom_site_fract_y
  _atom_site_fract_z
  _atom_site_thermal_displace_type
  _atom_site_B_iso_or_equiv
  _atom_site_type_symbol
  Eu1      1.0000 0.91552  0.90392  0.53900  Biso   1.000  Eu
  Eu2      1.0000 0.08448  0.40392  0.96100  Biso   1.000  Eu
  Eu3      1.0000 0.08448  0.09608  0.46100  Biso   1.000  Eu
  Eu4      1.0000 0.91552  0.59608  0.03900  Biso   1.000  Eu
  H1       1.0000 0.78010  0.01960  0.35480  Biso   1.000  H
  H2       1.0000 0.63510  0.96910  0.29650  Biso   1.000  H
  H3       1.0000 0.46010  0.78770  0.37000  Biso   1.000  H
  H4       1.0000 0.60800  0.83580  0.43020  Biso   1.000  H
  H5       1.0000 0.75760  0.20980  0.87760  Biso   1.000  H
  H6       1.0000 0.62520  0.14880  0.81860  Biso   1.000  H
  H7       1.0000 0.82660  0.30600  0.74180  Biso   1.000  H
  H8       1.0000 0.96790  0.36110  0.80030  Biso   1.000  H
  H9       1.0000 0.14740  0.74170  0.52330  Biso   1.000  H
  H10      1.0000 0.26860  0.59220  0.53450  Biso   1.000  H
  H11      1.0000 0.46550  0.67060  0.43720  Biso   1.000  H
  H12      1.0000 0.34330  0.81660  0.42940  Biso   1.000  H
  H13      1.0000 0.21180  0.37560  0.51830  Biso   1.000  H
  H14      1.0000 0.28770  0.27330  0.52740  Biso   1.000  H
  H15      1.0000 0.27690  0.32300  0.48110  Biso   1.000  H
  H16      1.0000 0.47680  0.21810  0.39780  Biso   1.000  H
  H17      1.0000 0.53950  0.20990  0.44660  Biso   1.000  H
  H18      1.0000 0.58760  0.13820  0.41170  Biso   1.000  H
  H19      1.0000 0.30200  0.12710  0.36400  Biso   1.000  H
  H20      1.0000 0.42780  0.06070  0.36140  Biso   1.000  H
  H21      1.0000 0.29740  0.01060  0.37260  Biso   1.000  H
  H22      1.0000 0.21990  0.51960  0.14520  Biso   1.000  H
  H23      1.0000 0.36490  0.46910  0.20350  Biso   1.000  H
  H24      1.0000 0.53990  0.28770  0.13000  Biso   1.000  H
  H25      1.0000 0.39200  0.33580  0.06980  Biso   1.000  H
  H26      1.0000 0.24240  0.70980  0.62240  Biso   1.000  H
  H27      1.0000 0.37480  0.64880  0.68140  Biso   1.000  H
  H28      1.0000 0.17340  0.80600  0.75820  Biso   1.000  H
  H29      1.0000 0.03210  0.86110  0.69970  Biso   1.000  H
  H30      1.0000 0.85260  0.24170  0.97670  Biso   1.000  H
  H31      1.0000 0.73140  0.09220  0.96550  Biso   1.000  H
  H32      1.0000 0.53450  0.17060  0.06280  Biso   1.000  H
  H33      1.0000 0.65670  0.31660  0.07060  Biso   1.000  H
  H34      1.0000 0.78820  0.87560  0.98170  Biso   1.000  H
  H35      1.0000 0.71230  0.77330  0.97260  Biso   1.000  H
  H36      1.0000 0.72310  0.82300  0.01890  Biso   1.000  H
  H37      1.0000 0.52320  0.71810  0.10220  Biso   1.000  H
  H38      1.0000 0.46050  0.70990  0.05340  Biso   1.000  H
  H39      1.0000 0.41240  0.63820  0.08830  Biso   1.000  H
  H40      1.0000 0.69800  0.62710  0.13600  Biso   1.000  H
  H41      1.0000 0.57220  0.56070  0.13860  Biso   1.000  H
  H42      1.0000 0.70260  0.51060  0.12740  Biso   1.000  H
  H43      1.0000 0.21990  0.98040  0.64520  Biso   1.000  H
  H44      1.0000 0.36490  0.03090  0.70350  Biso   1.000  H
  H45      1.0000 0.53990  0.21230  0.63000  Biso   1.000  H
  H46      1.0000 0.39200  0.16420  0.56980  Biso   1.000  H
  H47      1.0000 0.24240  0.79020  0.12240  Biso   1.000  H
  H48      1.0000 0.37480  0.85120  0.18140  Biso   1.000  H
  H49      1.0000 0.17340  0.69400  0.25820  Biso   1.000  H
  H50      1.0000 0.03210  0.63890  0.19970  Biso   1.000  H
  H51      1.0000 0.85260  0.25830  0.47670  Biso   1.000  H
  H52      1.0000 0.73140  0.40780  0.46550  Biso   1.000  H
  H53      1.0000 0.53450  0.32940  0.56280  Biso   1.000  H
  H54      1.0000 0.65670  0.18340  0.57060  Biso   1.000  H
  H55      1.0000 0.78820  0.62440  0.48170  Biso   1.000  H
  H56      1.0000 0.71230  0.72670  0.47260  Biso   1.000  H
  H57      1.0000 0.72310  0.67700  0.51890  Biso   1.000  H
  H58      1.0000 0.52320  0.78190  0.60220  Biso   1.000  H
  H59      1.0000 0.46050  0.79010  0.55340  Biso   1.000  H
  H60      1.0000 0.41240  0.86180  0.58830  Biso   1.000  H
  H61      1.0000 0.69800  0.87290  0.63600  Biso   1.000  H
  H62      1.0000 0.57220  0.93930  0.63860  Biso   1.000  H
  H63      1.0000 0.70260  0.98940  0.62740  Biso   1.000  H
  H64      1.0000 0.78010  0.48040  0.85480  Biso   1.000  H
  H65      1.0000 0.63510  0.53090  0.79650  Biso   1.000  H
  H66      1.0000 0.46010  0.71230  0.87000  Biso   1.000  H
  H67      1.0000 0.60800  0.66420  0.93020  Biso   1.000  H
  H68      1.0000 0.75760  0.29020  0.37760  Biso   1.000  H
  H69      1.0000 0.62520  0.35120  0.31860  Biso   1.000  H
  H70      1.0000 0.82660  0.19400  0.24180  Biso   1.000  H
  H71      1.0000 0.96790  0.13890  0.30030  Biso   1.000  H
  H72      1.0000 0.14740  0.75830  0.02330  Biso   1.000  H
  H73      1.0000 0.26860  0.90780  0.03450  Biso   1.000  H
  H74      1.0000 0.46550  0.82940  0.93720  Biso   1.000  H
  H75      1.0000 0.34330  0.68340  0.92940  Biso   1.000  H
  H76      1.0000 0.21180  0.12440  0.01830  Biso   1.000  H
  H77      1.0000 0.28770  0.22670  0.02740  Biso   1.000  H
  H78      1.0000 0.27690  0.17700  0.98110  Biso   1.000  H
  H79      1.0000 0.47680  0.28190  0.89780  Biso   1.000  H
  H80      1.0000 0.53950  0.29010  0.94660  Biso   1.000  H
  H81      1.0000 0.58760  0.36180  0.91170  Biso   1.000  H
  H82      1.0000 0.30200  0.37290  0.86400  Biso   1.000  H
  H83      1.0000 0.42780  0.43930  0.86140  Biso   1.000  H
  H84      1.0000 0.29740  0.48940  0.87260  Biso   1.000  H
  C1       1.0000 0.19770  0.04010  0.56370  Biso   1.000  C
  C2       1.0000 0.29380  0.06970  0.60190  Biso   1.000  C
  C3       1.0000 0.28440  0.02830  0.64180  Biso   1.000  C
  C4       1.0000 0.37070  0.05840  0.67630  Biso   1.000  C
  C5       1.0000 0.46270  0.12550  0.67200  Biso   1.000  C
  C6       1.0000 0.52620  0.83450  0.36700  Biso   1.000  C
  C7       1.0000 0.61420  0.86350  0.40300  Biso   1.000  C
  C8       1.0000 0.55020  0.16200  0.70930  Biso   1.000  C
  C9       1.0000 0.97520  0.31760  0.88310  Biso   1.000  C
  C10      1.0000 0.88330  0.28340  0.84480  Biso   1.000  C
  C11      1.0000 0.77520  0.22610  0.84980  Biso   1.000  C
  C12      1.0000 0.69380  0.19280  0.81500  Biso   1.000  C
  C13      1.0000 0.71290  0.22440  0.77420  Biso   1.000  C
  C14      1.0000 0.81400  0.28500  0.76960  Biso   1.000  C
  C15      1.0000 0.89950  0.31700  0.80420  Biso   1.000  C
  C16      1.0000 0.62630  0.18980  0.73800  Biso   1.000  C
  C17      1.0000 0.16100  0.88550  0.46960  Biso   1.000  C
  C18      1.0000 0.23600  0.79090  0.47610  Biso   1.000  C
  C19      1.0000 0.21350  0.72760  0.50620  Biso   1.000  C
  C20      1.0000 0.28720  0.63810  0.51350  Biso   1.000  C
  C21      1.0000 0.38280  0.62050  0.49010  Biso   1.000  C
  C22      1.0000 0.40360  0.68540  0.45580  Biso   1.000  C
  C23      1.0000 0.32890  0.77070  0.45100  Biso   1.000  C
  C24      1.0000 0.46530  0.53660  0.49750  Biso   1.000  C
  C25      1.0000 0.23200  0.31180  0.50600  Biso   1.000  C
  C26      1.0000 0.51260  0.17250  0.42040  Biso   1.000  C
  C27      1.0000 0.35200  0.07000  0.37610  Biso   1.000  C
  C28      1.0000 0.80230  0.54010  0.93630  Biso   1.000  C
  C29      1.0000 0.70620  0.56970  0.89810  Biso   1.000  C
  C30      1.0000 0.71560  0.52830  0.85820  Biso   1.000  C
  C31      1.0000 0.62930  0.55840  0.82370  Biso   1.000  C
  C32      1.0000 0.53730  0.62550  0.82800  Biso   1.000  C
  C33      1.0000 0.47380  0.33450  0.13300  Biso   1.000  C
  C34      1.0000 0.38580  0.36350  0.09700  Biso   1.000  C
  C35      1.0000 0.44980  0.66200  0.79070  Biso   1.000  C
  C36      1.0000 0.02480  0.81760  0.61690  Biso   1.000  C
  C37      1.0000 0.11670  0.78340  0.65520  Biso   1.000  C
  C38      1.0000 0.22480  0.72610  0.65020  Biso   1.000  C
  C39      1.0000 0.30620  0.69280  0.68500  Biso   1.000  C
  C40      1.0000 0.28710  0.72440  0.72580  Biso   1.000  C
  C41      1.0000 0.18600  0.78500  0.73040  Biso   1.000  C
  C42      1.0000 0.10050  0.81700  0.69580  Biso   1.000  C
  C43      1.0000 0.37370  0.68980  0.76200  Biso   1.000  C
  C44      1.0000 0.83900  0.38550  0.03040  Biso   1.000  C
  C45      1.0000 0.76400  0.29090  0.02390  Biso   1.000  C
  C46      1.0000 0.78650  0.22760  0.99380  Biso   1.000  C
  C47      1.0000 0.71280  0.13810  0.98650  Biso   1.000  C
  C48      1.0000 0.61720  0.12050  0.00990  Biso   1.000  C
  C49      1.0000 0.59640  0.18540  0.04420  Biso   1.000  C
  C50      1.0000 0.67110  0.27070  0.04900  Biso   1.000  C
  C51      1.0000 0.53470  0.03660  0.00250  Biso   1.000  C
  C52      1.0000 0.76800  0.81180  0.99400  Biso   1.000  C
  C53      1.0000 0.48740  0.67250  0.07960  Biso   1.000  C
  C54      1.0000 0.64800  0.57000  0.12390  Biso   1.000  C
  C55      1.0000 0.80230  0.95990  0.43630  Biso   1.000  C
  C56      1.0000 0.70620  0.93030  0.39810  Biso   1.000  C
  C57      1.0000 0.71560  0.97170  0.35820  Biso   1.000  C
  C58      1.0000 0.62930  0.94160  0.32370  Biso   1.000  C
  C59      1.0000 0.53730  0.87450  0.32800  Biso   1.000  C
  C60      1.0000 0.47380  0.16550  0.63300  Biso   1.000  C
  C61      1.0000 0.38580  0.13650  0.59700  Biso   1.000  C
  C62      1.0000 0.44980  0.83800  0.29070  Biso   1.000  C
  C63      1.0000 0.02480  0.68240  0.11690  Biso   1.000  C
  C64      1.0000 0.11670  0.71660  0.15520  Biso   1.000  C
  C65      1.0000 0.22480  0.77390  0.15020  Biso   1.000  C
  C66      1.0000 0.30620  0.80720  0.18500  Biso   1.000  C
  C67      1.0000 0.28710  0.77560  0.22580  Biso   1.000  C
  C68      1.0000 0.18600  0.71500  0.23040  Biso   1.000  C
  C69      1.0000 0.10050  0.68300  0.19580  Biso   1.000  C
  C70      1.0000 0.37370  0.81020  0.26200  Biso   1.000  C
  C71      1.0000 0.83900  0.11450  0.53040  Biso   1.000  C
  C72      1.0000 0.76400  0.20910  0.52390  Biso   1.000  C
  C73      1.0000 0.78650  0.27240  0.49380  Biso   1.000  C
  C74      1.0000 0.71280  0.36190  0.48650  Biso   1.000  C
  C75      1.0000 0.61720  0.37950  0.50990  Biso   1.000  C
  C76      1.0000 0.59640  0.31460  0.54420  Biso   1.000  C
  C77      1.0000 0.67110  0.22930  0.54900  Biso   1.000  C
  C78      1.0000 0.53470  0.46340  0.50250  Biso   1.000  C
  C79      1.0000 0.76800  0.68820  0.49400  Biso   1.000  C
  C80      1.0000 0.48740  0.82750  0.57960  Biso   1.000  C
  C81      1.0000 0.64800  0.93000  0.62390  Biso   1.000  C
  C82      1.0000 0.19770  0.45990  0.06370  Biso   1.000  C
  C83      1.0000 0.29380  0.43030  0.10190  Biso   1.000  C
  C84      1.0000 0.28440  0.47170  0.14180  Biso   1.000  C
  C85      1.0000 0.37070  0.44160  0.17630  Biso   1.000  C
  C86      1.0000 0.46270  0.37450  0.17200  Biso   1.000  C
  C87      1.0000 0.52620  0.66550  0.86700  Biso   1.000  C
  C88      1.0000 0.61420  0.63650  0.90300  Biso   1.000  C
  C89      1.0000 0.55020  0.33800  0.20930  Biso   1.000  C
  C90      1.0000 0.97520  0.18240  0.38310  Biso   1.000  C
  C91      1.0000 0.88330  0.21660  0.34480  Biso   1.000  C
  C92      1.0000 0.77520  0.27390  0.34980  Biso   1.000  C
  C93      1.0000 0.69380  0.30720  0.31500  Biso   1.000  C
  C94      1.0000 0.71290  0.27560  0.27420  Biso   1.000  C
  C95      1.0000 0.81400  0.21500  0.26960  Biso   1.000  C
  C96      1.0000 0.89950  0.18300  0.30420  Biso   1.000  C
  C97      1.0000 0.62630  0.31020  0.23800  Biso   1.000  C
  C98      1.0000 0.16100  0.61450  0.96960  Biso   1.000  C
  C99      1.0000 0.23600  0.70910  0.97610  Biso   1.000  C
  C100     1.0000 0.21350  0.77240  0.00620  Biso   1.000  C
  C101     1.0000 0.28720  0.86190  0.01350  Biso   1.000  C
  C102     1.0000 0.38280  0.87950  0.99010  Biso   1.000  C
  C103     1.0000 0.40360  0.81460  0.95580  Biso   1.000  C
  C104     1.0000 0.32890  0.72930  0.95100  Biso   1.000  C
  C105     1.0000 0.46530  0.96340  0.99750  Biso   1.000  C
  C106     1.0000 0.23200  0.18820  0.00600  Biso   1.000  C
  C107     1.0000 0.51260  0.32750  0.92040  Biso   1.000  C
  C108     1.0000 0.35200  0.43000  0.87610  Biso   1.000  C
  S1       1.0000 0.40010  0.08990  0.42915  Biso   1.000  S
  S2       1.0000 0.59990  0.58990  0.07085  Biso   1.000  S
  S3       1.0000 0.59990  0.91010  0.57085  Biso   1.000  S
  S4       1.0000 0.40010  0.41010  0.92915  Biso   1.000  S
  O1       1.0000 0.10090  0.99080  0.57225  Biso   1.000  O
  O2       1.0000 0.78310  0.93160  0.47200  Biso   1.000  O
  O3       1.0000 0.06000  0.37990  0.87930  Biso   1.000  O
  O4       1.0000 0.95780  0.28060  0.91820  Biso   1.000  O
  O5       1.0000 0.06920  0.90170  0.49100  Biso   1.000  O
  O6       1.0000 0.19250  0.94700  0.44270  Biso   1.000  O
  O7       1.0000 0.11930  0.26060  0.49380  Biso   1.000  O
  O8       1.0000 0.29270  0.14770  0.44450  Biso   1.000  O
  O9       1.0000 0.89910  0.49080  0.92775  Biso   1.000  O
  O10      1.0000 0.21690  0.43160  0.02800  Biso   1.000  O
  O11      1.0000 0.94000  0.87990  0.62070  Biso   1.000  O
  O12      1.0000 0.04220  0.78060  0.58180  Biso   1.000  O
  O13      1.0000 0.93080  0.40170  0.00900  Biso   1.000  O
  O14      1.0000 0.80750  0.44700  0.05730  Biso   1.000  O
  O15      1.0000 0.88070  0.76060  0.00620  Biso   1.000  O
  O16      1.0000 0.70730  0.64770  0.05550  Biso   1.000  O
  O17      1.0000 0.89910  0.00920  0.42775  Biso   1.000  O
  O18      1.0000 0.21690  0.06840  0.52800  Biso   1.000  O
  O19      1.0000 0.94000  0.62010  0.12070  Biso   1.000  O
  O20      1.0000 0.04220  0.71940  0.08180  Biso   1.000  O
  O21      1.0000 0.93080  0.09830  0.50900  Biso   1.000  O
  O22      1.0000 0.80750  0.05300  0.55730  Biso   1.000  O
  O23      1.0000 0.88070  0.73940  0.50620  Biso   1.000  O
  O24      1.0000 0.70730  0.85230  0.55550  Biso   1.000  O
  O25      1.0000 0.10090  0.50920  0.07225  Biso   1.000  O
  O26      1.0000 0.78310  0.56840  0.97200  Biso   1.000  O
  O27      1.0000 0.06000  0.12010  0.37930  Biso   1.000  O
  O28      1.0000 0.95780  0.21940  0.41820  Biso   1.000  O
  O29      1.0000 0.06920  0.59830  0.99100  Biso   1.000  O
  O30      1.0000 0.19250  0.55300  0.94270  Biso   1.000  O
  O31      1.0000 0.11930  0.23940  0.99380  Biso   1.000  O
  O32      1.0000 0.29270  0.35230  0.94450  Biso   1.000  O
