data_image0
_cell_length_a       17.0405
_cell_length_b       13.6295
_cell_length_c       7.4617
_cell_angle_alpha    90
_cell_angle_beta     90
_cell_angle_gamma    90

_symmetry_space_group_name_H-M    "P 1"
_symmetry_int_tables_number       1

loop_
  _symmetry_equiv_pos_as_xyz
  'x, y, z'

loop_
  _atom_site_label
  _atom_site_occupancy
  _atom_site_fract_x
  _atom_site_fract_y
  _atom_site_fract_z
  _atom_site_thermal_displace_type
  _atom_site_B_iso_or_equiv
  _atom_site_type_symbol
  C1       1.0000 0.61150  0.46900  0.78400  Biso   1.000  C
  H1       1.0000 0.63880  0.41260  0.73890  Biso   1.000  H
  H2       1.0000 0.56260  0.44870  0.83670  Biso   1.000  H
  H3       1.0000 0.64310  0.50050  0.87400  Biso   1.000  H
  C2       1.0000 0.59650  0.53680  0.64000  Biso   1.000  C
  C3       1.0000 0.53320  0.53590  0.51400  Biso   1.000  C
  C4       1.0000 0.54410  0.61260  0.40100  Biso   1.000  C
  C5       1.0000 0.49990  0.64970  0.24400  Biso   1.000  C
  H4       1.0000 0.51970  0.71300  0.21020  Biso   1.000  H
  H5       1.0000 0.44530  0.65500  0.27400  Biso   1.000  H
  H6       1.0000 0.50590  0.60500  0.14520  Biso   1.000  H
  N1       1.0000 0.64370  0.61370  0.59870  Biso   1.000  N
  N2       1.0000 0.61140  0.65610  0.45300  Biso   1.000  N
  H7       1.0000 0.63160  0.70580  0.39930  Biso   1.000  H
  C6       1.0000 0.11150  0.96900  0.28400  Biso   1.000  C
  H8       1.0000 0.13880  0.91260  0.23890  Biso   1.000  H
  H9       1.0000 0.06260  0.94870  0.33670  Biso   1.000  H
  H10      1.0000 0.14310  0.00050  0.37400  Biso   1.000  H
  C7       1.0000 0.09650  0.03680  0.14000  Biso   1.000  C
  C8       1.0000 0.03320  0.03590  0.01400  Biso   1.000  C
  C9       1.0000 0.04410  0.11260  0.90100  Biso   1.000  C
  C10      1.0000 0.99990  0.14970  0.74400  Biso   1.000  C
  H11      1.0000 0.01970  0.21300  0.71020  Biso   1.000  H
  H12      1.0000 0.94530  0.15500  0.77400  Biso   1.000  H
  H13      1.0000 0.00590  0.10500  0.64520  Biso   1.000  H
  N3       1.0000 0.14370  0.11370  0.09870  Biso   1.000  N
  N4       1.0000 0.11140  0.15610  0.95300  Biso   1.000  N
  H14      1.0000 0.13160  0.20580  0.89930  Biso   1.000  H
  C11      1.0000 0.38850  0.53100  0.78400  Biso   1.000  C
  H15      1.0000 0.36120  0.58740  0.73890  Biso   1.000  H
  H16      1.0000 0.43740  0.55130  0.83670  Biso   1.000  H
  H17      1.0000 0.35690  0.49950  0.87400  Biso   1.000  H
  C12      1.0000 0.40350  0.46320  0.64000  Biso   1.000  C
  C13      1.0000 0.46680  0.46410  0.51400  Biso   1.000  C
  C14      1.0000 0.45590  0.38740  0.40100  Biso   1.000  C
  C15      1.0000 0.50010  0.35030  0.24400  Biso   1.000  C
  H18      1.0000 0.48030  0.28700  0.21020  Biso   1.000  H
  H19      1.0000 0.55470  0.34500  0.27400  Biso   1.000  H
  H20      1.0000 0.49410  0.39500  0.14520  Biso   1.000  H
  N5       1.0000 0.35630  0.38630  0.59870  Biso   1.000  N
  N6       1.0000 0.38860  0.34390  0.45300  Biso   1.000  N
  H21      1.0000 0.36840  0.29420  0.39930  Biso   1.000  H
  C16      1.0000 0.88850  0.03100  0.28400  Biso   1.000  C
  H22      1.0000 0.86120  0.08740  0.23890  Biso   1.000  H
  H23      1.0000 0.93740  0.05130  0.33670  Biso   1.000  H
  H24      1.0000 0.85690  0.99950  0.37400  Biso   1.000  H
  C17      1.0000 0.90350  0.96320  0.14000  Biso   1.000  C
  C18      1.0000 0.96680  0.96410  0.01400  Biso   1.000  C
  C19      1.0000 0.95590  0.88740  0.90100  Biso   1.000  C
  C20      1.0000 0.00010  0.85030  0.74400  Biso   1.000  C
  H25      1.0000 0.98030  0.78700  0.71020  Biso   1.000  H
  H26      1.0000 0.05470  0.84500  0.77400  Biso   1.000  H
  H27      1.0000 0.99410  0.89500  0.64520  Biso   1.000  H
  N7       1.0000 0.85630  0.88630  0.09870  Biso   1.000  N
  N8       1.0000 0.88860  0.84390  0.95300  Biso   1.000  N
  H28      1.0000 0.86840  0.79420  0.89930  Biso   1.000  H
  C21      1.0000 0.11150  0.53100  0.78400  Biso   1.000  C
  H29      1.0000 0.13880  0.58740  0.73890  Biso   1.000  H
  H30      1.0000 0.06260  0.55130  0.83670  Biso   1.000  H
  H31      1.0000 0.14310  0.49950  0.87400  Biso   1.000  H
  C22      1.0000 0.09650  0.46320  0.64000  Biso   1.000  C
  C23      1.0000 0.03320  0.46410  0.51400  Biso   1.000  C
  C24      1.0000 0.04410  0.38740  0.40100  Biso   1.000  C
  C25      1.0000 0.99990  0.35030  0.24400  Biso   1.000  C
  H32      1.0000 0.01970  0.28700  0.21020  Biso   1.000  H
  H33      1.0000 0.94530  0.34500  0.27400  Biso   1.000  H
  H34      1.0000 0.00590  0.39500  0.14520  Biso   1.000  H
  N9       1.0000 0.14370  0.38630  0.59870  Biso   1.000  N
  N10      1.0000 0.11140  0.34390  0.45300  Biso   1.000  N
  H35      1.0000 0.13160  0.29420  0.39930  Biso   1.000  H
  C26      1.0000 0.61150  0.03100  0.28400  Biso   1.000  C
  H36      1.0000 0.63880  0.08740  0.23890  Biso   1.000  H
  H37      1.0000 0.56260  0.05130  0.33670  Biso   1.000  H
  H38      1.0000 0.64310  0.99950  0.37400  Biso   1.000  H
  C27      1.0000 0.59650  0.96320  0.14000  Biso   1.000  C
  C28      1.0000 0.53320  0.96410  0.01400  Biso   1.000  C
  C29      1.0000 0.54410  0.88740  0.90100  Biso   1.000  C
  C30      1.0000 0.49990  0.85030  0.74400  Biso   1.000  C
  H39      1.0000 0.51970  0.78700  0.71020  Biso   1.000  H
  H40      1.0000 0.44530  0.84500  0.77400  Biso   1.000  H
  H41      1.0000 0.50590  0.89500  0.64520  Biso   1.000  H
  N11      1.0000 0.64370  0.88630  0.09870  Biso   1.000  N
  N12      1.0000 0.61140  0.84390  0.95300  Biso   1.000  N
  H42      1.0000 0.63160  0.79420  0.89930  Biso   1.000  H
  C31      1.0000 0.88850  0.46900  0.78400  Biso   1.000  C
  H43      1.0000 0.86120  0.41260  0.73890  Biso   1.000  H
  H44      1.0000 0.93740  0.44870  0.83670  Biso   1.000  H
  H45      1.0000 0.85690  0.50050  0.87400  Biso   1.000  H
  C32      1.0000 0.90350  0.53680  0.64000  Biso   1.000  C
  C33      1.0000 0.96680  0.53590  0.51400  Biso   1.000  C
  C34      1.0000 0.95590  0.61260  0.40100  Biso   1.000  C
  C35      1.0000 0.00010  0.64970  0.24400  Biso   1.000  C
  H46      1.0000 0.98030  0.71300  0.21020  Biso   1.000  H
  H47      1.0000 0.05470  0.65500  0.27400  Biso   1.000  H
  H48      1.0000 0.99410  0.60500  0.14520  Biso   1.000  H
  N13      1.0000 0.85630  0.61370  0.59870  Biso   1.000  N
  N14      1.0000 0.88860  0.65610  0.45300  Biso   1.000  N
  H49      1.0000 0.86840  0.70580  0.39930  Biso   1.000  H
  C36      1.0000 0.38850  0.96900  0.28400  Biso   1.000  C
  H50      1.0000 0.36120  0.91260  0.23890  Biso   1.000  H
  H51      1.0000 0.43740  0.94870  0.33670  Biso   1.000  H
  H52      1.0000 0.35690  0.00050  0.37400  Biso   1.000  H
  C37      1.0000 0.40350  0.03680  0.14000  Biso   1.000  C
  C38      1.0000 0.46680  0.03590  0.01400  Biso   1.000  C
  C39      1.0000 0.45590  0.11260  0.90100  Biso   1.000  C
  C40      1.0000 0.50010  0.14970  0.74400  Biso   1.000  C
  H53      1.0000 0.48030  0.21300  0.71020  Biso   1.000  H
  H54      1.0000 0.55470  0.15500  0.77400  Biso   1.000  H
  H55      1.0000 0.49410  0.10500  0.64520  Biso   1.000  H
  N15      1.0000 0.35630  0.11370  0.09870  Biso   1.000  N
  N16      1.0000 0.38860  0.15610  0.95300  Biso   1.000  N
  H56      1.0000 0.36840  0.20580  0.89930  Biso   1.000  H
  Cu1      1.0000 0.75000  0.64830  0.68530  Biso   1.000  Cu
  I1       1.0000 0.75000  0.84344  0.54650  Biso   1.000  I
  Cu2      1.0000 0.25000  0.14830  0.18530  Biso   1.000  Cu
  I2       1.0000 0.25000  0.34344  0.04650  Biso   1.000  I
  Cu3      1.0000 0.25000  0.35170  0.68530  Biso   1.000  Cu
  I3       1.0000 0.25000  0.15656  0.54650  Biso   1.000  I
  Cu4      1.0000 0.75000  0.85170  0.18530  Biso   1.000  Cu
  I4       1.0000 0.75000  0.65656  0.04650  Biso   1.000  I
