data_image0
_cell_length_a       9.8442
_cell_length_b       10.8795
_cell_length_c       29.2288
_cell_angle_alpha    90
_cell_angle_beta     90
_cell_angle_gamma    92.177

_symmetry_space_group_name_H-M    P 1
_symmetry_int_tables_number       1

loop_
  _symmetry_equiv_pos_as_xyz
  'x, y, z'

loop_
  _atom_site_label
  _atom_site_occupancy
  _atom_site_fract_x
  _atom_site_fract_y
  _atom_site_fract_z
  _atom_site_thermal_displace_type
  _atom_site_B_iso_or_equiv
  _atom_site_type_symbol
  Er1      1.0000 0.54517  0.04156  0.91851  Biso   1.000  Er
  Er2      1.0000 0.54026  0.26342  0.74846  Biso   1.000  Er
  Er3      1.0000 0.45483  0.45844  0.41851  Biso   1.000  Er
  Er4      1.0000 0.45974  0.23658  0.24846  Biso   1.000  Er
  Er5      1.0000 0.45483  0.95844  0.08149  Biso   1.000  Er
  Er6      1.0000 0.45974  0.73658  0.25154  Biso   1.000  Er
  Er7      1.0000 0.54517  0.54156  0.58149  Biso   1.000  Er
  Er8      1.0000 0.54026  0.76342  0.75154  Biso   1.000  Er
  H1       1.0000 0.86590  0.89320  0.71320  Biso   1.000  H
  H2       1.0000 0.09400  0.84510  0.70930  Biso   1.000  H
  H3       1.0000 0.22000  0.16260  0.89300  Biso   1.000  H
  H4       1.0000 0.98670  0.16450  0.90760  Biso   1.000  H
  H5       1.0000 0.94310  0.68940  0.98260  Biso   1.000  H
  H6       1.0000 0.17520  0.73540  0.98720  Biso   1.000  H
  H7       1.0000 0.13410  0.60680  0.21320  Biso   1.000  H
  H8       1.0000 0.90600  0.65490  0.20930  Biso   1.000  H
  H9       1.0000 0.78000  0.33740  0.39300  Biso   1.000  H
  H10      1.0000 0.01330  0.33550  0.40760  Biso   1.000  H
  H11      1.0000 0.05690  0.81060  0.48260  Biso   1.000  H
  H12      1.0000 0.82480  0.76460  0.48720  Biso   1.000  H
  H13      1.0000 0.13410  0.10680  0.28680  Biso   1.000  H
  H14      1.0000 0.90600  0.15490  0.29070  Biso   1.000  H
  H15      1.0000 0.78000  0.83740  0.10700  Biso   1.000  H
  H16      1.0000 0.01330  0.83550  0.09240  Biso   1.000  H
  H17      1.0000 0.05690  0.31060  0.01740  Biso   1.000  H
  H18      1.0000 0.82480  0.26460  0.01280  Biso   1.000  H
  H19      1.0000 0.86590  0.39320  0.78680  Biso   1.000  H
  H20      1.0000 0.09400  0.34510  0.79070  Biso   1.000  H
  H21      1.0000 0.22000  0.66260  0.60700  Biso   1.000  H
  H22      1.0000 0.98670  0.66450  0.59240  Biso   1.000  H
  H23      1.0000 0.94310  0.18940  0.51740  Biso   1.000  H
  H24      1.0000 0.17520  0.23540  0.51280  Biso   1.000  H
  C1       1.0000 0.92480  0.08740  0.84871  Biso   1.000  C
  C2       1.0000 0.96910  0.03230  0.80702  Biso   1.000  C
  C3       1.0000 0.87900  0.99050  0.77145  Biso   1.000  C
  C4       1.0000 0.92600  0.92200  0.73567  Biso   1.000  C
  C5       1.0000 0.06450  0.89500  0.73282  Biso   1.000  C
  C6       1.0000 0.15700  0.94140  0.76429  Biso   1.000  C
  C7       1.0000 0.11190  0.01680  0.80113  Biso   1.000  C
  C8       1.0000 0.20540  0.07510  0.83274  Biso   1.000  C
  C9       1.0000 0.15870  0.12850  0.87188  Biso   1.000  C
  C10      1.0000 0.01730  0.13170  0.88026  Biso   1.000  C
  C11      1.0000 0.78110  0.07910  0.86496  Biso   1.000  C
  C12      1.0000 0.73300  0.02910  0.76708  Biso   1.000  C
  C13      1.0000 0.35350  0.09910  0.82227  Biso   1.000  C
  C14      1.0000 0.29820  0.89530  0.76138  Biso   1.000  C
  C15      1.0000 0.88160  0.86130  0.98931  Biso   1.000  C
  C16      1.0000 0.97380  0.77060  0.98633  Biso   1.000  C
  C17      1.0000 0.11410  0.79840  0.98888  Biso   1.000  C
  C18      1.0000 0.16140  0.91690  0.99382  Biso   1.000  C
  C19      1.0000 0.92820  0.98580  0.99883  Biso   1.000  C
  C20      1.0000 0.73700  0.82710  0.97647  Biso   1.000  C
  C21      1.0000 0.31120  0.94080  0.98583  Biso   1.000  C
  C22      1.0000 0.07520  0.41260  0.34871  Biso   1.000  C
  C23      1.0000 0.03090  0.46770  0.30702  Biso   1.000  C
  C24      1.0000 0.12100  0.50950  0.27145  Biso   1.000  C
  C25      1.0000 0.07400  0.57800  0.23567  Biso   1.000  C
  C26      1.0000 0.93550  0.60500  0.23282  Biso   1.000  C
  C27      1.0000 0.84300  0.55860  0.26429  Biso   1.000  C
  C28      1.0000 0.88810  0.48320  0.30113  Biso   1.000  C
  C29      1.0000 0.79460  0.42490  0.33274  Biso   1.000  C
  C30      1.0000 0.84130  0.37150  0.37188  Biso   1.000  C
  C31      1.0000 0.98270  0.36830  0.38026  Biso   1.000  C
  C32      1.0000 0.21890  0.42090  0.36496  Biso   1.000  C
  C33      1.0000 0.26700  0.47090  0.26708  Biso   1.000  C
  C34      1.0000 0.64650  0.40090  0.32227  Biso   1.000  C
  C35      1.0000 0.70180  0.60470  0.26138  Biso   1.000  C
  C36      1.0000 0.11840  0.63870  0.48931  Biso   1.000  C
  C37      1.0000 0.02620  0.72940  0.48633  Biso   1.000  C
  C38      1.0000 0.88590  0.70160  0.48888  Biso   1.000  C
  C39      1.0000 0.83860  0.58310  0.49382  Biso   1.000  C
  C40      1.0000 0.07180  0.51420  0.49883  Biso   1.000  C
  C41      1.0000 0.26300  0.67290  0.47647  Biso   1.000  C
  C42      1.0000 0.68880  0.55920  0.48583  Biso   1.000  C
  C43      1.0000 0.07520  0.91260  0.15129  Biso   1.000  C
  C44      1.0000 0.03090  0.96770  0.19298  Biso   1.000  C
  C45      1.0000 0.12100  0.00950  0.22855  Biso   1.000  C
  C46      1.0000 0.07400  0.07800  0.26433  Biso   1.000  C
  C47      1.0000 0.93550  0.10500  0.26718  Biso   1.000  C
  C48      1.0000 0.84300  0.05860  0.23571  Biso   1.000  C
  C49      1.0000 0.88810  0.98320  0.19887  Biso   1.000  C
  C50      1.0000 0.79460  0.92490  0.16726  Biso   1.000  C
  C51      1.0000 0.84130  0.87150  0.12812  Biso   1.000  C
  C52      1.0000 0.98270  0.86830  0.11974  Biso   1.000  C
  C53      1.0000 0.21890  0.92090  0.13504  Biso   1.000  C
  C54      1.0000 0.26700  0.97090  0.23292  Biso   1.000  C
  C55      1.0000 0.64650  0.90090  0.17773  Biso   1.000  C
  C56      1.0000 0.70180  0.10470  0.23862  Biso   1.000  C
  C57      1.0000 0.11840  0.13870  0.01069  Biso   1.000  C
  C58      1.0000 0.02620  0.22940  0.01367  Biso   1.000  C
  C59      1.0000 0.88590  0.20160  0.01112  Biso   1.000  C
  C60      1.0000 0.83860  0.08310  0.00618  Biso   1.000  C
  C61      1.0000 0.07180  0.01420  0.00117  Biso   1.000  C
  C62      1.0000 0.26300  0.17290  0.02353  Biso   1.000  C
  C63      1.0000 0.68880  0.05920  0.01417  Biso   1.000  C
  C64      1.0000 0.92480  0.58740  0.65129  Biso   1.000  C
  C65      1.0000 0.96910  0.53230  0.69298  Biso   1.000  C
  C66      1.0000 0.87900  0.49050  0.72855  Biso   1.000  C
  C67      1.0000 0.92600  0.42200  0.76433  Biso   1.000  C
  C68      1.0000 0.06450  0.39500  0.76718  Biso   1.000  C
  C69      1.0000 0.15700  0.44140  0.73571  Biso   1.000  C
  C70      1.0000 0.11190  0.51680  0.69887  Biso   1.000  C
  C71      1.0000 0.20540  0.57510  0.66726  Biso   1.000  C
  C72      1.0000 0.15870  0.62850  0.62812  Biso   1.000  C
  C73      1.0000 0.01730  0.63170  0.61974  Biso   1.000  C
  C74      1.0000 0.78110  0.57910  0.63504  Biso   1.000  C
  C75      1.0000 0.73300  0.52910  0.73292  Biso   1.000  C
  C76      1.0000 0.35350  0.59910  0.67773  Biso   1.000  C
  C77      1.0000 0.29820  0.39530  0.73862  Biso   1.000  C
  C78      1.0000 0.88160  0.36130  0.51069  Biso   1.000  C
  C79      1.0000 0.97380  0.27060  0.51367  Biso   1.000  C
  C80      1.0000 0.11410  0.29840  0.51112  Biso   1.000  C
  C81      1.0000 0.16140  0.41690  0.50618  Biso   1.000  C
  C82      1.0000 0.92820  0.48580  0.50117  Biso   1.000  C
  C83      1.0000 0.73700  0.32710  0.52353  Biso   1.000  C
  C84      1.0000 0.31120  0.44080  0.51417  Biso   1.000  C
  O1       1.0000 0.47710  0.25010  0.92902  Biso   1.000  O
  O2       1.0000 0.45090  0.85390  0.88852  Biso   1.000  O
  O3       1.0000 0.59660  0.31990  0.82498  Biso   1.000  O
  O4       1.0000 0.68350  0.26350  0.68290  Biso   1.000  O
  O5       1.0000 0.45980  0.11480  0.69490  Biso   1.000  O
  O6       1.0000 0.71210  0.14070  0.77251  Biso   1.000  O
  O7       1.0000 0.64360  0.95070  0.75494  Biso   1.000  O
  O8       1.0000 0.70790  0.98440  0.85831  Biso   1.000  O
  O9       1.0000 0.73590  0.16420  0.89045  Biso   1.000  O
  O10      1.0000 0.38390  0.13040  0.78221  Biso   1.000  O
  O11      1.0000 0.43780  0.09630  0.85442  Biso   1.000  O
  O12      1.0000 0.35540  0.88870  0.72276  Biso   1.000  O
  O13      1.0000 0.35540  0.85400  0.79630  Biso   1.000  O
  O14      1.0000 0.67760  0.89930  0.94987  Biso   1.000  O
  O15      1.0000 0.68540  0.72740  0.99068  Biso   1.000  O
  O16      1.0000 0.39400  0.88380  0.00988  Biso   1.000  O
  O17      1.0000 0.34140  0.01410  0.95385  Biso   1.000  O
  O18      1.0000 0.52290  0.24990  0.42902  Biso   1.000  O
  O19      1.0000 0.54910  0.64610  0.38852  Biso   1.000  O
  O20      1.0000 0.40340  0.18010  0.32498  Biso   1.000  O
  O21      1.0000 0.31650  0.23650  0.18290  Biso   1.000  O
  O22      1.0000 0.54020  0.38520  0.19490  Biso   1.000  O
  O23      1.0000 0.28790  0.35930  0.27251  Biso   1.000  O
  O24      1.0000 0.35640  0.54930  0.25494  Biso   1.000  O
  O25      1.0000 0.29210  0.51560  0.35831  Biso   1.000  O
  O26      1.0000 0.26410  0.33580  0.39045  Biso   1.000  O
  O27      1.0000 0.61610  0.36960  0.28221  Biso   1.000  O
  O28      1.0000 0.56220  0.40370  0.35442  Biso   1.000  O
  O29      1.0000 0.64460  0.61130  0.22276  Biso   1.000  O
  O30      1.0000 0.64460  0.64600  0.29630  Biso   1.000  O
  O31      1.0000 0.32240  0.60070  0.44987  Biso   1.000  O
  O32      1.0000 0.31460  0.77260  0.49068  Biso   1.000  O
  O33      1.0000 0.60600  0.61620  0.50988  Biso   1.000  O
  O34      1.0000 0.65860  0.48590  0.45385  Biso   1.000  O
  O35      1.0000 0.52290  0.74990  0.07098  Biso   1.000  O
  O36      1.0000 0.54910  0.14610  0.11148  Biso   1.000  O
  O37      1.0000 0.40340  0.68010  0.17502  Biso   1.000  O
  O38      1.0000 0.31650  0.73650  0.31710  Biso   1.000  O
  O39      1.0000 0.54020  0.88520  0.30510  Biso   1.000  O
  O40      1.0000 0.28790  0.85930  0.22749  Biso   1.000  O
  O41      1.0000 0.35640  0.04930  0.24506  Biso   1.000  O
  O42      1.0000 0.29210  0.01560  0.14169  Biso   1.000  O
  O43      1.0000 0.26410  0.83580  0.10955  Biso   1.000  O
  O44      1.0000 0.61610  0.86960  0.21779  Biso   1.000  O
  O45      1.0000 0.56220  0.90370  0.14558  Biso   1.000  O
  O46      1.0000 0.64460  0.11130  0.27724  Biso   1.000  O
  O47      1.0000 0.64460  0.14600  0.20370  Biso   1.000  O
  O48      1.0000 0.32240  0.10070  0.05013  Biso   1.000  O
  O49      1.0000 0.31460  0.27260  0.00932  Biso   1.000  O
  O50      1.0000 0.60600  0.11620  0.99012  Biso   1.000  O
  O51      1.0000 0.65860  0.98590  0.04615  Biso   1.000  O
  O52      1.0000 0.47710  0.75010  0.57098  Biso   1.000  O
  O53      1.0000 0.45090  0.35390  0.61148  Biso   1.000  O
  O54      1.0000 0.59660  0.81990  0.67502  Biso   1.000  O
  O55      1.0000 0.68350  0.76350  0.81710  Biso   1.000  O
  O56      1.0000 0.45980  0.61480  0.80510  Biso   1.000  O
  O57      1.0000 0.71210  0.64070  0.72749  Biso   1.000  O
  O58      1.0000 0.64360  0.45070  0.74506  Biso   1.000  O
  O59      1.0000 0.70790  0.48440  0.64169  Biso   1.000  O
  O60      1.0000 0.73590  0.66420  0.60955  Biso   1.000  O
  O61      1.0000 0.38390  0.63040  0.71779  Biso   1.000  O
  O62      1.0000 0.43780  0.59630  0.64558  Biso   1.000  O
  O63      1.0000 0.35540  0.38870  0.77724  Biso   1.000  O
  O64      1.0000 0.35540  0.35400  0.70370  Biso   1.000  O
  O65      1.0000 0.67760  0.39930  0.55013  Biso   1.000  O
  O66      1.0000 0.68540  0.22740  0.50932  Biso   1.000  O
  O67      1.0000 0.39400  0.38380  0.49012  Biso   1.000  O
  O68      1.0000 0.34140  0.51410  0.54615  Biso   1.000  O
