data_image0
_cell_length_a       8.443
_cell_length_b       13.779
_cell_length_c       10.17
_cell_angle_alpha    90
_cell_angle_beta     91.91
_cell_angle_gamma    90

_symmetry_space_group_name_H-M    "P 1"
_symmetry_int_tables_number       1

loop_
  _symmetry_equiv_pos_as_xyz
  'x, y, z'

loop_
  _atom_site_label
  _atom_site_occupancy
  _atom_site_fract_x
  _atom_site_fract_y
  _atom_site_fract_z
  _atom_site_thermal_displace_type
  _atom_site_B_iso_or_equiv
  _atom_site_type_symbol
  Zn1      1.0000 0.12110  0.92642  0.03960  Biso   1.000  Zn
  Zn2      1.0000 0.62280  0.36910  0.65040  Biso   1.000  Zn
  P1       1.0000 0.81060  0.80620  0.02850  Biso   1.000  P
  P2       1.0000 0.15030  0.11330  0.22580  Biso   1.000  P
  P3       1.0000 0.31090  0.72680  0.05910  Biso   1.000  P
  P4       1.0000 0.65390  0.53700  0.85990  Biso   1.000  P
  O1       1.0000 0.90410  0.89430  0.07450  Biso   1.000  O
  O2       1.0000 0.75460  0.74650  0.14250  Biso   1.000  O
  O3       1.0000 0.66180  0.84760  0.94980  Biso   1.000  O
  O4       1.0000 0.90610  0.74600  0.93060  Biso   1.000  O
  O5       1.0000 0.15680  0.94160  0.85300  Biso   1.000  O
  O6       1.0000 0.99010  0.17000  0.21240  Biso   1.000  O
  O7       1.0000 0.16730  0.05570  0.10290  Biso   1.000  O
  O8       1.0000 0.28360  0.19100  0.22090  Biso   1.000  O
  O9       1.0000 0.25780  0.82470  0.10740  Biso   1.000  O
  O10      1.0000 0.40570  0.67220  0.16310  Biso   1.000  O
  O11      1.0000 0.16240  0.66120  0.02830  Biso   1.000  O
  O12      1.0000 0.40540  0.73560  0.93130  Biso   1.000  O
  O13      1.0000 0.66370  0.54440  0.00610  Biso   1.000  O
  O14      1.0000 0.49060  0.57450  0.80500  Biso   1.000  O
  O15      1.0000 0.78500  0.60220  0.79690  Biso   1.000  O
  O16      1.0000 0.67510  0.43540  0.81170  Biso   1.000  O
  Zn3      1.0000 0.12110  0.07358  0.53960  Biso   1.000  Zn
  Zn4      1.0000 0.62280  0.63090  0.15040  Biso   1.000  Zn
  P5       1.0000 0.81060  0.19380  0.52850  Biso   1.000  P
  P6       1.0000 0.15030  0.88670  0.72580  Biso   1.000  P
  P7       1.0000 0.31090  0.27320  0.55910  Biso   1.000  P
  P8       1.0000 0.65390  0.46300  0.35990  Biso   1.000  P
  O17      1.0000 0.90410  0.10570  0.57450  Biso   1.000  O
  O18      1.0000 0.75460  0.25350  0.64250  Biso   1.000  O
  O19      1.0000 0.66180  0.15240  0.44980  Biso   1.000  O
  O20      1.0000 0.90610  0.25400  0.43060  Biso   1.000  O
  O21      1.0000 0.15680  0.05840  0.35300  Biso   1.000  O
  O22      1.0000 0.99010  0.83000  0.71240  Biso   1.000  O
  O23      1.0000 0.16730  0.94430  0.60290  Biso   1.000  O
  O24      1.0000 0.28360  0.80900  0.72090  Biso   1.000  O
  O25      1.0000 0.25780  0.17530  0.60740  Biso   1.000  O
  O26      1.0000 0.40570  0.32780  0.66310  Biso   1.000  O
  O27      1.0000 0.16240  0.33880  0.52830  Biso   1.000  O
  O28      1.0000 0.40540  0.26440  0.43130  Biso   1.000  O
  O29      1.0000 0.66370  0.45560  0.50610  Biso   1.000  O
  O30      1.0000 0.49060  0.42550  0.30500  Biso   1.000  O
  O31      1.0000 0.78500  0.39780  0.29690  Biso   1.000  O
  O32      1.0000 0.67510  0.56460  0.31170  Biso   1.000  O
