data_image0
_cell_length_a       6.74739
_cell_length_b       15.0551
_cell_length_c       15.0551
_cell_angle_alpha    62.1912
_cell_angle_beta     81.4082
_cell_angle_gamma    98.5918

_symmetry_space_group_name_H-M    P 1
_symmetry_int_tables_number       1

loop_
  _symmetry_equiv_pos_as_xyz
  'x, y, z'

loop_
  _atom_site_label
  _atom_site_occupancy
  _atom_site_fract_x
  _atom_site_fract_y
  _atom_site_fract_z
  _atom_site_thermal_displace_type
  _atom_site_B_iso_or_equiv
  _atom_site_type_symbol
  Ni1      1.0000 0.38325  0.67936  0.58891  Biso   1.000  Ni
  Ni2      1.0000 0.97216  0.58891  0.73173  Biso   1.000  Ni
  Ni3      1.0000 0.70389  0.73173  0.67936  Biso   1.000  Ni
  Ni4      1.0000 0.61675  0.32064  0.41109  Biso   1.000  Ni
  Ni5      1.0000 0.02784  0.41109  0.26827  Biso   1.000  Ni
  Ni6      1.0000 0.29611  0.26827  0.32064  Biso   1.000  Ni
  H1       1.0000 0.69819  0.53715  0.44283  Biso   1.000  H
  H2       1.0000 0.14102  0.44283  0.02002  Biso   1.000  H
  H3       1.0000 0.16104  0.02002  0.53715  Biso   1.000  H
  H4       1.0000 0.30181  0.46285  0.55717  Biso   1.000  H
  H5       1.0000 0.85898  0.55717  0.97998  Biso   1.000  H
  H6       1.0000 0.83896  0.97998  0.46285  Biso   1.000  H
  C1       1.0000 0.75540  0.60580  0.57430  Biso   1.000  C
  C2       1.0000 0.88740  0.55590  0.53310  Biso   1.000  C
  C3       1.0000 0.07620  0.53990  0.56360  Biso   1.000  C
  C4       1.0000 0.82200  0.52350  0.46650  Biso   1.000  C
  C5       1.0000 0.32970  0.57430  0.81990  Biso   1.000  C
  C6       1.0000 0.42050  0.53310  0.91100  Biso   1.000  C
  C7       1.0000 0.63980  0.56360  0.89650  Biso   1.000  C
  C8       1.0000 0.28850  0.46650  0.01000  Biso   1.000  C
  C9       1.0000 0.14960  0.81990  0.60580  Biso   1.000  C
  C10      1.0000 0.33150  0.91100  0.55590  Biso   1.000  C
  C11      1.0000 0.53630  0.89650  0.53990  Biso   1.000  C
  C12      1.0000 0.29850  0.01000  0.52350  Biso   1.000  C
  C13      1.0000 0.24460  0.39420  0.42570  Biso   1.000  C
  C14      1.0000 0.11260  0.44410  0.46690  Biso   1.000  C
  C15      1.0000 0.92380  0.46010  0.43640  Biso   1.000  C
  C16      1.0000 0.17800  0.47650  0.53350  Biso   1.000  C
  C17      1.0000 0.67030  0.42570  0.18010  Biso   1.000  C
  C18      1.0000 0.57950  0.46690  0.08900  Biso   1.000  C
  C19      1.0000 0.36020  0.43640  0.10350  Biso   1.000  C
  C20      1.0000 0.71150  0.53350  0.99000  Biso   1.000  C
  C21      1.0000 0.85040  0.18010  0.39420  Biso   1.000  C
  C22      1.0000 0.66850  0.08900  0.44410  Biso   1.000  C
  C23      1.0000 0.46370  0.10350  0.46010  Biso   1.000  C
  C24      1.0000 0.70150  0.99000  0.47650  Biso   1.000  C
  O1       1.0000 0.59610  0.62750  0.53270  Biso   1.000  O
  O2       1.0000 0.78620  0.64050  0.63030  Biso   1.000  O
  O3       1.0000 0.13450  0.55470  0.63810  Biso   1.000  O
  O4       1.0000 0.12880  0.53270  0.83980  Biso   1.000  O
  O5       1.0000 0.41650  0.63030  0.72920  Biso   1.000  O
  O6       1.0000 0.77260  0.63810  0.80720  Biso   1.000  O
  O7       1.0000 0.96860  0.83980  0.62750  Biso   1.000  O
  O8       1.0000 0.14570  0.72920  0.64050  Biso   1.000  O
  O9       1.0000 0.57980  0.80720  0.55470  Biso   1.000  O
  O10      1.0000 0.40390  0.37250  0.46730  Biso   1.000  O
  O11      1.0000 0.21380  0.35950  0.36970  Biso   1.000  O
  O12      1.0000 0.86550  0.44530  0.36190  Biso   1.000  O
  O13      1.0000 0.87120  0.46730  0.16020  Biso   1.000  O
  O14      1.0000 0.58350  0.36970  0.27080  Biso   1.000  O
  O15      1.0000 0.22740  0.36190  0.19280  Biso   1.000  O
  O16      1.0000 0.03140  0.16020  0.37250  Biso   1.000  O
  O17      1.0000 0.85430  0.27080  0.35950  Biso   1.000  O
  O18      1.0000 0.42020  0.19280  0.44530  Biso   1.000  O
