data_image0
_cell_length_a       8.6482
_cell_length_b       10.3263
_cell_length_c       12.9197
_cell_angle_alpha    112.248
_cell_angle_beta     108.035
_cell_angle_gamma    93.5997

_symmetry_space_group_name_H-M    P 1
_symmetry_int_tables_number       1

loop_
  _symmetry_equiv_pos_as_xyz
  'x, y, z'

loop_
  _atom_site_label
  _atom_site_occupancy
  _atom_site_fract_x
  _atom_site_fract_y
  _atom_site_fract_z
  _atom_site_thermal_displace_type
  _atom_site_B_iso_or_equiv
  _atom_site_type_symbol
  Cd1      1.0000 0.95596  0.47052  0.21379  Biso   1.000  Cd
  Cd2      1.0000 0.30865  0.28980  0.31237  Biso   1.000  Cd
  Cd3      1.0000 0.24217  0.25673  0.78621  Biso   1.000  Cd
  Cd4      1.0000 0.49628  0.97743  0.68763  Biso   1.000  Cd
  H1       1.0000 0.66550  0.37970  0.37120  Biso   1.000  H
  H2       1.0000 0.63730  0.38380  0.47720  Biso   1.000  H
  H3       1.0000 0.34210  0.98470  0.20460  Biso   1.000  H
  H4       1.0000 0.36940  0.06160  0.13620  Biso   1.000  H
  H5       1.0000 0.15590  0.79090  0.45800  Biso   1.000  H
  H6       1.0000 0.50370  0.61080  0.57820  Biso   1.000  H
  H7       1.0000 0.07670  0.45970  0.98380  Biso   1.000  H
  H8       1.0000 0.40020  0.23700  0.05720  Biso   1.000  H
  H9       1.0000 0.88060  0.16430  0.39500  Biso   1.000  H
  H10      1.0000 0.71560  0.11090  0.28320  Biso   1.000  H
  H11      1.0000 0.00730  0.00400  0.27920  Biso   1.000  H
  H12      1.0000 0.84020  0.94930  0.16820  Biso   1.000  H
  H13      1.0000 0.87410  0.92680  0.38280  Biso   1.000  H
  H14      1.0000 0.70970  0.86970  0.27060  Biso   1.000  H
  H15      1.0000 0.79430  0.00850  0.62880  Biso   1.000  H
  H16      1.0000 0.66010  0.90660  0.52280  Biso   1.000  H
  H17      1.0000 0.63750  0.78010  0.79540  Biso   1.000  H
  H18      1.0000 0.73320  0.92540  0.86380  Biso   1.000  H
  H19      1.0000 0.19790  0.33290  0.54200  Biso   1.000  H
  H20      1.0000 0.42550  0.03260  0.42180  Biso   1.000  H
  H21      1.0000 0.59290  0.47590  0.01620  Biso   1.000  H
  H22      1.0000 0.84300  0.17980  0.94280  Biso   1.000  H
  H23      1.0000 0.98560  0.76930  0.60500  Biso   1.000  H
  H24      1.0000 0.93240  0.82770  0.71680  Biso   1.000  H
  H25      1.0000 0.22810  0.72480  0.72080  Biso   1.000  H
  H26      1.0000 0.17200  0.78110  0.83180  Biso   1.000  H
  H27      1.0000 0.99130  0.54400  0.61720  Biso   1.000  H
  H28      1.0000 0.93910  0.59910  0.72940  Biso   1.000  H
  C1       1.0000 0.21788  0.72268  0.46656  Biso   1.000  C
  C2       1.0000 0.40648  0.62568  0.53176  Biso   1.000  C
  C3       1.0000 0.14632  0.41372  0.02224  Biso   1.000  C
  C4       1.0000 0.32081  0.29351  0.06202  Biso   1.000  C
  C5       1.0000 0.89031  0.24341  0.27442  Biso   1.000  C
  C6       1.0000 0.83572  0.12872  0.30824  Biso   1.000  C
  C7       1.0000 0.88731  0.98801  0.25502  Biso   1.000  C
  C8       1.0000 0.82977  0.88397  0.29574  Biso   1.000  C
  C9       1.0000 0.87489  0.73899  0.25258  Biso   1.000  C
  C10      1.0000 0.25132  0.25612  0.53344  Biso   1.000  C
  C11      1.0000 0.37472  0.09392  0.46824  Biso   1.000  C
  C12      1.0000 0.62408  0.39148  0.97776  Biso   1.000  C
  C13      1.0000 0.75879  0.23149  0.93798  Biso   1.000  C
  C14      1.0000 0.11589  0.96899  0.72558  Biso   1.000  C
  C15      1.0000 0.02748  0.82048  0.69176  Biso   1.000  C
  C16      1.0000 0.13229  0.73299  0.74498  Biso   1.000  C
  C17      1.0000 0.03403  0.58823  0.70426  Biso   1.000  C
  C18      1.0000 0.12231  0.48641  0.74742  Biso   1.000  C
  N1       1.0000 0.29420  0.52210  0.43560  Biso   1.000  N
  N2       1.0000 0.16997  0.58637  0.39354  Biso   1.000  N
  N3       1.0000 0.36624  0.75374  0.55528  Biso   1.000  N
  N4       1.0000 0.27108  0.33978  0.15336  Biso   1.000  N
  N5       1.0000 0.15652  0.41892  0.12724  Biso   1.000  N
  N6       1.0000 0.24565  0.33595  0.97630  Biso   1.000  N
  N7       1.0000 0.35860  0.08650  0.56440  Biso   1.000  N
  N8       1.0000 0.27643  0.19283  0.60646  Biso   1.000  N
  N9       1.0000 0.31096  0.19846  0.44472  Biso   1.000  N
  N10      1.0000 0.61772  0.18642  0.84664  Biso   1.000  N
  N11      1.0000 0.52928  0.29168  0.87276  Biso   1.000  N
  N12      1.0000 0.76935  0.35965  0.02370  Biso   1.000  N
  O1       1.0000 0.00407  0.23507  0.23214  Biso   1.000  O
  O2       1.0000 0.81894  0.34674  0.29068  Biso   1.000  O
  O3       1.0000 0.97800  0.71440  0.20120  Biso   1.000  O
  O4       1.0000 0.80946  0.64656  0.27532  Biso   1.000  O
  O5       1.0000 0.59786  0.38046  0.40712  Biso   1.000  O
  O6       1.0000 0.34083  0.06063  0.19326  Biso   1.000  O
  O7       1.0000 0.27193  0.00293  0.76786  Biso   1.000  O
  O8       1.0000 0.02826  0.05606  0.70932  Biso   1.000  O
  O9       1.0000 0.27680  0.51320  0.79880  Biso   1.000  O
  O10      1.0000 0.03414  0.37124  0.72468  Biso   1.000  O
  O11      1.0000 0.69074  0.97334  0.59288  Biso   1.000  O
  O12      1.0000 0.64757  0.86737  0.80674  Biso   1.000  O
