data_image0
_cell_length_a       11.521
_cell_length_b       11.6637
_cell_length_c       11.853
_cell_angle_alpha    92.926
_cell_angle_beta     93.35
_cell_angle_gamma    113.619

_symmetry_space_group_name_H-M    "P 1"
_symmetry_int_tables_number       1

loop_
  _symmetry_equiv_pos_as_xyz
  'x, y, z'

loop_
  _atom_site_label
  _atom_site_occupancy
  _atom_site_fract_x
  _atom_site_fract_y
  _atom_site_fract_z
  _atom_site_thermal_displace_type
  _atom_site_B_iso_or_equiv
  _atom_site_type_symbol
  O1       1.0000 0.38620  0.00160  0.34780  Biso   1.000  O
  O2       1.0000 0.41070  0.79630  0.46260  Biso   1.000  O
  O3       1.0000 0.34990  0.99210  0.60750  Biso   1.000  O
  C1       1.0000 0.33700  0.07510  0.31500  Biso   1.000  C
  C2       1.0000 0.33380  0.17610  0.38130  Biso   1.000  C
  C3       1.0000 0.28430  0.25560  0.34070  Biso   1.000  C
  C4       1.0000 0.22940  0.23080  0.22940  Biso   1.000  C
  C5       1.0000 0.22970  0.13270  0.16660  Biso   1.000  C
  N1       1.0000 0.28190  0.05490  0.20570  Biso   1.000  N
  C6       1.0000 0.28420  0.36590  0.41300  Biso   1.000  C
  C7       1.0000 0.28010  0.94850  0.12980  Biso   1.000  C
  C8       1.0000 0.39560  0.97810  0.06400  Biso   1.000  C
  C9       1.0000 0.42020  0.06010  0.97980  Biso   1.000  C
  C10      1.0000 0.47800  0.92020  0.08520  Biso   1.000  C
  C11      1.0000 0.37530  0.72990  0.36910  Biso   1.000  C
  C12      1.0000 0.45380  0.68990  0.30520  Biso   1.000  C
  C13      1.0000 0.41270  0.61530  0.20870  Biso   1.000  C
  C14      1.0000 0.28540  0.57670  0.16580  Biso   1.000  C
  C15      1.0000 0.20890  0.61460  0.22750  Biso   1.000  C
  N2       1.0000 0.25180  0.68940  0.32540  Biso   1.000  N
  C16      1.0000 0.49740  0.57060  0.14360  Biso   1.000  C
  C17      1.0000 0.15900  0.71880  0.38830  Biso   1.000  C
  C18      1.0000 0.07440  0.60480  0.44670  Biso   1.000  C
  C19      1.0000 0.12830  0.56040  0.53240  Biso   1.000  C
  C20      1.0000 0.94810  0.54440  0.41510  Biso   1.000  C
  C21      1.0000 0.29770  0.92140  0.68160  Biso   1.000  C
  C22      1.0000 0.32850  0.82210  0.71880  Biso   1.000  C
  C23      1.0000 0.26880  0.74640  0.79990  Biso   1.000  C
  C24      1.0000 0.16840  0.76420  0.84700  Biso   1.000  C
  C25      1.0000 0.13710  0.85780  0.81580  Biso   1.000  C
  N3       1.0000 0.20010  0.93630  0.73370  Biso   1.000  N
  C26      1.0000 0.30810  0.64400  0.83700  Biso   1.000  C
  C27      1.0000 0.16880  0.04110  0.70590  Biso   1.000  C
  C28      1.0000 0.08140  0.01700  0.59940  Biso   1.000  C
  C29      1.0000 0.05560  0.11550  0.55900  Biso   1.000  C
  C30      1.0000 0.02430  0.90290  0.53780  Biso   1.000  C
  H1       1.0000 0.36710  0.18970  0.45650  Biso   1.000  H
  H2       1.0000 0.19300  0.28200  0.19930  Biso   1.000  H
  H3       1.0000 0.19240  0.11680  0.09260  Biso   1.000  H
  H4       1.0000 0.30200  0.43620  0.36800  Biso   1.000  H
  H5       1.0000 0.38420  0.38770  0.47530  Biso   1.000  H
  H6       1.0000 0.20230  0.34390  0.44150  Biso   1.000  H
  H7       1.0000 0.20520  0.92060  0.07640  Biso   1.000  H
  H8       1.0000 0.27210  0.87940  0.17530  Biso   1.000  H
  H9       1.0000 0.36810  0.10250  0.96640  Biso   1.000  H
  H10      1.0000 0.46490  0.86730  0.14370  Biso   1.000  H
  H11      1.0000 0.53890  0.71680  0.33160  Biso   1.000  H
  H12      1.0000 0.25440  0.52720  0.09780  Biso   1.000  H
  H13      1.0000 0.12380  0.58790  0.20130  Biso   1.000  H
  H14      1.0000 0.52110  0.61730  0.07820  Biso   1.000  H
  H15      1.0000 0.45260  0.48300  0.11990  Biso   1.000  H
  H16      1.0000 0.57240  0.58320  0.19130  Biso   1.000  H
  H17      1.0000 0.10670  0.74360  0.33630  Biso   1.000  H
  H18      1.0000 0.20370  0.78850  0.44460  Biso   1.000  H
  H19      1.0000 0.21490  0.60040  0.55470  Biso   1.000  H
  H20      1.0000 0.91190  0.57370  0.35720  Biso   1.000  H
  H21      1.0000 0.39350  0.80820  0.68570  Biso   1.000  H
  H22      1.0000 0.12340  0.71130  0.89990  Biso   1.000  H
  H23      1.0000 0.07190  0.87060  0.84950  Biso   1.000  H
  H24      1.0000 0.24560  0.56370  0.80640  Biso   1.000  H
  H25      1.0000 0.31480  0.64650  0.91830  Biso   1.000  H
  H26      1.0000 0.38900  0.65670  0.80990  Biso   1.000  H
  H27      1.0000 0.24710  0.11310  0.69760  Biso   1.000  H
  H28      1.0000 0.12910  0.06260  0.76880  Biso   1.000  H
  H29      1.0000 0.09270  0.19470  0.59790  Biso   1.000  H
  H30      1.0000 0.03990  0.83550  0.56220  Biso   1.000  H
  O4       1.0000 0.61380  0.99840  0.65220  Biso   1.000  O
  O5       1.0000 0.58930  0.20370  0.53740  Biso   1.000  O
  O6       1.0000 0.65010  0.00790  0.39250  Biso   1.000  O
  C31      1.0000 0.66300  0.92490  0.68500  Biso   1.000  C
  C32      1.0000 0.66620  0.82390  0.61870  Biso   1.000  C
  C33      1.0000 0.71570  0.74440  0.65930  Biso   1.000  C
  C34      1.0000 0.77060  0.76920  0.77060  Biso   1.000  C
  C35      1.0000 0.77030  0.86730  0.83340  Biso   1.000  C
  N4       1.0000 0.71810  0.94510  0.79430  Biso   1.000  N
  C36      1.0000 0.71580  0.63410  0.58700  Biso   1.000  C
  C37      1.0000 0.71990  0.05150  0.87020  Biso   1.000  C
  C38      1.0000 0.60440  0.02190  0.93600  Biso   1.000  C
  C39      1.0000 0.57980  0.93990  0.02020  Biso   1.000  C
  C40      1.0000 0.52200  0.07980  0.91480  Biso   1.000  C
  C41      1.0000 0.62470  0.27010  0.63090  Biso   1.000  C
  C42      1.0000 0.54620  0.31010  0.69480  Biso   1.000  C
  C43      1.0000 0.58730  0.38470  0.79130  Biso   1.000  C
  C44      1.0000 0.71460  0.42330  0.83420  Biso   1.000  C
  C45      1.0000 0.79110  0.38540  0.77250  Biso   1.000  C
  N5       1.0000 0.74820  0.31060  0.67460  Biso   1.000  N
  C46      1.0000 0.50260  0.42940  0.85640  Biso   1.000  C
  C47      1.0000 0.84100  0.28120  0.61170  Biso   1.000  C
  C48      1.0000 0.92560  0.39520  0.55330  Biso   1.000  C
  C49      1.0000 0.87170  0.43960  0.46760  Biso   1.000  C
  C50      1.0000 0.05190  0.45560  0.58490  Biso   1.000  C
  C51      1.0000 0.70230  0.07860  0.31840  Biso   1.000  C
  C52      1.0000 0.67150  0.17790  0.28120  Biso   1.000  C
  C53      1.0000 0.73120  0.25360  0.20010  Biso   1.000  C
  C54      1.0000 0.83160  0.23580  0.15300  Biso   1.000  C
  C55      1.0000 0.86290  0.14220  0.18420  Biso   1.000  C
  N6       1.0000 0.79990  0.06370  0.26630  Biso   1.000  N
  C56      1.0000 0.69190  0.35600  0.16300  Biso   1.000  C
  C57      1.0000 0.83120  0.95890  0.29410  Biso   1.000  C
  C58      1.0000 0.91860  0.98300  0.40060  Biso   1.000  C
  C59      1.0000 0.94440  0.88450  0.44100  Biso   1.000  C
  C60      1.0000 0.97570  0.09710  0.46220  Biso   1.000  C
  H31      1.0000 0.63290  0.81030  0.54350  Biso   1.000  H
  H32      1.0000 0.80700  0.71800  0.80070  Biso   1.000  H
  H33      1.0000 0.80760  0.88320  0.90740  Biso   1.000  H
  H34      1.0000 0.69800  0.56380  0.63200  Biso   1.000  H
  H35      1.0000 0.61580  0.61230  0.52470  Biso   1.000  H
  H36      1.0000 0.79770  0.65610  0.55850  Biso   1.000  H
  H37      1.0000 0.79480  0.07940  0.92360  Biso   1.000  H
  H38      1.0000 0.72790  0.12060  0.82470  Biso   1.000  H
  H39      1.0000 0.63190  0.89750  0.03360  Biso   1.000  H
  H40      1.0000 0.53510  0.13270  0.85630  Biso   1.000  H
  H41      1.0000 0.46110  0.28320  0.66840  Biso   1.000  H
  H42      1.0000 0.74560  0.47280  0.90220  Biso   1.000  H
  H43      1.0000 0.87620  0.41210  0.79870  Biso   1.000  H
  H44      1.0000 0.47890  0.38270  0.92180  Biso   1.000  H
  H45      1.0000 0.54740  0.51700  0.88010  Biso   1.000  H
  H46      1.0000 0.42760  0.41680  0.80870  Biso   1.000  H
  H47      1.0000 0.89330  0.25640  0.66370  Biso   1.000  H
  H48      1.0000 0.79630  0.21150  0.55540  Biso   1.000  H
  H49      1.0000 0.78510  0.39960  0.44530  Biso   1.000  H
  H50      1.0000 0.08810  0.42630  0.64280  Biso   1.000  H
  H51      1.0000 0.60650  0.19180  0.31430  Biso   1.000  H
  H52      1.0000 0.87660  0.28870  0.10010  Biso   1.000  H
  H53      1.0000 0.92810  0.12940  0.15050  Biso   1.000  H
  H54      1.0000 0.75440  0.43630  0.19360  Biso   1.000  H
  H55      1.0000 0.68520  0.35350  0.08170  Biso   1.000  H
  H56      1.0000 0.61100  0.34330  0.19010  Biso   1.000  H
  H57      1.0000 0.75290  0.88690  0.30240  Biso   1.000  H
  H58      1.0000 0.87090  0.93740  0.23120  Biso   1.000  H
  H59      1.0000 0.90730  0.80530  0.40210  Biso   1.000  H
  H60      1.0000 0.96010  0.16450  0.43780  Biso   1.000  H
  Mn1      1.0000 0.50000  0.00000  0.50000  Biso   1.000  Mn
