data_image0
_cell_length_a       15.3645
_cell_length_b       15.1275
_cell_length_c       8.311
_cell_angle_alpha    90
_cell_angle_beta     91.85
_cell_angle_gamma    90

_symmetry_space_group_name_H-M    "P 1"
_symmetry_int_tables_number       1

loop_
  _symmetry_equiv_pos_as_xyz
  'x, y, z'

loop_
  _atom_site_label
  _atom_site_occupancy
  _atom_site_fract_x
  _atom_site_fract_y
  _atom_site_fract_z
  _atom_site_thermal_displace_type
  _atom_site_B_iso_or_equiv
  _atom_site_type_symbol
  C1       1.0000 0.31891  0.08566  0.94850  Biso   1.000  C
  H1       1.0000 0.36540  0.11680  0.90750  Biso   1.000  H
  C2       1.0000 0.32046  0.99369  0.94180  Biso   1.000  C
  C3       1.0000 0.24856  0.94827  0.99860  Biso   1.000  C
  H2       1.0000 0.24690  0.88690  0.99390  Biso   1.000  H
  C4       1.0000 0.17920  0.99466  0.06240  Biso   1.000  C
  C5       1.0000 0.18564  0.08643  0.06960  Biso   1.000  C
  H3       1.0000 0.14120  0.11800  0.11650  Biso   1.000  H
  C6       1.0000 0.39708  0.94669  0.87890  Biso   1.000  C
  C7       1.0000 0.44677  0.98402  0.75780  Biso   1.000  C
  H4       1.0000 0.43170  0.03890  0.71490  Biso   1.000  H
  C8       1.0000 0.51850  0.93901  0.70210  Biso   1.000  C
  H5       1.0000 0.55100  0.96410  0.62140  Biso   1.000  H
  C9       1.0000 0.54262  0.85711  0.76450  Biso   1.000  C
  C10      1.0000 0.49321  0.81980  0.88490  Biso   1.000  C
  H6       1.0000 0.50880  0.76510  0.92820  Biso   1.000  H
  C11      1.0000 0.42089  0.86391  0.94020  Biso   1.000  C
  H7       1.0000 0.38780  0.83800  0.01930  Biso   1.000  H
  C12      1.0000 0.62220  0.80932  0.70910  Biso   1.000  C
  C13      1.0000 0.09982  0.94891  0.11730  Biso   1.000  C
  C14      1.0000 0.05087  0.98305  0.24230  Biso   1.000  C
  H8       1.0000 0.06740  0.03580  0.29200  Biso   1.000  H
  C15      1.0000 0.97769  0.93819  0.29190  Biso   1.000  C
  H9       1.0000 0.94550  0.96120  0.37500  Biso   1.000  H
  C16      1.0000 0.95166  0.85921  0.21910  Biso   1.000  C
  C17      1.0000 0.99998  0.82549  0.09450  Biso   1.000  C
  H10      1.0000 0.98310  0.77280  0.04500  Biso   1.000  H
  C18      1.0000 0.07309  0.86973  0.04340  Biso   1.000  C
  H11      1.0000 0.10460  0.84670  0.95950  Biso   1.000  H
  C19      1.0000 0.87129  0.81102  0.27040  Biso   1.000  C
  N1       1.0000 0.25331  0.13139  0.01161  Biso   1.000  N
  O1       1.0000 0.83227  0.84231  0.38890  Biso   1.000  O
  O2       1.0000 0.84779  0.74259  0.19490  Biso   1.000  O
  O3       1.0000 0.65994  0.84146  0.58970  Biso   1.000  O
  O4       1.0000 0.64650  0.74045  0.78220  Biso   1.000  O
  Zn1      1.0000 0.25410  0.26728  0.01296  Biso   1.000  Zn
  C20      1.0000 0.68109  0.58566  0.55150  Biso   1.000  C
  H12      1.0000 0.63460  0.61680  0.59250  Biso   1.000  H
  C21      1.0000 0.67954  0.49369  0.55820  Biso   1.000  C
  C22      1.0000 0.75144  0.44827  0.50140  Biso   1.000  C
  H13      1.0000 0.75310  0.38690  0.50610  Biso   1.000  H
  C23      1.0000 0.82080  0.49466  0.43760  Biso   1.000  C
  C24      1.0000 0.81436  0.58643  0.43040  Biso   1.000  C
  H14      1.0000 0.85880  0.61800  0.38350  Biso   1.000  H
  C25      1.0000 0.60292  0.44669  0.62110  Biso   1.000  C
  C26      1.0000 0.55323  0.48402  0.74220  Biso   1.000  C
  H15      1.0000 0.56830  0.53890  0.78510  Biso   1.000  H
  C27      1.0000 0.48150  0.43901  0.79790  Biso   1.000  C
  H16      1.0000 0.44900  0.46410  0.87860  Biso   1.000  H
  C28      1.0000 0.45738  0.35711  0.73550  Biso   1.000  C
  C29      1.0000 0.50679  0.31980  0.61510  Biso   1.000  C
  H17      1.0000 0.49120  0.26510  0.57180  Biso   1.000  H
  C30      1.0000 0.57911  0.36391  0.55980  Biso   1.000  C
  H18      1.0000 0.61220  0.33800  0.48070  Biso   1.000  H
  C31      1.0000 0.37780  0.30932  0.79090  Biso   1.000  C
  C32      1.0000 0.90018  0.44891  0.38270  Biso   1.000  C
  C33      1.0000 0.94913  0.48305  0.25770  Biso   1.000  C
  H19      1.0000 0.93260  0.53580  0.20800  Biso   1.000  H
  C34      1.0000 0.02231  0.43819  0.20810  Biso   1.000  C
  H20      1.0000 0.05450  0.46120  0.12500  Biso   1.000  H
  C35      1.0000 0.04834  0.35921  0.28090  Biso   1.000  C
  C36      1.0000 0.00002  0.32549  0.40550  Biso   1.000  C
  H21      1.0000 0.01690  0.27280  0.45500  Biso   1.000  H
  C37      1.0000 0.92691  0.36973  0.45660  Biso   1.000  C
  H22      1.0000 0.89540  0.34670  0.54050  Biso   1.000  H
  C38      1.0000 0.12871  0.31102  0.22960  Biso   1.000  C
  N2       1.0000 0.74669  0.63139  0.48839  Biso   1.000  N
  O5       1.0000 0.16773  0.34231  0.11110  Biso   1.000  O
  O6       1.0000 0.15221  0.24259  0.30510  Biso   1.000  O
  O7       1.0000 0.34006  0.34146  0.91030  Biso   1.000  O
  O8       1.0000 0.35350  0.24045  0.71780  Biso   1.000  O
  Zn2      1.0000 0.74590  0.76728  0.48704  Biso   1.000  Zn
  C39      1.0000 0.68109  0.91434  0.05150  Biso   1.000  C
  H23      1.0000 0.63460  0.88320  0.09250  Biso   1.000  H
  C40      1.0000 0.67954  0.00631  0.05820  Biso   1.000  C
  C41      1.0000 0.75144  0.05173  0.00140  Biso   1.000  C
  H24      1.0000 0.75310  0.11310  0.00610  Biso   1.000  H
  C42      1.0000 0.82080  0.00534  0.93760  Biso   1.000  C
  C43      1.0000 0.81436  0.91357  0.93040  Biso   1.000  C
  H25      1.0000 0.85880  0.88200  0.88350  Biso   1.000  H
  C44      1.0000 0.60292  0.05331  0.12110  Biso   1.000  C
  C45      1.0000 0.55323  0.01598  0.24220  Biso   1.000  C
  H26      1.0000 0.56830  0.96110  0.28510  Biso   1.000  H
  C46      1.0000 0.48150  0.06099  0.29790  Biso   1.000  C
  H27      1.0000 0.44900  0.03590  0.37860  Biso   1.000  H
  C47      1.0000 0.45738  0.14289  0.23550  Biso   1.000  C
  C48      1.0000 0.50679  0.18020  0.11510  Biso   1.000  C
  H28      1.0000 0.49120  0.23490  0.07180  Biso   1.000  H
  C49      1.0000 0.57911  0.13609  0.05980  Biso   1.000  C
  H29      1.0000 0.61220  0.16200  0.98070  Biso   1.000  H
  C50      1.0000 0.37780  0.19068  0.29090  Biso   1.000  C
  C51      1.0000 0.90018  0.05109  0.88270  Biso   1.000  C
  C52      1.0000 0.94913  0.01695  0.75770  Biso   1.000  C
  H30      1.0000 0.93260  0.96420  0.70800  Biso   1.000  H
  C53      1.0000 0.02231  0.06181  0.70810  Biso   1.000  C
  H31      1.0000 0.05450  0.03880  0.62500  Biso   1.000  H
  C54      1.0000 0.04834  0.14079  0.78090  Biso   1.000  C
  C55      1.0000 0.00002  0.17451  0.90550  Biso   1.000  C
  H32      1.0000 0.01690  0.22720  0.95500  Biso   1.000  H
  C56      1.0000 0.92691  0.13027  0.95660  Biso   1.000  C
  H33      1.0000 0.89540  0.15330  0.04050  Biso   1.000  H
  C57      1.0000 0.12871  0.18898  0.72960  Biso   1.000  C
  N3       1.0000 0.74669  0.86861  0.98839  Biso   1.000  N
  O9       1.0000 0.16773  0.15769  0.61110  Biso   1.000  O
  O10      1.0000 0.15221  0.25741  0.80510  Biso   1.000  O
  O11      1.0000 0.34006  0.15854  0.41030  Biso   1.000  O
  O12      1.0000 0.35350  0.25955  0.21780  Biso   1.000  O
  Zn3      1.0000 0.74590  0.73272  0.98704  Biso   1.000  Zn
  C58      1.0000 0.31891  0.41434  0.44850  Biso   1.000  C
  H34      1.0000 0.36540  0.38320  0.40750  Biso   1.000  H
  C59      1.0000 0.32046  0.50631  0.44180  Biso   1.000  C
  C60      1.0000 0.24856  0.55173  0.49860  Biso   1.000  C
  H35      1.0000 0.24690  0.61310  0.49390  Biso   1.000  H
  C61      1.0000 0.17920  0.50534  0.56240  Biso   1.000  C
  C62      1.0000 0.18564  0.41357  0.56960  Biso   1.000  C
  H36      1.0000 0.14120  0.38200  0.61650  Biso   1.000  H
  C63      1.0000 0.39708  0.55331  0.37890  Biso   1.000  C
  C64      1.0000 0.44677  0.51598  0.25780  Biso   1.000  C
  H37      1.0000 0.43170  0.46110  0.21490  Biso   1.000  H
  C65      1.0000 0.51850  0.56099  0.20210  Biso   1.000  C
  H38      1.0000 0.55100  0.53590  0.12140  Biso   1.000  H
  C66      1.0000 0.54262  0.64289  0.26450  Biso   1.000  C
  C67      1.0000 0.49321  0.68020  0.38490  Biso   1.000  C
  H39      1.0000 0.50880  0.73490  0.42820  Biso   1.000  H
  C68      1.0000 0.42089  0.63609  0.44020  Biso   1.000  C
  H40      1.0000 0.38780  0.66200  0.51930  Biso   1.000  H
  C69      1.0000 0.62220  0.69068  0.20910  Biso   1.000  C
  C70      1.0000 0.09982  0.55109  0.61730  Biso   1.000  C
  C71      1.0000 0.05087  0.51695  0.74230  Biso   1.000  C
  H41      1.0000 0.06740  0.46420  0.79200  Biso   1.000  H
  C72      1.0000 0.97769  0.56181  0.79190  Biso   1.000  C
  H42      1.0000 0.94550  0.53880  0.87500  Biso   1.000  H
  C73      1.0000 0.95166  0.64079  0.71910  Biso   1.000  C
  C74      1.0000 0.99998  0.67451  0.59450  Biso   1.000  C
  H43      1.0000 0.98310  0.72720  0.54500  Biso   1.000  H
  C75      1.0000 0.07309  0.63027  0.54340  Biso   1.000  C
  H44      1.0000 0.10460  0.65330  0.45950  Biso   1.000  H
  C76      1.0000 0.87129  0.68898  0.77040  Biso   1.000  C
  N4       1.0000 0.25331  0.36861  0.51161  Biso   1.000  N
  O13      1.0000 0.83227  0.65769  0.88890  Biso   1.000  O
  O14      1.0000 0.84779  0.75741  0.69490  Biso   1.000  O
  O15      1.0000 0.65994  0.65854  0.08970  Biso   1.000  O
  O16      1.0000 0.64650  0.75955  0.28220  Biso   1.000  O
  Zn4      1.0000 0.25410  0.23272  0.51296  Biso   1.000  Zn
