data_image0
_cell_length_a       11.4712
_cell_length_b       11.6147
_cell_length_c       19.8781
_cell_angle_alpha    81.156
_cell_angle_beta     74.921
_cell_angle_gamma    65.987

_symmetry_space_group_name_H-M    "P 1"
_symmetry_int_tables_number       1

loop_
  _symmetry_equiv_pos_as_xyz
  'x, y, z'

loop_
  _atom_site_label
  _atom_site_occupancy
  _atom_site_fract_x
  _atom_site_fract_y
  _atom_site_fract_z
  _atom_site_thermal_displace_type
  _atom_site_B_iso_or_equiv
  _atom_site_type_symbol
  N1       1.0000 0.32210  0.64870  0.01290  Biso   1.000  N
  N2       1.0000 0.14570  0.82610  0.01260  Biso   1.000  N
  N3       1.0000 0.45470  0.42600  0.10690  Biso   1.000  N
  N4       1.0000 0.10050  0.01770  0.89110  Biso   1.000  N
  N5       1.0000 0.02510  0.52340  0.10050  Biso   1.000  N
  O1       1.0000 0.39210  0.41950  0.96890  Biso   1.000  O
  O2       1.0000 0.19500  0.45480  0.95500  Biso   1.000  O
  O3       1.0000 0.95200  0.68700  0.96740  Biso   1.000  O
  O4       1.0000 0.92360  0.88550  0.97190  Biso   1.000  O
  C1       1.0000 0.27240  0.49000  0.97140  Biso   1.000  C
  C2       1.0000 0.23180  0.62150  0.99210  Biso   1.000  C
  C3       1.0000 0.12160  0.73160  0.99260  Biso   1.000  C
  C4       1.0000 0.26560  0.77090  0.02490  Biso   1.000  C
  H1       1.0000 0.30680  0.81460  0.04070  Biso   1.000  H
  C5       1.0000 0.99070  0.76820  0.97590  Biso   1.000  C
  C6       1.0000 0.42460  0.49380  0.15940  Biso   1.000  C
  H2       1.0000 0.41090  0.58050  0.15020  Biso   1.000  H
  C7       1.0000 0.41120  0.44780  0.22790  Biso   1.000  C
  H3       1.0000 0.38810  0.50280  0.26410  Biso   1.000  H
  C8       1.0000 0.43120  0.32220  0.24400  Biso   1.000  C
  C9       1.0000 0.46200  0.25030  0.18680  Biso   1.000  C
  H4       1.0000 0.47560  0.16350  0.19410  Biso   1.000  H
  C10      1.0000 0.47270  0.30440  0.12020  Biso   1.000  C
  H5       1.0000 0.49370  0.25350  0.08230  Biso   1.000  H
  C11      1.0000 0.41510  0.26880  0.31680  Biso   1.000  C
  C12      1.0000 0.42730  0.32590  0.36810  Biso   1.000  C
  H6       1.0000 0.44870  0.39850  0.35650  Biso   1.000  H
  C13      1.0000 0.40850  0.27870  0.43810  Biso   1.000  C
  H7       1.0000 0.41940  0.31870  0.47300  Biso   1.000  H
  C14      1.0000 0.37450  0.17440  0.45680  Biso   1.000  C
  C15      1.0000 0.36540  0.11850  0.40450  Biso   1.000  C
  H8       1.0000 0.34610  0.04480  0.41510  Biso   1.000  H
  C16      1.0000 0.38370  0.16620  0.33550  Biso   1.000  C
  H9       1.0000 0.37390  0.12550  0.30060  Biso   1.000  H
  C17      1.0000 0.34330  0.13360  0.53200  Biso   1.000  C
  C18      1.0000 0.37730  0.17500  0.58380  Biso   1.000  C
  H10      1.0000 0.42750  0.22590  0.57030  Biso   1.000  H
  C19      1.0000 0.34070  0.14470  0.65350  Biso   1.000  C
  H11      1.0000 0.36550  0.17470  0.68720  Biso   1.000  H
  C20      1.0000 0.26700  0.06990  0.67480  Biso   1.000  C
  C21      1.0000 0.23910  0.02580  0.62370  Biso   1.000  C
  H12      1.0000 0.19250  0.97150  0.63710  Biso   1.000  H
  C22      1.0000 0.27530  0.05600  0.55330  Biso   1.000  C
  H13      1.0000 0.25310  0.02300  0.51980  Biso   1.000  H
  C23      1.0000 0.21350  0.04720  0.74920  Biso   1.000  C
  C24      1.0000 0.27400  0.04420  0.80270  Biso   1.000  C
  H14      1.0000 0.35510  0.05420  0.79130  Biso   1.000  H
  C25      1.0000 0.21680  0.02680  0.87190  Biso   1.000  C
  H15      1.0000 0.26210  0.02120  0.90680  Biso   1.000  H
  C26      1.0000 0.09030  0.04000  0.77210  Biso   1.000  C
  H16      1.0000 0.04150  0.04510  0.73890  Biso   1.000  H
  C27      1.0000 0.03940  0.02550  0.84220  Biso   1.000  C
  H17      1.0000 0.95560  0.02080  0.85590  Biso   1.000  H
  C28      1.0000 0.11560  0.43200  0.12940  Biso   1.000  C
  H18      1.0000 0.18080  0.36690  0.10100  Biso   1.000  H
  C29      1.0000 0.12030  0.42630  0.19790  Biso   1.000  C
  H19      1.0000 0.18570  0.35690  0.21600  Biso   1.000  H
  C30      1.0000 0.03050  0.52100  0.24100  Biso   1.000  C
  C31      1.0000 0.93890  0.61980  0.20860  Biso   1.000  C
  H20      1.0000 0.87570  0.68930  0.23460  Biso   1.000  H
  C32      1.0000 0.94020  0.61640  0.14010  Biso   1.000  C
  H21      1.0000 0.87670  0.68450  0.11990  Biso   1.000  H
  C33      1.0000 0.02720  0.51730  0.31610  Biso   1.000  C
  C34      1.0000 0.06390  0.40090  0.35430  Biso   1.000  C
  H22      1.0000 0.09670  0.32500  0.33080  Biso   1.000  H
  C35      1.0000 0.05310  0.39480  0.42530  Biso   1.000  C
  H23      1.0000 0.07760  0.31480  0.45000  Biso   1.000  H
  C36      1.0000 0.00720  0.50360  0.46130  Biso   1.000  C
  C37      1.0000 0.98410  0.61070  0.42310  Biso   1.000  C
  H24      1.0000 0.95860  0.68660  0.44540  Biso   1.000  H
  C38      1.0000 0.99560  0.61660  0.35150  Biso   1.000  C
  H25      1.0000 0.97980  0.69640  0.32680  Biso   1.000  H
  N6       1.0000 0.67790  0.35130  0.98710  Biso   1.000  N
  N7       1.0000 0.85430  0.17390  0.98740  Biso   1.000  N
  N8       1.0000 0.54530  0.57400  0.89310  Biso   1.000  N
  N9       1.0000 0.89950  0.98230  0.10890  Biso   1.000  N
  N10      1.0000 0.97490  0.47660  0.89950  Biso   1.000  N
  O5       1.0000 0.60790  0.58050  0.03110  Biso   1.000  O
  O6       1.0000 0.80500  0.54520  0.04500  Biso   1.000  O
  O7       1.0000 0.04800  0.31300  0.03260  Biso   1.000  O
  O8       1.0000 0.07640  0.11450  0.02810  Biso   1.000  O
  C39      1.0000 0.72760  0.51000  0.02860  Biso   1.000  C
  C40      1.0000 0.76820  0.37850  0.00790  Biso   1.000  C
  C41      1.0000 0.87840  0.26840  0.00740  Biso   1.000  C
  C42      1.0000 0.73440  0.22910  0.97510  Biso   1.000  C
  H26      1.0000 0.69320  0.18540  0.95930  Biso   1.000  H
  C43      1.0000 0.00930  0.23180  0.02410  Biso   1.000  C
  C44      1.0000 0.57540  0.50620  0.84060  Biso   1.000  C
  H27      1.0000 0.58910  0.41950  0.84980  Biso   1.000  H
  C45      1.0000 0.58880  0.55220  0.77210  Biso   1.000  C
  H28      1.0000 0.61190  0.49720  0.73590  Biso   1.000  H
  C46      1.0000 0.56880  0.67780  0.75600  Biso   1.000  C
  C47      1.0000 0.53800  0.74970  0.81320  Biso   1.000  C
  H29      1.0000 0.52440  0.83650  0.80590  Biso   1.000  H
  C48      1.0000 0.52730  0.69560  0.87980  Biso   1.000  C
  H30      1.0000 0.50630  0.74650  0.91770  Biso   1.000  H
  C49      1.0000 0.58490  0.73120  0.68320  Biso   1.000  C
  C50      1.0000 0.57270  0.67410  0.63190  Biso   1.000  C
  H31      1.0000 0.55130  0.60150  0.64350  Biso   1.000  H
  C51      1.0000 0.59150  0.72130  0.56190  Biso   1.000  C
  H32      1.0000 0.58060  0.68130  0.52700  Biso   1.000  H
  C52      1.0000 0.62550  0.82560  0.54320  Biso   1.000  C
  C53      1.0000 0.63460  0.88150  0.59550  Biso   1.000  C
  H33      1.0000 0.65390  0.95520  0.58490  Biso   1.000  H
  C54      1.0000 0.61630  0.83380  0.66450  Biso   1.000  C
  H34      1.0000 0.62610  0.87450  0.69940  Biso   1.000  H
  C55      1.0000 0.65670  0.86640  0.46800  Biso   1.000  C
  C56      1.0000 0.62270  0.82500  0.41620  Biso   1.000  C
  H35      1.0000 0.57250  0.77410  0.42970  Biso   1.000  H
  C57      1.0000 0.65930  0.85530  0.34650  Biso   1.000  C
  H36      1.0000 0.63450  0.82530  0.31280  Biso   1.000  H
  C58      1.0000 0.73300  0.93010  0.32520  Biso   1.000  C
  C59      1.0000 0.76090  0.97420  0.37630  Biso   1.000  C
  H37      1.0000 0.80750  0.02850  0.36290  Biso   1.000  H
  C60      1.0000 0.72470  0.94400  0.44670  Biso   1.000  C
  H38      1.0000 0.74690  0.97700  0.48020  Biso   1.000  H
  C61      1.0000 0.78650  0.95280  0.25080  Biso   1.000  C
  C62      1.0000 0.72600  0.95580  0.19730  Biso   1.000  C
  H39      1.0000 0.64490  0.94580  0.20870  Biso   1.000  H
  C63      1.0000 0.78320  0.97320  0.12810  Biso   1.000  C
  H40      1.0000 0.73790  0.97880  0.09320  Biso   1.000  H
  C64      1.0000 0.90970  0.96000  0.22790  Biso   1.000  C
  H41      1.0000 0.95850  0.95490  0.26110  Biso   1.000  H
  C65      1.0000 0.96060  0.97450  0.15780  Biso   1.000  C
  H42      1.0000 0.04440  0.97920  0.14410  Biso   1.000  H
  C66      1.0000 0.88440  0.56800  0.87060  Biso   1.000  C
  H43      1.0000 0.81920  0.63310  0.89900  Biso   1.000  H
  C67      1.0000 0.87970  0.57370  0.80210  Biso   1.000  C
  H44      1.0000 0.81430  0.64310  0.78400  Biso   1.000  H
  C68      1.0000 0.96950  0.47900  0.75900  Biso   1.000  C
  C69      1.0000 0.06110  0.38020  0.79140  Biso   1.000  C
  H45      1.0000 0.12430  0.31070  0.76540  Biso   1.000  H
  C70      1.0000 0.05980  0.38360  0.85990  Biso   1.000  C
  H46      1.0000 0.12330  0.31550  0.88010  Biso   1.000  H
  C71      1.0000 0.97280  0.48270  0.68390  Biso   1.000  C
  C72      1.0000 0.93610  0.59910  0.64570  Biso   1.000  C
  H47      1.0000 0.90330  0.67500  0.66920  Biso   1.000  H
  C73      1.0000 0.94690  0.60520  0.57470  Biso   1.000  C
  H48      1.0000 0.92240  0.68520  0.55000  Biso   1.000  H
  C74      1.0000 0.99280  0.49640  0.53870  Biso   1.000  C
  C75      1.0000 0.01590  0.38930  0.57690  Biso   1.000  C
  H49      1.0000 0.04140  0.31340  0.55460  Biso   1.000  H
  C76      1.0000 0.00440  0.38340  0.64850  Biso   1.000  C
  H50      1.0000 0.02020  0.30360  0.67320  Biso   1.000  H
  Co1      1.0000 0.50000  0.50000  0.00000  Biso   1.000  Co
  Co2      1.0000 0.00000  0.50000  0.00000  Biso   1.000  Co
  Co3      1.0000 0.00000  0.00000  0.00000  Biso   1.000  Co
