data_NOQLOV_charged
_audit_creation_date              2014-07-02
_audit_creation_method            'Materials Studio'
_symmetry_space_group_name_H-M    'P1'
_symmetry_Int_Tables_number       1
_symmetry_cell_setting            triclinic
loop_
_symmetry_equiv_pos_as_xyz
  x,y,z
_cell_length_a                    8.6618
_cell_length_b                    9.0311
_cell_length_c                    16.1728
_cell_angle_alpha                 82.6217
_cell_angle_beta                  74.4672
_cell_angle_gamma                 61.3437
loop_
_atom_site_label
_atom_site_type_symbol
_atom_site_fract_x
_atom_site_fract_y
_atom_site_fract_z
_atom_site_U_iso_or_equiv
_atom_site_adp_type
_atom_site_occupancy
In1    In    0.96834   0.02738   0.37063   0.01267  Uiso   1.00
In2    In    0.36635   0.97261   0.62938   0.01267  Uiso   1.00
In3    In    0.08896   0.52739   0.12937   0.01267  Uiso   1.00
In4    In    0.74572   0.47262   0.87062   0.01267  Uiso   1.00
C1     C     0.20283   0.93320   0.49774   0.01267  Uiso   1.00
C2     C     0.10122   0.12400   0.50896   0.01267  Uiso   1.00
C3     C     0.12709   0.22560   0.24882   0.01267  Uiso   1.00
C4     C     0.92285   0.34800   0.26710   0.01267  Uiso   1.00
C5     C     0.63377   0.06680   0.50226   0.01267  Uiso   1.00
C6     C     0.73418   0.87600   0.49104   0.01267  Uiso   1.00
C7     C     0.60151   0.77440   0.75118   0.01267  Uiso   1.00
C8     C     0.53795   0.65200   0.73290   0.01267  Uiso   1.00
C9     C     0.45057   0.43320   0.00226   0.01267  Uiso   1.00
C10    C     0.36018   0.62400   0.99104   0.01267  Uiso   1.00
C11    C     0.12591   0.72560   0.25118   0.01267  Uiso   1.00
C12    C     0.93995   0.84800   0.23290   0.01267  Uiso   1.00
C13    C     0.88603   0.56680   0.99774   0.01267  Uiso   1.00
C14    C     0.97522   0.37600   0.00896   0.01267  Uiso   1.00
C15    C     0.10269   0.27440   0.74882   0.01267  Uiso   1.00
C16    C     0.02085   0.15200   0.76710   0.01267  Uiso   1.00
O1     O     0.17483   0.87102   0.44272   0.01267  Uiso   1.00
O2     O     0.99196   0.20330   0.46278   0.01267  Uiso   1.00
O3     O     0.17510   0.08304   0.28356   0.01267  Uiso   1.00
O4     O     0.82123   0.29840   0.31654   0.01267  Uiso   1.00
O5     O     0.31071   0.84616   0.54462   0.01267  Uiso   1.00
O6     O     0.13951   0.18050   0.56288   0.01267  Uiso   1.00
O7     O     0.23069   0.27676   0.20146   0.01267  Uiso   1.00
O8     O     0.87718   0.49060   0.23004   0.01267  Uiso   1.00
O9     O     0.48857   0.12898   0.55728   0.01267  Uiso   1.00
O10    O     0.65804   0.79670   0.53722   0.01267  Uiso   1.00
O11    O     0.54170   0.91696   0.71644   0.01267  Uiso   1.00
O12    O     0.43617   0.70160   0.68346   0.01267  Uiso   1.00
O13    O     0.70149   0.15384   0.45538   0.01267  Uiso   1.00
O14    O     0.88289   0.81950   0.43712   0.01267  Uiso   1.00
O15    O     0.70891   0.72324   0.79854   0.01267  Uiso   1.00
O16    O     0.59782   0.50940   0.76996   0.01267  Uiso   1.00
O17    O     0.36755   0.37102   0.05728   0.01267  Uiso   1.00
O18    O     0.20474   0.70330   0.03722   0.01267  Uiso   1.00
O19    O     0.20866   0.58304   0.21644   0.01267  Uiso   1.00
O20    O     0.88777   0.79840   0.18346   0.01267  Uiso   1.00
O21    O     0.60533   0.34616   0.95538   0.01267  Uiso   1.00
O22    O     0.45239   0.68050   0.93712   0.01267  Uiso   1.00
O23    O     0.18215   0.77676   0.29854   0.01267  Uiso   1.00
O24    O     0.85722   0.99060   0.26996   0.01267  Uiso   1.00
O25    O     0.79585   0.62898   0.94272   0.01267  Uiso   1.00
O26    O     0.94526   0.29670   0.96278   0.01267  Uiso   1.00
O27    O     0.00814   0.41696   0.78356   0.01267  Uiso   1.00
O28    O     0.86963   0.20160   0.81654   0.01267  Uiso   1.00
O29    O     0.90687   0.65384   0.04462   0.01267  Uiso   1.00
O30    O     0.07001   0.31950   0.06288   0.01267  Uiso   1.00
O31    O     0.25745   0.22324   0.70146   0.01267  Uiso   1.00
O32    O     0.11778   0.00940   0.73004   0.01267  Uiso   1.00
H1     H     0.32640   0.33740   0.46480   0.01267  Uiso   1.00
H2     H     0.17520   0.48880   0.42720   0.01267  Uiso   1.00
H3     H     0.38270   0.60700   0.41740   0.01267  Uiso   1.00
H4     H     0.40440   0.50680   0.34760   0.01267  Uiso   1.00
H5     H     0.51640   0.43000   0.40920   0.01267  Uiso   1.00
H6     H     0.12860   0.66260   0.53520   0.01267  Uiso   1.00
H7     H     0.09120   0.51120   0.57280   0.01267  Uiso   1.00
H8     H     0.40710   0.39300   0.58260   0.01267  Uiso   1.00
H9     H     0.25880   0.49320   0.65240   0.01267  Uiso   1.00
H10    H     0.35560   0.57000   0.59080   0.01267  Uiso   1.00
C17    C     0.26980   0.45880   0.45700   0.01267  Uiso   1.00
C18    C     0.18560   0.54120   0.54300   0.01267  Uiso   1.00
N1     N     0.40693   0.50540   0.40234   0.01267  Uiso   1.00
N2     N     0.31467   0.49460   0.59766   0.01267  Uiso   1.00
H11    H     0.54120   0.83740   0.03520   0.01267  Uiso   1.00
H12    H     0.35240   0.98880   0.07280   0.01267  Uiso   1.00
H13    H     0.55010   0.10700   0.08260   0.01267  Uiso   1.00
H14    H     0.50200   0.00680   0.15240   0.01267  Uiso   1.00
H15    H     0.67560   0.93000   0.09080   0.01267  Uiso   1.00
H16    H     0.41380   0.16260   0.96480   0.01267  Uiso   1.00
H17    H     0.41400   0.01120   0.92720   0.01267  Uiso   1.00
H18    H     0.73970   0.89300   0.91740   0.01267  Uiso   1.00
H19    H     0.66120   0.99320   0.84760   0.01267  Uiso   1.00
H20    H     0.69640   0.07000   0.90920   0.01267  Uiso   1.00
C19    C     0.47680   0.95880   0.04300   0.01267  Uiso   1.00
C20    C     0.47860   0.04120   0.95700   0.01267  Uiso   1.00
N3     N     0.55927   0.00540   0.09766   0.01267  Uiso   1.00
N4     N     0.66233   0.99460   0.90234   0.01267  Uiso   1.00
