data_image0
_cell_length_a       13.741
_cell_length_b       13.972
_cell_length_c       8.8045
_cell_angle_alpha    90
_cell_angle_beta     113.76
_cell_angle_gamma    90

_symmetry_space_group_name_H-M    "P 1"
_symmetry_int_tables_number       1

loop_
  _symmetry_equiv_pos_as_xyz
  'x, y, z'

loop_
  _atom_site_label
  _atom_site_occupancy
  _atom_site_fract_x
  _atom_site_fract_y
  _atom_site_fract_z
  _atom_site_thermal_displace_type
  _atom_site_B_iso_or_equiv
  _atom_site_type_symbol
  O1       1.0000 0.09191  0.57699  0.11564  Biso   1.000  O
  O2       1.0000 0.10206  0.52614  0.88489  Biso   1.000  O
  O3       1.0000 0.18938  0.62701  0.73276  Biso   1.000  O
  H1       1.0000 0.14720  0.58690  0.73790  Biso   1.000  H
  O4       1.0000 0.09520  0.68447  0.40330  Biso   1.000  O
  C1       1.0000 0.12089  0.58576  0.00100  Biso   1.000  C
  C2       1.0000 0.18695  0.67077  0.99850  Biso   1.000  C
  C3       1.0000 0.22013  0.73456  0.13040  Biso   1.000  C
  H2       1.0000 0.20020  0.72440  0.21820  Biso   1.000  H
  C4       1.0000 0.21766  0.68704  0.86640  Biso   1.000  C
  H3       1.0000 0.07070  0.74030  0.36700  Biso   1.000  H
  H4       1.0000 0.11810  0.67500  0.50680  Biso   1.000  H
  O5       1.0000 0.59191  0.07699  0.11564  Biso   1.000  O
  O6       1.0000 0.60206  0.02614  0.88489  Biso   1.000  O
  O7       1.0000 0.68938  0.12701  0.73276  Biso   1.000  O
  H5       1.0000 0.64720  0.08690  0.73790  Biso   1.000  H
  O8       1.0000 0.59520  0.18447  0.40330  Biso   1.000  O
  C5       1.0000 0.62089  0.08576  0.00100  Biso   1.000  C
  C6       1.0000 0.68695  0.17077  0.99850  Biso   1.000  C
  C7       1.0000 0.72013  0.23456  0.13040  Biso   1.000  C
  H6       1.0000 0.70020  0.22440  0.21820  Biso   1.000  H
  C8       1.0000 0.71766  0.18704  0.86640  Biso   1.000  C
  H7       1.0000 0.57070  0.24030  0.36700  Biso   1.000  H
  H8       1.0000 0.61810  0.17500  0.50680  Biso   1.000  H
  O9       1.0000 0.90809  0.57699  0.38436  Biso   1.000  O
  O10      1.0000 0.89794  0.52614  0.61511  Biso   1.000  O
  O11      1.0000 0.81062  0.62701  0.76724  Biso   1.000  O
  H9       1.0000 0.85280  0.58690  0.76210  Biso   1.000  H
  O12      1.0000 0.90480  0.68447  0.09670  Biso   1.000  O
  C9       1.0000 0.87911  0.58576  0.49900  Biso   1.000  C
  C10      1.0000 0.81305  0.67077  0.50150  Biso   1.000  C
  C11      1.0000 0.77987  0.73456  0.36960  Biso   1.000  C
  H10      1.0000 0.79980  0.72440  0.28180  Biso   1.000  H
  C12      1.0000 0.78234  0.68704  0.63360  Biso   1.000  C
  H11      1.0000 0.92930  0.74030  0.13300  Biso   1.000  H
  H12      1.0000 0.88190  0.67500  0.99320  Biso   1.000  H
  O13      1.0000 0.40809  0.07699  0.38436  Biso   1.000  O
  O14      1.0000 0.39794  0.02614  0.61511  Biso   1.000  O
  O15      1.0000 0.31062  0.12701  0.76724  Biso   1.000  O
  H13      1.0000 0.35280  0.08690  0.76210  Biso   1.000  H
  O16      1.0000 0.40480  0.18447  0.09670  Biso   1.000  O
  C13      1.0000 0.37911  0.08576  0.49900  Biso   1.000  C
  C14      1.0000 0.31305  0.17077  0.50150  Biso   1.000  C
  C15      1.0000 0.27987  0.23456  0.36960  Biso   1.000  C
  H14      1.0000 0.29980  0.22440  0.28180  Biso   1.000  H
  C16      1.0000 0.28234  0.18704  0.63360  Biso   1.000  C
  H15      1.0000 0.42930  0.24030  0.13300  Biso   1.000  H
  H16      1.0000 0.38190  0.17500  0.99320  Biso   1.000  H
  O17      1.0000 0.90809  0.42301  0.88436  Biso   1.000  O
  O18      1.0000 0.89794  0.47386  0.11511  Biso   1.000  O
  O19      1.0000 0.81062  0.37299  0.26724  Biso   1.000  O
  H17      1.0000 0.85280  0.41310  0.26210  Biso   1.000  H
  O20      1.0000 0.90480  0.31553  0.59670  Biso   1.000  O
  C17      1.0000 0.87911  0.41424  0.99900  Biso   1.000  C
  C18      1.0000 0.81305  0.32923  0.00150  Biso   1.000  C
  C19      1.0000 0.77987  0.26544  0.86960  Biso   1.000  C
  H18      1.0000 0.79980  0.27560  0.78180  Biso   1.000  H
  C20      1.0000 0.78234  0.31296  0.13360  Biso   1.000  C
  H19      1.0000 0.92930  0.25970  0.63300  Biso   1.000  H
  H20      1.0000 0.88190  0.32500  0.49320  Biso   1.000  H
  O21      1.0000 0.40809  0.92301  0.88436  Biso   1.000  O
  O22      1.0000 0.39794  0.97386  0.11511  Biso   1.000  O
  O23      1.0000 0.31062  0.87299  0.26724  Biso   1.000  O
  H21      1.0000 0.35280  0.91310  0.26210  Biso   1.000  H
  O24      1.0000 0.40480  0.81553  0.59670  Biso   1.000  O
  C21      1.0000 0.37911  0.91424  0.99900  Biso   1.000  C
  C22      1.0000 0.31305  0.82923  0.00150  Biso   1.000  C
  C23      1.0000 0.27987  0.76544  0.86960  Biso   1.000  C
  H22      1.0000 0.29980  0.77560  0.78180  Biso   1.000  H
  C24      1.0000 0.28234  0.81296  0.13360  Biso   1.000  C
  H23      1.0000 0.42930  0.75970  0.63300  Biso   1.000  H
  H24      1.0000 0.38190  0.82500  0.49320  Biso   1.000  H
  O25      1.0000 0.09191  0.42301  0.61564  Biso   1.000  O
  O26      1.0000 0.10206  0.47386  0.38489  Biso   1.000  O
  O27      1.0000 0.18938  0.37299  0.23276  Biso   1.000  O
  H25      1.0000 0.14720  0.41310  0.23790  Biso   1.000  H
  O28      1.0000 0.09520  0.31553  0.90330  Biso   1.000  O
  C25      1.0000 0.12089  0.41424  0.50100  Biso   1.000  C
  C26      1.0000 0.18695  0.32923  0.49850  Biso   1.000  C
  C27      1.0000 0.22013  0.26544  0.63040  Biso   1.000  C
  H26      1.0000 0.20020  0.27560  0.71820  Biso   1.000  H
  C28      1.0000 0.21766  0.31296  0.36640  Biso   1.000  C
  H27      1.0000 0.07070  0.25970  0.86700  Biso   1.000  H
  H28      1.0000 0.11810  0.32500  0.00680  Biso   1.000  H
  O29      1.0000 0.59191  0.92301  0.61564  Biso   1.000  O
  O30      1.0000 0.60206  0.97386  0.38489  Biso   1.000  O
  O31      1.0000 0.68938  0.87299  0.23276  Biso   1.000  O
  H29      1.0000 0.64720  0.91310  0.23790  Biso   1.000  H
  O32      1.0000 0.59520  0.81553  0.90330  Biso   1.000  O
  C29      1.0000 0.62089  0.91424  0.50100  Biso   1.000  C
  C30      1.0000 0.68695  0.82923  0.49850  Biso   1.000  C
  C31      1.0000 0.72013  0.76544  0.63040  Biso   1.000  C
  H30      1.0000 0.70020  0.77560  0.71820  Biso   1.000  H
  C32      1.0000 0.71766  0.81296  0.36640  Biso   1.000  C
  H31      1.0000 0.57070  0.75970  0.86700  Biso   1.000  H
  H32      1.0000 0.61810  0.82500  0.00680  Biso   1.000  H
  Mg1      1.0000 0.00000  0.57780  0.25000  Biso   1.000  Mg
  Mg2      1.0000 0.50000  0.07780  0.25000  Biso   1.000  Mg
  Mg3      1.0000 0.00000  0.42220  0.75000  Biso   1.000  Mg
  Mg4      1.0000 0.50000  0.92220  0.75000  Biso   1.000  Mg
