data_image0
_cell_length_a       13.5104
_cell_length_b       14.1107
_cell_length_c       8.8
_cell_angle_alpha    90
_cell_angle_beta     114.617
_cell_angle_gamma    90

_symmetry_space_group_name_H-M    "P 1"
_symmetry_int_tables_number       1

loop_
  _symmetry_equiv_pos_as_xyz
  'x, y, z'

loop_
  _atom_site_label
  _atom_site_occupancy
  _atom_site_fract_x
  _atom_site_fract_y
  _atom_site_fract_z
  _atom_site_thermal_displace_type
  _atom_site_B_iso_or_equiv
  _atom_site_type_symbol
  O1       1.0000 0.09186  0.57597  0.11542  Biso   1.000  O
  O2       1.0000 0.10515  0.52447  0.88540  Biso   1.000  O
  O3       1.0000 0.19328  0.62481  0.73495  Biso   1.000  O
  H1       1.0000 0.15100  0.58450  0.73980  Biso   1.000  H
  O4       1.0000 0.09882  0.68374  0.40520  Biso   1.000  O
  C1       1.0000 0.12247  0.58460  0.00145  Biso   1.000  C
  C2       1.0000 0.18796  0.66990  0.99866  Biso   1.000  C
  C3       1.0000 0.21846  0.73508  0.12985  Biso   1.000  C
  H2       1.0000 0.19710  0.72530  0.21640  Biso   1.000  H
  C4       1.0000 0.21985  0.68569  0.86720  Biso   1.000  C
  H3       1.0000 0.06600  0.73750  0.37300  Biso   1.000  H
  H4       1.0000 0.13600  0.66570  0.35200  Biso   1.000  H
  O5       1.0000 0.59186  0.07597  0.11542  Biso   1.000  O
  O6       1.0000 0.60515  0.02447  0.88540  Biso   1.000  O
  O7       1.0000 0.69328  0.12481  0.73495  Biso   1.000  O
  H5       1.0000 0.65100  0.08450  0.73980  Biso   1.000  H
  O8       1.0000 0.59882  0.18374  0.40520  Biso   1.000  O
  C5       1.0000 0.62247  0.08460  0.00145  Biso   1.000  C
  C6       1.0000 0.68796  0.16990  0.99866  Biso   1.000  C
  C7       1.0000 0.71846  0.23508  0.12985  Biso   1.000  C
  H6       1.0000 0.69710  0.22530  0.21640  Biso   1.000  H
  C8       1.0000 0.71985  0.18569  0.86720  Biso   1.000  C
  H7       1.0000 0.56600  0.23750  0.37300  Biso   1.000  H
  H8       1.0000 0.63600  0.16570  0.35200  Biso   1.000  H
  O9       1.0000 0.90814  0.57597  0.38458  Biso   1.000  O
  O10      1.0000 0.89485  0.52447  0.61460  Biso   1.000  O
  O11      1.0000 0.80672  0.62481  0.76505  Biso   1.000  O
  H9       1.0000 0.84900  0.58450  0.76020  Biso   1.000  H
  O12      1.0000 0.90118  0.68374  0.09480  Biso   1.000  O
  C9       1.0000 0.87753  0.58460  0.49855  Biso   1.000  C
  C10      1.0000 0.81204  0.66990  0.50134  Biso   1.000  C
  C11      1.0000 0.78154  0.73508  0.37015  Biso   1.000  C
  H10      1.0000 0.80290  0.72530  0.28360  Biso   1.000  H
  C12      1.0000 0.78015  0.68569  0.63280  Biso   1.000  C
  H11      1.0000 0.93400  0.73750  0.12700  Biso   1.000  H
  H12      1.0000 0.86400  0.66570  0.14800  Biso   1.000  H
  O13      1.0000 0.40814  0.07597  0.38458  Biso   1.000  O
  O14      1.0000 0.39485  0.02447  0.61460  Biso   1.000  O
  O15      1.0000 0.30672  0.12481  0.76505  Biso   1.000  O
  H13      1.0000 0.34900  0.08450  0.76020  Biso   1.000  H
  O16      1.0000 0.40118  0.18374  0.09480  Biso   1.000  O
  C13      1.0000 0.37753  0.08460  0.49855  Biso   1.000  C
  C14      1.0000 0.31204  0.16990  0.50134  Biso   1.000  C
  C15      1.0000 0.28154  0.23508  0.37015  Biso   1.000  C
  H14      1.0000 0.30290  0.22530  0.28360  Biso   1.000  H
  C16      1.0000 0.28015  0.18569  0.63280  Biso   1.000  C
  H15      1.0000 0.43400  0.23750  0.12700  Biso   1.000  H
  H16      1.0000 0.36400  0.16570  0.14800  Biso   1.000  H
  O17      1.0000 0.90814  0.42403  0.88458  Biso   1.000  O
  O18      1.0000 0.89485  0.47553  0.11460  Biso   1.000  O
  O19      1.0000 0.80672  0.37519  0.26505  Biso   1.000  O
  H17      1.0000 0.84900  0.41550  0.26020  Biso   1.000  H
  O20      1.0000 0.90118  0.31626  0.59480  Biso   1.000  O
  C17      1.0000 0.87753  0.41540  0.99855  Biso   1.000  C
  C18      1.0000 0.81204  0.33010  0.00134  Biso   1.000  C
  C19      1.0000 0.78154  0.26492  0.87015  Biso   1.000  C
  H18      1.0000 0.80290  0.27470  0.78360  Biso   1.000  H
  C20      1.0000 0.78015  0.31431  0.13280  Biso   1.000  C
  H19      1.0000 0.93400  0.26250  0.62700  Biso   1.000  H
  H20      1.0000 0.86400  0.33430  0.64800  Biso   1.000  H
  O21      1.0000 0.40814  0.92403  0.88458  Biso   1.000  O
  O22      1.0000 0.39485  0.97553  0.11460  Biso   1.000  O
  O23      1.0000 0.30672  0.87519  0.26505  Biso   1.000  O
  H21      1.0000 0.34900  0.91550  0.26020  Biso   1.000  H
  O24      1.0000 0.40118  0.81626  0.59480  Biso   1.000  O
  C21      1.0000 0.37753  0.91540  0.99855  Biso   1.000  C
  C22      1.0000 0.31204  0.83010  0.00134  Biso   1.000  C
  C23      1.0000 0.28154  0.76492  0.87015  Biso   1.000  C
  H22      1.0000 0.30290  0.77470  0.78360  Biso   1.000  H
  C24      1.0000 0.28015  0.81431  0.13280  Biso   1.000  C
  H23      1.0000 0.43400  0.76250  0.62700  Biso   1.000  H
  H24      1.0000 0.36400  0.83430  0.64800  Biso   1.000  H
  O25      1.0000 0.09186  0.42403  0.61542  Biso   1.000  O
  O26      1.0000 0.10515  0.47553  0.38540  Biso   1.000  O
  O27      1.0000 0.19328  0.37519  0.23495  Biso   1.000  O
  H25      1.0000 0.15100  0.41550  0.23980  Biso   1.000  H
  O28      1.0000 0.09882  0.31626  0.90520  Biso   1.000  O
  C25      1.0000 0.12247  0.41540  0.50145  Biso   1.000  C
  C26      1.0000 0.18796  0.33010  0.49866  Biso   1.000  C
  C27      1.0000 0.21846  0.26492  0.62985  Biso   1.000  C
  H26      1.0000 0.19710  0.27470  0.71640  Biso   1.000  H
  C28      1.0000 0.21985  0.31431  0.36720  Biso   1.000  C
  H27      1.0000 0.06600  0.26250  0.87300  Biso   1.000  H
  H28      1.0000 0.13600  0.33430  0.85200  Biso   1.000  H
  O29      1.0000 0.59186  0.92403  0.61542  Biso   1.000  O
  O30      1.0000 0.60515  0.97553  0.38540  Biso   1.000  O
  O31      1.0000 0.69328  0.87519  0.23495  Biso   1.000  O
  H29      1.0000 0.65100  0.91550  0.23980  Biso   1.000  H
  O32      1.0000 0.59882  0.81626  0.90520  Biso   1.000  O
  C29      1.0000 0.62247  0.91540  0.50145  Biso   1.000  C
  C30      1.0000 0.68796  0.83010  0.49866  Biso   1.000  C
  C31      1.0000 0.71846  0.76492  0.62985  Biso   1.000  C
  H30      1.0000 0.69710  0.77470  0.71640  Biso   1.000  H
  C32      1.0000 0.71985  0.81431  0.36720  Biso   1.000  C
  H31      1.0000 0.56600  0.76250  0.87300  Biso   1.000  H
  H32      1.0000 0.63600  0.83430  0.85200  Biso   1.000  H
  Mg1      1.0000 0.00000  0.57867  0.25000  Biso   1.000  Mg
  Mg2      1.0000 0.50000  0.07867  0.25000  Biso   1.000  Mg
  Mg3      1.0000 0.00000  0.42133  0.75000  Biso   1.000  Mg
  Mg4      1.0000 0.50000  0.92133  0.75000  Biso   1.000  Mg
