data_NOZZOT_charged
_audit_creation_date              2015-10-16
_audit_creation_method            'Materials Studio'
_symmetry_space_group_name_H-M    'P1'
_symmetry_Int_Tables_number       1
_symmetry_cell_setting            triclinic
loop_
_symmetry_equiv_pos_as_xyz
  x,y,z
_cell_length_a                    14.0970
_cell_length_b                    14.2015
_cell_length_c                    14.2649
_cell_angle_alpha                 115.6630
_cell_angle_beta                  113.6270
_cell_angle_gamma                 97.6030
loop_
_atom_site_label
_atom_site_type_symbol
_atom_site_fract_x
_atom_site_fract_y
_atom_site_fract_z
_atom_site_U_iso_or_equiv
_atom_site_adp_type
_atom_site_occupancy
Cd1    Cd    0.99435   0.11337   0.81305   0.01267  Uiso   1.00
Cd2    Cd    0.00565   0.88663   0.18695   0.01267  Uiso   1.00
Cd3    Cd    0.00000   0.00000   0.00000   0.01267  Uiso   1.00
Si1    Si    0.73649   0.35164   0.31561   0.01267  Uiso   1.00
Si2    Si    0.26351   0.64836   0.68439   0.01267  Uiso   1.00
H1     H     0.44150   0.86350   0.81120   0.01267  Uiso   1.00
H2     H     0.36520   0.06420   0.08570   0.01267  Uiso   1.00
H3     H     0.55660   0.43740   0.23430   0.01267  Uiso   1.00
H4     H     0.00050   0.76630   0.45690   0.01267  Uiso   1.00
H5     H     0.94950   0.41690   0.13140   0.01267  Uiso   1.00
H6     H     0.17700   0.24350   0.53090   0.01267  Uiso   1.00
H7     H     0.55850   0.13650   0.18880   0.01267  Uiso   1.00
H8     H     0.05050   0.58310   0.86860   0.01267  Uiso   1.00
H9     H     0.79750   0.09120   0.00850   0.01267  Uiso   1.00
H10    H     0.07730   0.32100   0.27480   0.01267  Uiso   1.00
H11    H     0.64730   0.25390   0.42170   0.01267  Uiso   1.00
H12    H     0.28430   0.80750   0.44650   0.01267  Uiso   1.00
H13    H     0.44340   0.56260   0.76570   0.01267  Uiso   1.00
H14    H     0.20250   0.90880   0.99150   0.01267  Uiso   1.00
H15    H     0.63480   0.93580   0.91430   0.01267  Uiso   1.00
H16    H     0.92270   0.67900   0.72520   0.01267  Uiso   1.00
H17    H     0.71570   0.19250   0.55350   0.01267  Uiso   1.00
H18    H     0.85330   0.48980   0.57610   0.01267  Uiso   1.00
H19    H     0.93060   0.29410   0.41080   0.01267  Uiso   1.00
H20    H     0.72140   0.14730   0.13170   0.01267  Uiso   1.00
H21    H     0.27860   0.85270   0.86830   0.01267  Uiso   1.00
H22    H     0.06940   0.70590   0.58920   0.01267  Uiso   1.00
H23    H     0.25120   0.43360   0.68110   0.01267  Uiso   1.00
H24    H     0.82300   0.75650   0.46910   0.01267  Uiso   1.00
H25    H     0.14670   0.51020   0.42390   0.01267  Uiso   1.00
H26    H     0.99950   0.23370   0.54310   0.01267  Uiso   1.00
H27    H     0.88000   0.47350   0.26190   0.01267  Uiso   1.00
H28    H     0.36260   0.36000   0.11560   0.01267  Uiso   1.00
H29    H     0.12000   0.52650   0.73810   0.01267  Uiso   1.00
H30    H     0.35270   0.74610   0.57830   0.01267  Uiso   1.00
H31    H     0.63740   0.64000   0.88440   0.01267  Uiso   1.00
H32    H     0.74880   0.56640   0.31890   0.01267  Uiso   1.00
C1     C     0.15384   0.45668   0.44663   0.01267  Uiso   1.00
C2     C     0.79319   0.50648   0.43042   0.01267  Uiso   1.00
C3     C     0.42041   0.70440   0.77459   0.01267  Uiso   1.00
C4     C     0.76920   0.20271   0.13350   0.01267  Uiso   1.00
C5     C     0.57959   0.29560   0.22541   0.01267  Uiso   1.00
C6     C     0.78161   0.84429   0.98083   0.01267  Uiso   1.00
C7     C     0.40231   0.31527   0.13360   0.01267  Uiso   1.00
C8     C     0.21839   0.15571   0.01917   0.01267  Uiso   1.00
C9     C     0.78506   0.58873   0.40153   0.01267  Uiso   1.00
C10    C     0.08806   0.82805   0.34950   0.01267  Uiso   1.00
C11    C     0.11887   0.26359   0.38777   0.01267  Uiso   1.00
C12    C     0.88654   0.27420   0.44000   0.01267  Uiso   1.00
C13    C     0.48078   0.81625   0.82250   0.01267  Uiso   1.00
C14    C     0.07227   0.76180   0.48110   0.01267  Uiso   1.00
C15    C     0.34433   0.20498   0.09098   0.01267  Uiso   1.00
C16    C     0.51922   0.18375   0.17750   0.01267  Uiso   1.00
C17    C     0.20702   0.68322   0.78868   0.01267  Uiso   1.00
C18    C     0.86195   0.39563   0.20969   0.01267  Uiso   1.00
C19    C     0.11823   0.75135   0.94104   0.01267  Uiso   1.00
C20    C     0.17116   0.29775   0.50902   0.01267  Uiso   1.00
C21    C     0.88177   0.24865   0.05896   0.01267  Uiso   1.00
C22    C     0.11160   0.34369   0.35748   0.01267  Uiso   1.00
C23    C     0.28055   0.74965   0.55360   0.01267  Uiso   1.00
C24    C     0.86522   0.20866   0.56275   0.01267  Uiso   1.00
C25    C     0.59619   0.86039   0.88620   0.01267  Uiso   1.00
C26    C     0.93286   0.21222   0.98142   0.01267  Uiso   1.00
C27    C     0.88113   0.73641   0.61223   0.01267  Uiso   1.00
C28    C     0.21825   0.71808   0.59739   0.01267  Uiso   1.00
C29    C     0.92852   0.85851   0.71184   0.01267  Uiso   1.00
C30    C     0.91194   0.17195   0.65050   0.01267  Uiso   1.00
C31    C     0.13805   0.60437   0.79031   0.01267  Uiso   1.00
C32    C     0.81365   0.16892   0.05920   0.01267  Uiso   1.00
C33    C     0.76006   0.21387   0.52530   0.01267  Uiso   1.00
C34    C     0.21494   0.41127   0.59847   0.01267  Uiso   1.00
C35    C     0.78175   0.28192   0.40261   0.01267  Uiso   1.00
C36    C     0.88840   0.65631   0.64252   0.01267  Uiso   1.00
C37    C     0.71945   0.25035   0.44640   0.01267  Uiso   1.00
C38    C     0.07148   0.14149   0.28816   0.01267  Uiso   1.00
C39    C     0.09533   0.63781   0.86690   0.01267  Uiso   1.00
C40    C     0.84616   0.54332   0.55337   0.01267  Uiso   1.00
C41    C     0.23994   0.78613   0.47470   0.01267  Uiso   1.00
C42    C     0.79298   0.31678   0.21132   0.01267  Uiso   1.00
C43    C     0.18635   0.83108   0.94080   0.01267  Uiso   1.00
C44    C     0.13478   0.79134   0.43725   0.01267  Uiso   1.00
C45    C     0.65567   0.79502   0.90902   0.01267  Uiso   1.00
C46    C     0.23080   0.79729   0.86650   0.01267  Uiso   1.00
C47    C     0.06714   0.78778   0.01858   0.01267  Uiso   1.00
C48    C     0.92773   0.23820   0.51890   0.01267  Uiso   1.00
C49    C     0.59769   0.68473   0.86640   0.01267  Uiso   1.00
C50    C     0.51836   0.36074   0.20240   0.01267  Uiso   1.00
C51    C     0.90467   0.36219   0.13310   0.01267  Uiso   1.00
C52    C     0.48164   0.63926   0.79760   0.01267  Uiso   1.00
C53    C     0.20681   0.49352   0.56958   0.01267  Uiso   1.00
C54    C     0.40381   0.13961   0.11380   0.01267  Uiso   1.00
C55    C     0.11346   0.72580   0.56000   0.01267  Uiso   1.00
C56    C     0.82884   0.70225   0.49098   0.01267  Uiso   1.00
O1     O     0.00997   0.17442   0.68886   0.01267  Uiso   1.00
O2     O     0.05978   0.06926   0.31534   0.01267  Uiso   1.00
O3     O     0.17129   0.09204   0.03878   0.01267  Uiso   1.00
O4     O     0.98121   0.27979   0.96721   0.01267  Uiso   1.00
O5     O     0.82871   0.90796   0.96122   0.01267  Uiso   1.00
O6     O     0.01879   0.72021   0.03279   0.01267  Uiso   1.00
O7     O     0.94022   0.93074   0.68466   0.01267  Uiso   1.00
O8     O     0.14915   0.86110   0.31622   0.01267  Uiso   1.00
O9     O     0.82670   0.81659   0.05562   0.01267  Uiso   1.00
O10    O     0.85085   0.13890   0.68378   0.01267  Uiso   1.00
O11    O     0.99003   0.82558   0.31114   0.01267  Uiso   1.00
O12    O     0.07789   0.89195   0.07076   0.01267  Uiso   1.00
O13    O     0.92211   0.10805   0.92924   0.01267  Uiso   1.00
O14    O     0.95134   0.87683   0.81358   0.01267  Uiso   1.00
O15    O     0.04866   0.12317   0.18642   0.01267  Uiso   1.00
O16    O     0.17330   0.18341   0.94438   0.01267  Uiso   1.00
Cd4    Cd    0.50000  -0.00000   0.50000   0.01267  Uiso   1.00
H33    H     0.68520   0.72170   0.66340   0.01267  Uiso   1.00
H34    H     0.74590   0.86500   0.19030   0.01267  Uiso   1.00
H35    H     0.22570   0.07480   0.53870   0.01267  Uiso   1.00
H36    H     0.78810   0.83710   0.35500   0.01267  Uiso   1.00
H37    H     0.53450   0.02870   0.73930   0.01267  Uiso   1.00
H38    H     0.31920   0.02260   0.28030   0.01267  Uiso   1.00
H39    H     0.59610   0.33480   0.61730   0.01267  Uiso   1.00
H40    H     0.34100   0.81200   0.27900   0.01267  Uiso   1.00
H41    H     0.27800   0.86300   0.31500   0.01267  Uiso   1.00
H42    H     0.21190   0.16290   0.64500   0.01267  Uiso   1.00
H43    H     0.38050   0.14390   0.87370   0.01267  Uiso   1.00
H44    H     0.45610   0.56980   0.36520   0.01267  Uiso   1.00
H45    H     0.60770   0.40860   0.56100   0.01267  Uiso   1.00
H46    H     0.39230   0.59140   0.43900   0.01267  Uiso   1.00
H47    H     0.36260   0.38800   0.46750   0.01267  Uiso   1.00
H48    H     0.77430   0.92520   0.46130   0.01267  Uiso   1.00
H49    H     0.25410   0.13500   0.80970   0.01267  Uiso   1.00
H50    H     0.73820   0.90020   0.66010   0.01267  Uiso   1.00
H51    H     0.14890   0.03080   0.58000   0.01267  Uiso   1.00
H52    H     0.63740   0.61200   0.53250   0.01267  Uiso   1.00
H53    H     0.31480   0.27830   0.33660   0.01267  Uiso   1.00
H54    H     0.42250   0.38280   0.39190   0.01267  Uiso   1.00
H55    H     0.46560   0.02650   0.80480   0.01267  Uiso   1.00
H56    H     0.61950   0.85610   0.12630   0.01267  Uiso   1.00
H57    H     0.70300   0.88150   0.74620   0.01267  Uiso   1.00
H58    H     0.71910   0.97630   0.21230   0.01267  Uiso   1.00
H59    H     0.28090   0.02370   0.78770   0.01267  Uiso   1.00
H60    H     0.68080   0.97740   0.71970   0.01267  Uiso   1.00
H61    H     0.72200   0.13700   0.68500   0.01267  Uiso   1.00
H62    H     0.26180   0.09980   0.33990   0.01267  Uiso   1.00
H63    H     0.53440   0.97350   0.19520   0.01267  Uiso   1.00
H64    H     0.40390   0.66520   0.38270   0.01267  Uiso   1.00
H65    H     0.65900   0.18800   0.72100   0.01267  Uiso   1.00
H66    H     0.46550   0.97130   0.26070   0.01267  Uiso   1.00
H67    H     0.85110   0.96920   0.42000   0.01267  Uiso   1.00
H68    H     0.54390   0.43020   0.63480   0.01267  Uiso   1.00
H69    H     0.57750   0.61720   0.60810   0.01267  Uiso   1.00
H70    H     0.54390   0.14410   0.84210   0.01267  Uiso   1.00
H71    H     0.45610   0.85590   0.15790   0.01267  Uiso   1.00
H72    H     0.29700   0.11850   0.25380   0.01267  Uiso   1.00
C57    C     0.69340   0.90190   0.19960   0.01267  Uiso   1.00
C58    C     0.61740   0.66110   0.58880   0.01267  Uiso   1.00
C59    C     0.42975   0.18090   0.42260   0.01267  Uiso   1.00
C60    C     0.60240   0.93020   0.31990   0.01267  Uiso   1.00
C61    C     0.49380   0.06700   0.77480   0.01267  Uiso   1.00
C62    C     0.68280   0.90170   0.68520   0.01267  Uiso   1.00
C63    C     0.57025   0.81910   0.57740   0.01267  Uiso   1.00
C64    C     0.55920   0.37280   0.57930   0.01267  Uiso   1.00
C65    C     0.39760   0.06980   0.68010   0.01267  Uiso   1.00
C66    C     0.44080   0.62720   0.42070   0.01267  Uiso   1.00
C67    C     0.78300   0.91120   0.39220   0.01267  Uiso   1.00
C68    C     0.21700   0.08880   0.60780   0.01267  Uiso   1.00
C69    C     0.30660   0.09810   0.80040   0.01267  Uiso   1.00
C70    C     0.38260   0.33890   0.41120   0.01267  Uiso   1.00
C71    C     0.50620   0.93300   0.22520   0.01267  Uiso   1.00
C72    C     0.31720   0.09830   0.31480   0.01267  Uiso   1.00
N1     N     0.45424   0.29064   0.46720   0.01267  Uiso   1.00
N2     N     0.54576   0.70936   0.53280   0.01267  Uiso   1.00
N3     N     0.68690   0.91410   0.30320   0.01267  Uiso   1.00
N4     N     0.31310   0.08590   0.69680   0.01267  Uiso   1.00
O17    O     0.39620   0.05682   0.58708   0.01267  Uiso   1.00
O18    O     0.60380   0.94318   0.41292   0.01267  Uiso   1.00
O19    O     0.34220   0.87574   0.32260   0.01267  Uiso   1.00
O20    O     0.65780   0.12426   0.67740   0.01267  Uiso   1.00
O21    O     0.50073   0.14788   0.47194   0.01267  Uiso   1.00
O22    O     0.49927   0.85212   0.52806   0.01267  Uiso   1.00
