data_image0
_cell_length_a       23.5927
_cell_length_b       23.5927
_cell_length_c       11.7356
_cell_angle_alpha    90
_cell_angle_beta     90
_cell_angle_gamma    90

_symmetry_space_group_name_H-M    "P 1"
_symmetry_int_tables_number       1

loop_
  _symmetry_equiv_pos_as_xyz
  'x, y, z'

loop_
  _atom_site_label
  _atom_site_occupancy
  _atom_site_fract_x
  _atom_site_fract_y
  _atom_site_fract_z
  _atom_site_thermal_displace_type
  _atom_site_B_iso_or_equiv
  _atom_site_type_symbol
  O1       1.0000 0.44780  0.54079  0.40323  Biso   1.000  O
  N1       1.0000 0.22301  0.64478  0.86610  Biso   1.000  N
  H1       1.0000 0.19250  0.64410  0.82600  Biso   1.000  H
  O2       1.0000 0.44309  0.45846  0.31280  Biso   1.000  O
  N2       1.0000 0.26353  0.68570  0.85735  Biso   1.000  N
  C1       1.0000 0.38055  0.59547  0.24620  Biso   1.000  C
  H2       1.0000 0.39690  0.61640  0.30470  Biso   1.000  H
  C2       1.0000 0.28826  0.62130  0.98960  Biso   1.000  C
  C3       1.0000 0.39024  0.53725  0.23940  Biso   1.000  C
  C4       1.0000 0.34672  0.62218  0.16590  Biso   1.000  C
  H3       1.0000 0.34050  0.66100  0.17120  Biso   1.000  H
  C5       1.0000 0.32190  0.59147  0.07730  Biso   1.000  C
  C6       1.0000 0.30365  0.67170  0.93250  Biso   1.000  C
  C7       1.0000 0.23619  0.60576  0.94420  Biso   1.000  C
  C8       1.0000 0.33081  0.53286  0.07270  Biso   1.000  C
  H4       1.0000 0.31380  0.51160  0.01540  Biso   1.000  H
  C9       1.0000 0.42944  0.50933  0.32380  Biso   1.000  C
  C10      1.0000 0.19775  0.55692  0.96750  Biso   1.000  C
  H5       1.0000 0.15910  0.56850  0.95660  Biso   1.000  H
  H6       1.0000 0.20290  0.54440  0.04470  Biso   1.000  H
  H7       1.0000 0.20650  0.52640  0.91630  Biso   1.000  H
  C11      1.0000 0.36469  0.50619  0.15300  Biso   1.000  C
  H8       1.0000 0.37040  0.46720  0.14890  Biso   1.000  H
  C12      1.0000 0.35723  0.70504  0.94490  Biso   1.000  C
  H9       1.0000 0.36590  0.72340  0.87410  Biso   1.000  H
  H10      1.0000 0.38770  0.68000  0.96530  Biso   1.000  H
  H11      1.0000 0.35250  0.73310  0.00350  Biso   1.000  H
  O3       1.0000 0.94780  0.04079  0.90323  Biso   1.000  O
  N3       1.0000 0.72301  0.14478  0.36610  Biso   1.000  N
  H12      1.0000 0.69250  0.14410  0.32600  Biso   1.000  H
  O4       1.0000 0.94309  0.95846  0.81280  Biso   1.000  O
  N4       1.0000 0.76353  0.18570  0.35735  Biso   1.000  N
  C13      1.0000 0.88055  0.09547  0.74620  Biso   1.000  C
  H13      1.0000 0.89690  0.11640  0.80470  Biso   1.000  H
  C14      1.0000 0.78826  0.12130  0.48960  Biso   1.000  C
  C15      1.0000 0.89024  0.03725  0.73940  Biso   1.000  C
  C16      1.0000 0.84672  0.12218  0.66590  Biso   1.000  C
  H14      1.0000 0.84050  0.16100  0.67120  Biso   1.000  H
  C17      1.0000 0.82190  0.09147  0.57730  Biso   1.000  C
  C18      1.0000 0.80365  0.17170  0.43250  Biso   1.000  C
  C19      1.0000 0.73619  0.10576  0.44420  Biso   1.000  C
  C20      1.0000 0.83081  0.03286  0.57270  Biso   1.000  C
  H15      1.0000 0.81380  0.01160  0.51540  Biso   1.000  H
  C21      1.0000 0.92944  0.00933  0.82380  Biso   1.000  C
  C22      1.0000 0.69775  0.05692  0.46750  Biso   1.000  C
  H16      1.0000 0.65910  0.06850  0.45660  Biso   1.000  H
  H17      1.0000 0.70290  0.04440  0.54470  Biso   1.000  H
  H18      1.0000 0.70650  0.02640  0.41630  Biso   1.000  H
  C23      1.0000 0.86469  0.00619  0.65300  Biso   1.000  C
  H19      1.0000 0.87040  0.96720  0.64890  Biso   1.000  H
  C24      1.0000 0.85723  0.20504  0.44490  Biso   1.000  C
  H20      1.0000 0.86590  0.22340  0.37410  Biso   1.000  H
  H21      1.0000 0.88770  0.18000  0.46530  Biso   1.000  H
  H22      1.0000 0.85250  0.23310  0.50350  Biso   1.000  H
  O5       1.0000 0.05220  0.45921  0.90323  Biso   1.000  O
  N5       1.0000 0.27699  0.35522  0.36610  Biso   1.000  N
  H23      1.0000 0.30750  0.35590  0.32600  Biso   1.000  H
  O6       1.0000 0.05691  0.54154  0.81280  Biso   1.000  O
  N6       1.0000 0.23647  0.31430  0.35735  Biso   1.000  N
  C25      1.0000 0.11945  0.40453  0.74620  Biso   1.000  C
  H24      1.0000 0.10310  0.38360  0.80470  Biso   1.000  H
  C26      1.0000 0.21174  0.37870  0.48960  Biso   1.000  C
  C27      1.0000 0.10976  0.46275  0.73940  Biso   1.000  C
  C28      1.0000 0.15328  0.37782  0.66590  Biso   1.000  C
  H25      1.0000 0.15950  0.33900  0.67120  Biso   1.000  H
  C29      1.0000 0.17810  0.40853  0.57730  Biso   1.000  C
  C30      1.0000 0.19635  0.32830  0.43250  Biso   1.000  C
  C31      1.0000 0.26381  0.39424  0.44420  Biso   1.000  C
  C32      1.0000 0.16919  0.46714  0.57270  Biso   1.000  C
  H26      1.0000 0.18620  0.48840  0.51540  Biso   1.000  H
  C33      1.0000 0.07056  0.49067  0.82380  Biso   1.000  C
  C34      1.0000 0.30225  0.44308  0.46750  Biso   1.000  C
  H27      1.0000 0.34090  0.43150  0.45660  Biso   1.000  H
  H28      1.0000 0.29710  0.45560  0.54470  Biso   1.000  H
  H29      1.0000 0.29350  0.47360  0.41630  Biso   1.000  H
  C35      1.0000 0.13531  0.49381  0.65300  Biso   1.000  C
  H30      1.0000 0.12960  0.53280  0.64890  Biso   1.000  H
  C36      1.0000 0.14277  0.29496  0.44490  Biso   1.000  C
  H31      1.0000 0.13410  0.27660  0.37410  Biso   1.000  H
  H32      1.0000 0.11230  0.32000  0.46530  Biso   1.000  H
  H33      1.0000 0.14750  0.26690  0.50350  Biso   1.000  H
  O7       1.0000 0.55220  0.95921  0.40323  Biso   1.000  O
  N7       1.0000 0.77699  0.85522  0.86610  Biso   1.000  N
  H34      1.0000 0.80750  0.85590  0.82600  Biso   1.000  H
  O8       1.0000 0.55691  0.04154  0.31280  Biso   1.000  O
  N8       1.0000 0.73647  0.81430  0.85735  Biso   1.000  N
  C37      1.0000 0.61945  0.90453  0.24620  Biso   1.000  C
  H35      1.0000 0.60310  0.88360  0.30470  Biso   1.000  H
  C38      1.0000 0.71174  0.87870  0.98960  Biso   1.000  C
  C39      1.0000 0.60976  0.96275  0.23940  Biso   1.000  C
  C40      1.0000 0.65328  0.87782  0.16590  Biso   1.000  C
  H36      1.0000 0.65950  0.83900  0.17120  Biso   1.000  H
  C41      1.0000 0.67810  0.90853  0.07730  Biso   1.000  C
  C42      1.0000 0.69635  0.82830  0.93250  Biso   1.000  C
  C43      1.0000 0.76381  0.89424  0.94420  Biso   1.000  C
  C44      1.0000 0.66919  0.96714  0.07270  Biso   1.000  C
  H37      1.0000 0.68620  0.98840  0.01540  Biso   1.000  H
  C45      1.0000 0.57056  0.99067  0.32380  Biso   1.000  C
  C46      1.0000 0.80225  0.94308  0.96750  Biso   1.000  C
  H38      1.0000 0.84090  0.93150  0.95660  Biso   1.000  H
  H39      1.0000 0.79710  0.95560  0.04470  Biso   1.000  H
  H40      1.0000 0.79350  0.97360  0.91630  Biso   1.000  H
  C47      1.0000 0.63531  0.99381  0.15300  Biso   1.000  C
  H41      1.0000 0.62960  0.03280  0.14890  Biso   1.000  H
  C48      1.0000 0.64277  0.79496  0.94490  Biso   1.000  C
  H42      1.0000 0.63410  0.77660  0.87410  Biso   1.000  H
  H43      1.0000 0.61230  0.82000  0.96530  Biso   1.000  H
  H44      1.0000 0.64750  0.76690  0.00350  Biso   1.000  H
  O9       1.0000 0.20921  0.69780  0.65323  Biso   1.000  O
  N9       1.0000 0.10522  0.47301  0.11610  Biso   1.000  N
  H45      1.0000 0.10590  0.44250  0.07600  Biso   1.000  H
  O10      1.0000 0.29154  0.69309  0.56280  Biso   1.000  O
  N10      1.0000 0.06430  0.51353  0.10735  Biso   1.000  N
  C49      1.0000 0.15453  0.63055  0.49620  Biso   1.000  C
  H46      1.0000 0.13360  0.64690  0.55470  Biso   1.000  H
  C50      1.0000 0.12870  0.53826  0.23960  Biso   1.000  C
  C51      1.0000 0.21275  0.64024  0.48940  Biso   1.000  C
  C52      1.0000 0.12782  0.59672  0.41590  Biso   1.000  C
  H47      1.0000 0.08900  0.59050  0.42120  Biso   1.000  H
  C53      1.0000 0.15853  0.57190  0.32730  Biso   1.000  C
  C54      1.0000 0.07830  0.55365  0.18250  Biso   1.000  C
  C55      1.0000 0.14424  0.48619  0.19420  Biso   1.000  C
  C56      1.0000 0.21714  0.58081  0.32270  Biso   1.000  C
  H48      1.0000 0.23840  0.56380  0.26540  Biso   1.000  H
  C57      1.0000 0.24067  0.67944  0.57380  Biso   1.000  C
  C58      1.0000 0.19308  0.44775  0.21750  Biso   1.000  C
  H49      1.0000 0.18150  0.40910  0.20660  Biso   1.000  H
  H50      1.0000 0.20560  0.45290  0.29470  Biso   1.000  H
  H51      1.0000 0.22360  0.45650  0.16630  Biso   1.000  H
  C59      1.0000 0.24381  0.61469  0.40300  Biso   1.000  C
  H52      1.0000 0.28280  0.62040  0.39890  Biso   1.000  H
  C60      1.0000 0.04496  0.60723  0.19490  Biso   1.000  C
  H53      1.0000 0.02660  0.61590  0.12410  Biso   1.000  H
  H54      1.0000 0.07000  0.63770  0.21530  Biso   1.000  H
  H55      1.0000 0.01690  0.60250  0.25350  Biso   1.000  H
  O11      1.0000 0.70921  0.19780  0.15323  Biso   1.000  O
  N11      1.0000 0.60522  0.97301  0.61610  Biso   1.000  N
  H56      1.0000 0.60590  0.94250  0.57600  Biso   1.000  H
  O12      1.0000 0.79154  0.19309  0.06280  Biso   1.000  O
  N12      1.0000 0.56430  0.01353  0.60735  Biso   1.000  N
  C61      1.0000 0.65453  0.13055  0.99620  Biso   1.000  C
  H57      1.0000 0.63360  0.14690  0.05470  Biso   1.000  H
  C62      1.0000 0.62870  0.03826  0.73960  Biso   1.000  C
  C63      1.0000 0.71275  0.14024  0.98940  Biso   1.000  C
  C64      1.0000 0.62782  0.09672  0.91590  Biso   1.000  C
  H58      1.0000 0.58900  0.09050  0.92120  Biso   1.000  H
  C65      1.0000 0.65853  0.07190  0.82730  Biso   1.000  C
  C66      1.0000 0.57830  0.05365  0.68250  Biso   1.000  C
  C67      1.0000 0.64424  0.98619  0.69420  Biso   1.000  C
  C68      1.0000 0.71714  0.08081  0.82270  Biso   1.000  C
  H59      1.0000 0.73840  0.06380  0.76540  Biso   1.000  H
  C69      1.0000 0.74067  0.17944  0.07380  Biso   1.000  C
  C70      1.0000 0.69308  0.94775  0.71750  Biso   1.000  C
  H60      1.0000 0.68150  0.90910  0.70660  Biso   1.000  H
  H61      1.0000 0.70560  0.95290  0.79470  Biso   1.000  H
  H62      1.0000 0.72360  0.95650  0.66630  Biso   1.000  H
  C71      1.0000 0.74381  0.11469  0.90300  Biso   1.000  C
  H63      1.0000 0.78280  0.12040  0.89890  Biso   1.000  H
  C72      1.0000 0.54496  0.10723  0.69490  Biso   1.000  C
  H64      1.0000 0.52660  0.11590  0.62410  Biso   1.000  H
  H65      1.0000 0.57000  0.13770  0.71530  Biso   1.000  H
  H66      1.0000 0.51690  0.10250  0.75350  Biso   1.000  H
  O13      1.0000 0.29079  0.30220  0.15323  Biso   1.000  O
  N13      1.0000 0.39478  0.52699  0.61610  Biso   1.000  N
  H67      1.0000 0.39410  0.55750  0.57600  Biso   1.000  H
  O14      1.0000 0.20846  0.30691  0.06280  Biso   1.000  O
  N14      1.0000 0.43570  0.48647  0.60735  Biso   1.000  N
  C73      1.0000 0.34547  0.36945  0.99620  Biso   1.000  C
  H68      1.0000 0.36640  0.35310  0.05470  Biso   1.000  H
  C74      1.0000 0.37130  0.46174  0.73960  Biso   1.000  C
  C75      1.0000 0.28725  0.35976  0.98940  Biso   1.000  C
  C76      1.0000 0.37218  0.40328  0.91590  Biso   1.000  C
  H69      1.0000 0.41100  0.40950  0.92120  Biso   1.000  H
  C77      1.0000 0.34147  0.42810  0.82730  Biso   1.000  C
  C78      1.0000 0.42170  0.44635  0.68250  Biso   1.000  C
  C79      1.0000 0.35576  0.51381  0.69420  Biso   1.000  C
  C80      1.0000 0.28286  0.41919  0.82270  Biso   1.000  C
  H70      1.0000 0.26160  0.43620  0.76540  Biso   1.000  H
  C81      1.0000 0.25933  0.32056  0.07380  Biso   1.000  C
  C82      1.0000 0.30692  0.55225  0.71750  Biso   1.000  C
  H71      1.0000 0.31850  0.59090  0.70660  Biso   1.000  H
  H72      1.0000 0.29440  0.54710  0.79470  Biso   1.000  H
  H73      1.0000 0.27640  0.54350  0.66630  Biso   1.000  H
  C83      1.0000 0.25619  0.38531  0.90300  Biso   1.000  C
  H74      1.0000 0.21720  0.37960  0.89890  Biso   1.000  H
  C84      1.0000 0.45504  0.39277  0.69490  Biso   1.000  C
  H75      1.0000 0.47340  0.38410  0.62410  Biso   1.000  H
  H76      1.0000 0.43000  0.36230  0.71530  Biso   1.000  H
  H77      1.0000 0.48310  0.39750  0.75350  Biso   1.000  H
  O15      1.0000 0.79079  0.80220  0.65323  Biso   1.000  O
  N15      1.0000 0.89478  0.02699  0.11610  Biso   1.000  N
  H78      1.0000 0.89410  0.05750  0.07600  Biso   1.000  H
  O16      1.0000 0.70846  0.80691  0.56280  Biso   1.000  O
  N16      1.0000 0.93570  0.98647  0.10735  Biso   1.000  N
  C85      1.0000 0.84547  0.86945  0.49620  Biso   1.000  C
  H79      1.0000 0.86640  0.85310  0.55470  Biso   1.000  H
  C86      1.0000 0.87130  0.96174  0.23960  Biso   1.000  C
  C87      1.0000 0.78725  0.85976  0.48940  Biso   1.000  C
  C88      1.0000 0.87218  0.90328  0.41590  Biso   1.000  C
  H80      1.0000 0.91100  0.90950  0.42120  Biso   1.000  H
  C89      1.0000 0.84147  0.92810  0.32730  Biso   1.000  C
  C90      1.0000 0.92170  0.94635  0.18250  Biso   1.000  C
  C91      1.0000 0.85576  0.01381  0.19420  Biso   1.000  C
  C92      1.0000 0.78286  0.91919  0.32270  Biso   1.000  C
  H81      1.0000 0.76160  0.93620  0.26540  Biso   1.000  H
  C93      1.0000 0.75933  0.82056  0.57380  Biso   1.000  C
  C94      1.0000 0.80692  0.05225  0.21750  Biso   1.000  C
  H82      1.0000 0.81850  0.09090  0.20660  Biso   1.000  H
  H83      1.0000 0.79440  0.04710  0.29470  Biso   1.000  H
  H84      1.0000 0.77640  0.04350  0.16630  Biso   1.000  H
  C95      1.0000 0.75619  0.88531  0.40300  Biso   1.000  C
  H85      1.0000 0.71720  0.87960  0.39890  Biso   1.000  H
  C96      1.0000 0.95504  0.89277  0.19490  Biso   1.000  C
  H86      1.0000 0.97340  0.88410  0.12410  Biso   1.000  H
  H87      1.0000 0.93000  0.86230  0.21530  Biso   1.000  H
  H88      1.0000 0.98310  0.89750  0.25350  Biso   1.000  H
  O17      1.0000 0.55220  0.45921  0.59677  Biso   1.000  O
  N17      1.0000 0.77699  0.35522  0.13390  Biso   1.000  N
  H89      1.0000 0.80750  0.35590  0.17400  Biso   1.000  H
  O18      1.0000 0.55691  0.54154  0.68720  Biso   1.000  O
  N18      1.0000 0.73647  0.31430  0.14265  Biso   1.000  N
  C97      1.0000 0.61945  0.40453  0.75380  Biso   1.000  C
  H90      1.0000 0.60310  0.38360  0.69530  Biso   1.000  H
  C98      1.0000 0.71174  0.37870  0.01040  Biso   1.000  C
  C99      1.0000 0.60976  0.46275  0.76060  Biso   1.000  C
  C100     1.0000 0.65328  0.37782  0.83410  Biso   1.000  C
  H91      1.0000 0.65950  0.33900  0.82880  Biso   1.000  H
  C101     1.0000 0.67810  0.40853  0.92270  Biso   1.000  C
  C102     1.0000 0.69635  0.32830  0.06750  Biso   1.000  C
  C103     1.0000 0.76381  0.39424  0.05580  Biso   1.000  C
  C104     1.0000 0.66919  0.46714  0.92730  Biso   1.000  C
  H92      1.0000 0.68620  0.48840  0.98460  Biso   1.000  H
  C105     1.0000 0.57056  0.49067  0.67620  Biso   1.000  C
  C106     1.0000 0.80225  0.44308  0.03250  Biso   1.000  C
  H93      1.0000 0.84090  0.43150  0.04340  Biso   1.000  H
  H94      1.0000 0.79710  0.45560  0.95530  Biso   1.000  H
  H95      1.0000 0.79350  0.47360  0.08370  Biso   1.000  H
  C107     1.0000 0.63531  0.49381  0.84700  Biso   1.000  C
  H96      1.0000 0.62960  0.53280  0.85110  Biso   1.000  H
  C108     1.0000 0.64277  0.29496  0.05510  Biso   1.000  C
  H97      1.0000 0.63410  0.27660  0.12590  Biso   1.000  H
  H98      1.0000 0.61230  0.32000  0.03470  Biso   1.000  H
  H99      1.0000 0.64750  0.26690  0.99650  Biso   1.000  H
  O19      1.0000 0.05220  0.95921  0.09677  Biso   1.000  O
  N19      1.0000 0.27699  0.85522  0.63390  Biso   1.000  N
  H100     1.0000 0.30750  0.85590  0.67400  Biso   1.000  H
  O20      1.0000 0.05691  0.04154  0.18720  Biso   1.000  O
  N20      1.0000 0.23647  0.81430  0.64265  Biso   1.000  N
  C109     1.0000 0.11945  0.90453  0.25380  Biso   1.000  C
  H101     1.0000 0.10310  0.88360  0.19530  Biso   1.000  H
  C110     1.0000 0.21174  0.87870  0.51040  Biso   1.000  C
  C111     1.0000 0.10976  0.96275  0.26060  Biso   1.000  C
  C112     1.0000 0.15328  0.87782  0.33410  Biso   1.000  C
  H102     1.0000 0.15950  0.83900  0.32880  Biso   1.000  H
  C113     1.0000 0.17810  0.90853  0.42270  Biso   1.000  C
  C114     1.0000 0.19635  0.82830  0.56750  Biso   1.000  C
  C115     1.0000 0.26381  0.89424  0.55580  Biso   1.000  C
  C116     1.0000 0.16919  0.96714  0.42730  Biso   1.000  C
  H103     1.0000 0.18620  0.98840  0.48460  Biso   1.000  H
  C117     1.0000 0.07056  0.99067  0.17620  Biso   1.000  C
  C118     1.0000 0.30225  0.94308  0.53250  Biso   1.000  C
  H104     1.0000 0.34090  0.93150  0.54340  Biso   1.000  H
  H105     1.0000 0.29710  0.95560  0.45530  Biso   1.000  H
  H106     1.0000 0.29350  0.97360  0.58370  Biso   1.000  H
  C119     1.0000 0.13531  0.99381  0.34700  Biso   1.000  C
  H107     1.0000 0.12960  0.03280  0.35110  Biso   1.000  H
  C120     1.0000 0.14277  0.79496  0.55510  Biso   1.000  C
  H108     1.0000 0.13410  0.77660  0.62590  Biso   1.000  H
  H109     1.0000 0.11230  0.82000  0.53470  Biso   1.000  H
  H110     1.0000 0.14750  0.76690  0.49650  Biso   1.000  H
  O21      1.0000 0.94780  0.54079  0.09677  Biso   1.000  O
  N21      1.0000 0.72301  0.64478  0.63390  Biso   1.000  N
  H111     1.0000 0.69250  0.64410  0.67400  Biso   1.000  H
  O22      1.0000 0.94309  0.45846  0.18720  Biso   1.000  O
  N22      1.0000 0.76353  0.68570  0.64265  Biso   1.000  N
  C121     1.0000 0.88055  0.59547  0.25380  Biso   1.000  C
  H112     1.0000 0.89690  0.61640  0.19530  Biso   1.000  H
  C122     1.0000 0.78826  0.62130  0.51040  Biso   1.000  C
  C123     1.0000 0.89024  0.53725  0.26060  Biso   1.000  C
  C124     1.0000 0.84672  0.62218  0.33410  Biso   1.000  C
  H113     1.0000 0.84050  0.66100  0.32880  Biso   1.000  H
  C125     1.0000 0.82190  0.59147  0.42270  Biso   1.000  C
  C126     1.0000 0.80365  0.67170  0.56750  Biso   1.000  C
  C127     1.0000 0.73619  0.60576  0.55580  Biso   1.000  C
  C128     1.0000 0.83081  0.53286  0.42730  Biso   1.000  C
  H114     1.0000 0.81380  0.51160  0.48460  Biso   1.000  H
  C129     1.0000 0.92944  0.50933  0.17620  Biso   1.000  C
  C130     1.0000 0.69775  0.55692  0.53250  Biso   1.000  C
  H115     1.0000 0.65910  0.56850  0.54340  Biso   1.000  H
  H116     1.0000 0.70290  0.54440  0.45530  Biso   1.000  H
  H117     1.0000 0.70650  0.52640  0.58370  Biso   1.000  H
  C131     1.0000 0.86469  0.50619  0.34700  Biso   1.000  C
  H118     1.0000 0.87040  0.46720  0.35110  Biso   1.000  H
  C132     1.0000 0.85723  0.70504  0.55510  Biso   1.000  C
  H119     1.0000 0.86590  0.72340  0.62590  Biso   1.000  H
  H120     1.0000 0.88770  0.68000  0.53470  Biso   1.000  H
  H121     1.0000 0.85250  0.73310  0.49650  Biso   1.000  H
  O23      1.0000 0.44780  0.04079  0.59677  Biso   1.000  O
  N23      1.0000 0.22301  0.14478  0.13390  Biso   1.000  N
  H122     1.0000 0.19250  0.14410  0.17400  Biso   1.000  H
  O24      1.0000 0.44309  0.95846  0.68720  Biso   1.000  O
  N24      1.0000 0.26353  0.18570  0.14265  Biso   1.000  N
  C133     1.0000 0.38055  0.09547  0.75380  Biso   1.000  C
  H123     1.0000 0.39690  0.11640  0.69530  Biso   1.000  H
  C134     1.0000 0.28826  0.12130  0.01040  Biso   1.000  C
  C135     1.0000 0.39024  0.03725  0.76060  Biso   1.000  C
  C136     1.0000 0.34672  0.12218  0.83410  Biso   1.000  C
  H124     1.0000 0.34050  0.16100  0.82880  Biso   1.000  H
  C137     1.0000 0.32190  0.09147  0.92270  Biso   1.000  C
  C138     1.0000 0.30365  0.17170  0.06750  Biso   1.000  C
  C139     1.0000 0.23619  0.10576  0.05580  Biso   1.000  C
  C140     1.0000 0.33081  0.03286  0.92730  Biso   1.000  C
  H125     1.0000 0.31380  0.01160  0.98460  Biso   1.000  H
  C141     1.0000 0.42944  0.00933  0.67620  Biso   1.000  C
  C142     1.0000 0.19775  0.05692  0.03250  Biso   1.000  C
  H126     1.0000 0.15910  0.06850  0.04340  Biso   1.000  H
  H127     1.0000 0.20290  0.04440  0.95530  Biso   1.000  H
  H128     1.0000 0.20650  0.02640  0.08370  Biso   1.000  H
  C143     1.0000 0.36469  0.00619  0.84700  Biso   1.000  C
  H129     1.0000 0.37040  0.96720  0.85110  Biso   1.000  H
  C144     1.0000 0.35723  0.20504  0.05510  Biso   1.000  C
  H130     1.0000 0.36590  0.22340  0.12590  Biso   1.000  H
  H131     1.0000 0.38770  0.18000  0.03470  Biso   1.000  H
  H132     1.0000 0.35250  0.23310  0.99650  Biso   1.000  H
  O25      1.0000 0.79079  0.30220  0.34677  Biso   1.000  O
  N25      1.0000 0.89478  0.52699  0.88390  Biso   1.000  N
  H133     1.0000 0.89410  0.55750  0.92400  Biso   1.000  H
  O26      1.0000 0.70846  0.30691  0.43720  Biso   1.000  O
  N26      1.0000 0.93570  0.48647  0.89265  Biso   1.000  N
  C145     1.0000 0.84547  0.36945  0.50380  Biso   1.000  C
  H134     1.0000 0.86640  0.35310  0.44530  Biso   1.000  H
  C146     1.0000 0.87130  0.46174  0.76040  Biso   1.000  C
  C147     1.0000 0.78725  0.35976  0.51060  Biso   1.000  C
  C148     1.0000 0.87218  0.40328  0.58410  Biso   1.000  C
  H135     1.0000 0.91100  0.40950  0.57880  Biso   1.000  H
  C149     1.0000 0.84147  0.42810  0.67270  Biso   1.000  C
  C150     1.0000 0.92170  0.44635  0.81750  Biso   1.000  C
  C151     1.0000 0.85576  0.51381  0.80580  Biso   1.000  C
  C152     1.0000 0.78286  0.41919  0.67730  Biso   1.000  C
  H136     1.0000 0.76160  0.43620  0.73460  Biso   1.000  H
  C153     1.0000 0.75933  0.32056  0.42620  Biso   1.000  C
  C154     1.0000 0.80692  0.55225  0.78250  Biso   1.000  C
  H137     1.0000 0.81850  0.59090  0.79340  Biso   1.000  H
  H138     1.0000 0.79440  0.54710  0.70530  Biso   1.000  H
  H139     1.0000 0.77640  0.54350  0.83370  Biso   1.000  H
  C155     1.0000 0.75619  0.38531  0.59700  Biso   1.000  C
  H140     1.0000 0.71720  0.37960  0.60110  Biso   1.000  H
  C156     1.0000 0.95504  0.39277  0.80510  Biso   1.000  C
  H141     1.0000 0.97340  0.38410  0.87590  Biso   1.000  H
  H142     1.0000 0.93000  0.36230  0.78470  Biso   1.000  H
  H143     1.0000 0.98310  0.39750  0.74650  Biso   1.000  H
  O27      1.0000 0.29079  0.80220  0.84677  Biso   1.000  O
  N27      1.0000 0.39478  0.02699  0.38390  Biso   1.000  N
  H144     1.0000 0.39410  0.05750  0.42400  Biso   1.000  H
  O28      1.0000 0.20846  0.80691  0.93720  Biso   1.000  O
  N28      1.0000 0.43570  0.98647  0.39265  Biso   1.000  N
  C157     1.0000 0.34547  0.86945  0.00380  Biso   1.000  C
  H145     1.0000 0.36640  0.85310  0.94530  Biso   1.000  H
  C158     1.0000 0.37130  0.96174  0.26040  Biso   1.000  C
  C159     1.0000 0.28725  0.85976  0.01060  Biso   1.000  C
  C160     1.0000 0.37218  0.90328  0.08410  Biso   1.000  C
  H146     1.0000 0.41100  0.90950  0.07880  Biso   1.000  H
  C161     1.0000 0.34147  0.92810  0.17270  Biso   1.000  C
  C162     1.0000 0.42170  0.94635  0.31750  Biso   1.000  C
  C163     1.0000 0.35576  0.01381  0.30580  Biso   1.000  C
  C164     1.0000 0.28286  0.91919  0.17730  Biso   1.000  C
  H147     1.0000 0.26160  0.93620  0.23460  Biso   1.000  H
  C165     1.0000 0.25933  0.82056  0.92620  Biso   1.000  C
  C166     1.0000 0.30692  0.05225  0.28250  Biso   1.000  C
  H148     1.0000 0.31850  0.09090  0.29340  Biso   1.000  H
  H149     1.0000 0.29440  0.04710  0.20530  Biso   1.000  H
  H150     1.0000 0.27640  0.04350  0.33370  Biso   1.000  H
  C167     1.0000 0.25619  0.88531  0.09700  Biso   1.000  C
  H151     1.0000 0.21720  0.87960  0.10110  Biso   1.000  H
  C168     1.0000 0.45504  0.89277  0.30510  Biso   1.000  C
  H152     1.0000 0.47340  0.88410  0.37590  Biso   1.000  H
  H153     1.0000 0.43000  0.86230  0.28470  Biso   1.000  H
  H154     1.0000 0.48310  0.89750  0.24650  Biso   1.000  H
  O29      1.0000 0.70921  0.69780  0.84677  Biso   1.000  O
  N29      1.0000 0.60522  0.47301  0.38390  Biso   1.000  N
  H155     1.0000 0.60590  0.44250  0.42400  Biso   1.000  H
  O30      1.0000 0.79154  0.69309  0.93720  Biso   1.000  O
  N30      1.0000 0.56430  0.51353  0.39265  Biso   1.000  N
  C169     1.0000 0.65453  0.63055  0.00380  Biso   1.000  C
  H156     1.0000 0.63360  0.64690  0.94530  Biso   1.000  H
  C170     1.0000 0.62870  0.53826  0.26040  Biso   1.000  C
  C171     1.0000 0.71275  0.64024  0.01060  Biso   1.000  C
  C172     1.0000 0.62782  0.59672  0.08410  Biso   1.000  C
  H157     1.0000 0.58900  0.59050  0.07880  Biso   1.000  H
  C173     1.0000 0.65853  0.57190  0.17270  Biso   1.000  C
  C174     1.0000 0.57830  0.55365  0.31750  Biso   1.000  C
  C175     1.0000 0.64424  0.48619  0.30580  Biso   1.000  C
  C176     1.0000 0.71714  0.58081  0.17730  Biso   1.000  C
  H158     1.0000 0.73840  0.56380  0.23460  Biso   1.000  H
  C177     1.0000 0.74067  0.67944  0.92620  Biso   1.000  C
  C178     1.0000 0.69308  0.44775  0.28250  Biso   1.000  C
  H159     1.0000 0.68150  0.40910  0.29340  Biso   1.000  H
  H160     1.0000 0.70560  0.45290  0.20530  Biso   1.000  H
  H161     1.0000 0.72360  0.45650  0.33370  Biso   1.000  H
  C179     1.0000 0.74381  0.61469  0.09700  Biso   1.000  C
  H162     1.0000 0.78280  0.62040  0.10110  Biso   1.000  H
  C180     1.0000 0.54496  0.60723  0.30510  Biso   1.000  C
  H163     1.0000 0.52660  0.61590  0.37590  Biso   1.000  H
  H164     1.0000 0.57000  0.63770  0.28470  Biso   1.000  H
  H165     1.0000 0.51690  0.60250  0.24650  Biso   1.000  H
  O31      1.0000 0.20921  0.19780  0.34677  Biso   1.000  O
  N31      1.0000 0.10522  0.97301  0.88390  Biso   1.000  N
  H166     1.0000 0.10590  0.94250  0.92400  Biso   1.000  H
  O32      1.0000 0.29154  0.19309  0.43720  Biso   1.000  O
  N32      1.0000 0.06430  0.01353  0.89265  Biso   1.000  N
  C181     1.0000 0.15453  0.13055  0.50380  Biso   1.000  C
  H167     1.0000 0.13360  0.14690  0.44530  Biso   1.000  H
  C182     1.0000 0.12870  0.03826  0.76040  Biso   1.000  C
  C183     1.0000 0.21275  0.14024  0.51060  Biso   1.000  C
  C184     1.0000 0.12782  0.09672  0.58410  Biso   1.000  C
  H168     1.0000 0.08900  0.09050  0.57880  Biso   1.000  H
  C185     1.0000 0.15853  0.07190  0.67270  Biso   1.000  C
  C186     1.0000 0.07830  0.05365  0.81750  Biso   1.000  C
  C187     1.0000 0.14424  0.98619  0.80580  Biso   1.000  C
  C188     1.0000 0.21714  0.08081  0.67730  Biso   1.000  C
  H169     1.0000 0.23840  0.06380  0.73460  Biso   1.000  H
  C189     1.0000 0.24067  0.17944  0.42620  Biso   1.000  C
  C190     1.0000 0.19308  0.94775  0.78250  Biso   1.000  C
  H170     1.0000 0.18150  0.90910  0.79340  Biso   1.000  H
  H171     1.0000 0.20560  0.95290  0.70530  Biso   1.000  H
  H172     1.0000 0.22360  0.95650  0.83370  Biso   1.000  H
  C191     1.0000 0.24381  0.11469  0.59700  Biso   1.000  C
  H173     1.0000 0.28280  0.12040  0.60110  Biso   1.000  H
  C192     1.0000 0.04496  0.10723  0.80510  Biso   1.000  C
  H174     1.0000 0.02660  0.11590  0.87590  Biso   1.000  H
  H175     1.0000 0.07000  0.13770  0.78470  Biso   1.000  H
  H176     1.0000 0.01690  0.10250  0.74650  Biso   1.000  H
  Cu1      1.0000 0.50000  0.50000  0.50000  Biso   1.000  Cu
  Cu2      1.0000 0.00000  0.00000  0.00000  Biso   1.000  Cu
  Cu3      1.0000 0.00000  0.50000  0.00000  Biso   1.000  Cu
  Cu4      1.0000 0.50000  0.00000  0.50000  Biso   1.000  Cu
  Cu5      1.0000 0.25000  0.75000  0.75000  Biso   1.000  Cu
  Cu6      1.0000 0.25000  0.25000  0.25000  Biso   1.000  Cu
  Cu7      1.0000 0.75000  0.25000  0.25000  Biso   1.000  Cu
  Cu8      1.0000 0.75000  0.75000  0.75000  Biso   1.000  Cu
