data_image0
_cell_length_a       11.321
_cell_length_b       11.321
_cell_length_c       19.872
_cell_angle_alpha    90
_cell_angle_beta     90
_cell_angle_gamma    120

_symmetry_space_group_name_H-M    P 1
_symmetry_int_tables_number       1

loop_
  _symmetry_equiv_pos_as_xyz
  'x, y, z'

loop_
  _atom_site_label
  _atom_site_occupancy
  _atom_site_fract_x
  _atom_site_fract_y
  _atom_site_fract_z
  _atom_site_thermal_displace_type
  _atom_site_B_iso_or_equiv
  _atom_site_type_symbol
  Zn1      1.0000 0.11015  0.40838  0.77826  Biso   1.000  Zn
  Zn2      1.0000 0.29823  0.88985  0.11159  Biso   1.000  Zn
  Zn3      1.0000 0.59162  0.70177  0.44493  Biso   1.000  Zn
  Zn4      1.0000 0.70177  0.59162  0.22174  Biso   1.000  Zn
  Zn5      1.0000 0.40838  0.11015  0.88841  Biso   1.000  Zn
  Zn6      1.0000 0.88985  0.29823  0.55507  Biso   1.000  Zn
  Zn7      1.0000 0.62177  0.00000  0.50000  Biso   1.000  Zn
  Zn8      1.0000 0.37823  0.37823  0.83333  Biso   1.000  Zn
  Zn9      1.0000 0.00000  0.62177  0.16667  Biso   1.000  Zn
  H1       1.0000 0.15750  0.71000  0.76450  Biso   1.000  H
  H2       1.0000 0.20300  0.83750  0.66110  Biso   1.000  H
  H3       1.0000 0.08690  0.17910  0.53170  Biso   1.000  H
  H4       1.0000 0.31840  0.27390  0.57170  Biso   1.000  H
  H5       1.0000 0.46780  0.47490  0.65780  Biso   1.000  H
  H6       1.0000 0.42230  0.58330  0.66850  Biso   1.000  H
  H7       1.0000 0.15000  0.72030  0.53080  Biso   1.000  H
  H8       1.0000 0.20920  0.62400  0.52280  Biso   1.000  H
  H9       1.0000 0.55250  0.84250  0.09783  Biso   1.000  H
  H10      1.0000 0.63450  0.79700  0.99443  Biso   1.000  H
  H11      1.0000 0.09220  0.91310  0.86503  Biso   1.000  H
  H12      1.0000 0.95550  0.68160  0.90503  Biso   1.000  H
  H13      1.0000 0.00710  0.53220  0.99113  Biso   1.000  H
  H14      1.0000 0.16100  0.57770  0.00183  Biso   1.000  H
  H15      1.0000 0.57030  0.85000  0.86413  Biso   1.000  H
  H16      1.0000 0.41480  0.79080  0.85613  Biso   1.000  H
  H17      1.0000 0.29000  0.44750  0.43117  Biso   1.000  H
  H18      1.0000 0.16250  0.36550  0.32777  Biso   1.000  H
  H19      1.0000 0.82090  0.90780  0.19837  Biso   1.000  H
  H20      1.0000 0.72610  0.04450  0.23837  Biso   1.000  H
  H21      1.0000 0.52510  0.99290  0.32447  Biso   1.000  H
  H22      1.0000 0.41670  0.83900  0.33517  Biso   1.000  H
  H23      1.0000 0.27970  0.42970  0.19747  Biso   1.000  H
  H24      1.0000 0.37600  0.58520  0.18947  Biso   1.000  H
  H25      1.0000 0.44750  0.29000  0.23550  Biso   1.000  H
  H26      1.0000 0.36550  0.16250  0.33890  Biso   1.000  H
  H27      1.0000 0.90780  0.82090  0.46830  Biso   1.000  H
  H28      1.0000 0.04450  0.72610  0.42830  Biso   1.000  H
  H29      1.0000 0.99290  0.52510  0.34220  Biso   1.000  H
  H30      1.0000 0.83900  0.41670  0.33150  Biso   1.000  H
  H31      1.0000 0.42970  0.27970  0.46920  Biso   1.000  H
  H32      1.0000 0.58520  0.37600  0.47720  Biso   1.000  H
  H33      1.0000 0.71000  0.15750  0.90217  Biso   1.000  H
  H34      1.0000 0.83750  0.20300  0.00557  Biso   1.000  H
  H35      1.0000 0.17910  0.08690  0.13497  Biso   1.000  H
  H36      1.0000 0.27390  0.31840  0.09497  Biso   1.000  H
  H37      1.0000 0.47490  0.46780  0.00887  Biso   1.000  H
  H38      1.0000 0.58330  0.42230  0.99817  Biso   1.000  H
  H39      1.0000 0.72030  0.15000  0.13587  Biso   1.000  H
  H40      1.0000 0.62400  0.20920  0.14387  Biso   1.000  H
  H41      1.0000 0.84250  0.55250  0.56883  Biso   1.000  H
  H42      1.0000 0.79700  0.63450  0.67223  Biso   1.000  H
  H43      1.0000 0.91310  0.09220  0.80163  Biso   1.000  H
  H44      1.0000 0.68160  0.95550  0.76163  Biso   1.000  H
  H45      1.0000 0.53220  0.00710  0.67553  Biso   1.000  H
  H46      1.0000 0.57770  0.16100  0.66483  Biso   1.000  H
  H47      1.0000 0.85000  0.57030  0.80253  Biso   1.000  H
  H48      1.0000 0.79080  0.41480  0.81053  Biso   1.000  H
  C1       1.0000 0.16800  0.68050  0.72240  Biso   1.000  C
  C2       1.0000 0.19230  0.75090  0.66570  Biso   1.000  C
  C3       1.0000 0.18000  0.55550  0.64490  Biso   1.000  C
  C4       1.0000 0.18670  0.44650  0.61000  Biso   1.000  C
  C5       1.0000 0.13460  0.25930  0.55640  Biso   1.000  C
  C6       1.0000 0.26250  0.31140  0.57800  Biso   1.000  C
  C7       1.0000 0.43060  0.52510  0.63530  Biso   1.000  C
  C8       1.0000 0.52990  0.61400  0.58180  Biso   1.000  C
  C9       1.0000 0.22410  0.70650  0.54510  Biso   1.000  C
  C10      1.0000 0.37880  0.80410  0.53560  Biso   1.000  C
  C11      1.0000 0.51250  0.83200  0.05573  Biso   1.000  C
  C12      1.0000 0.55860  0.80770  0.99903  Biso   1.000  C
  C13      1.0000 0.37550  0.82000  0.97823  Biso   1.000  C
  C14      1.0000 0.25980  0.81330  0.94333  Biso   1.000  C
  C15      1.0000 0.12470  0.86540  0.88973  Biso   1.000  C
  C16      1.0000 0.04890  0.73750  0.91133  Biso   1.000  C
  C17      1.0000 0.09450  0.56940  0.96863  Biso   1.000  C
  C18      1.0000 0.08410  0.47010  0.91513  Biso   1.000  C
  C19      1.0000 0.48240  0.77590  0.87843  Biso   1.000  C
  C20      1.0000 0.42530  0.62120  0.86893  Biso   1.000  C
  C21      1.0000 0.31950  0.48750  0.38907  Biso   1.000  C
  C22      1.0000 0.24910  0.44140  0.33237  Biso   1.000  C
  C23      1.0000 0.44450  0.62450  0.31157  Biso   1.000  C
  C24      1.0000 0.55350  0.74020  0.27667  Biso   1.000  C
  C25      1.0000 0.74070  0.87530  0.22307  Biso   1.000  C
  C26      1.0000 0.68860  0.95110  0.24467  Biso   1.000  C
  C27      1.0000 0.47490  0.90550  0.30197  Biso   1.000  C
  C28      1.0000 0.38600  0.91590  0.24847  Biso   1.000  C
  C29      1.0000 0.29350  0.51760  0.21177  Biso   1.000  C
  C30      1.0000 0.19590  0.57470  0.20227  Biso   1.000  C
  C31      1.0000 0.48750  0.31950  0.27760  Biso   1.000  C
  C32      1.0000 0.44140  0.24910  0.33430  Biso   1.000  C
  C33      1.0000 0.62450  0.44450  0.35510  Biso   1.000  C
  C34      1.0000 0.74020  0.55350  0.39000  Biso   1.000  C
  C35      1.0000 0.87530  0.74070  0.44360  Biso   1.000  C
  C36      1.0000 0.95110  0.68860  0.42200  Biso   1.000  C
  C37      1.0000 0.90550  0.47490  0.36470  Biso   1.000  C
  C38      1.0000 0.91590  0.38600  0.41820  Biso   1.000  C
  C39      1.0000 0.51760  0.29350  0.45490  Biso   1.000  C
  C40      1.0000 0.57470  0.19590  0.46440  Biso   1.000  C
  C41      1.0000 0.68050  0.16800  0.94427  Biso   1.000  C
  C42      1.0000 0.75090  0.19230  0.00097  Biso   1.000  C
  C43      1.0000 0.55550  0.18000  0.02177  Biso   1.000  C
  C44      1.0000 0.44650  0.18670  0.05667  Biso   1.000  C
  C45      1.0000 0.25930  0.13460  0.11027  Biso   1.000  C
  C46      1.0000 0.31140  0.26250  0.08867  Biso   1.000  C
  C47      1.0000 0.52510  0.43060  0.03137  Biso   1.000  C
  C48      1.0000 0.61400  0.52990  0.08487  Biso   1.000  C
  C49      1.0000 0.70650  0.22410  0.12157  Biso   1.000  C
  C50      1.0000 0.80410  0.37880  0.13107  Biso   1.000  C
  C51      1.0000 0.83200  0.51250  0.61093  Biso   1.000  C
  C52      1.0000 0.80770  0.55860  0.66763  Biso   1.000  C
  C53      1.0000 0.82000  0.37550  0.68843  Biso   1.000  C
  C54      1.0000 0.81330  0.25980  0.72333  Biso   1.000  C
  C55      1.0000 0.86540  0.12470  0.77693  Biso   1.000  C
  C56      1.0000 0.73750  0.04890  0.75533  Biso   1.000  C
  C57      1.0000 0.56940  0.09450  0.69803  Biso   1.000  C
  C58      1.0000 0.47010  0.08410  0.75153  Biso   1.000  C
  C59      1.0000 0.77590  0.48240  0.78823  Biso   1.000  C
  C60      1.0000 0.62120  0.42530  0.79773  Biso   1.000  C
  N1       1.0000 0.16080  0.55960  0.71000  Biso   1.000  N
  N2       1.0000 0.19850  0.67090  0.61470  Biso   1.000  N
  N3       1.0000 0.08300  0.34250  0.57630  Biso   1.000  N
  N4       1.0000 0.29650  0.42930  0.61070  Biso   1.000  N
  N5       1.0000 0.39880  0.83920  0.04333  Biso   1.000  N
  N6       1.0000 0.47240  0.80150  0.94803  Biso   1.000  N
  N7       1.0000 0.25950  0.91700  0.90963  Biso   1.000  N
  N8       1.0000 0.13280  0.70350  0.94403  Biso   1.000  N
  N9       1.0000 0.44040  0.60120  0.37667  Biso   1.000  N
  N10      1.0000 0.32910  0.52760  0.28137  Biso   1.000  N
  N11      1.0000 0.65750  0.74050  0.24297  Biso   1.000  N
  N12      1.0000 0.57070  0.86720  0.27737  Biso   1.000  N
  N13      1.0000 0.60120  0.44040  0.29000  Biso   1.000  N
  N14      1.0000 0.52760  0.32910  0.38530  Biso   1.000  N
  N15      1.0000 0.74050  0.65750  0.42370  Biso   1.000  N
  N16      1.0000 0.86720  0.57070  0.38930  Biso   1.000  N
  N17      1.0000 0.55960  0.16080  0.95667  Biso   1.000  N
  N18      1.0000 0.67090  0.19850  0.05197  Biso   1.000  N
  N19      1.0000 0.34250  0.08300  0.09037  Biso   1.000  N
  N20      1.0000 0.42930  0.29650  0.05597  Biso   1.000  N
  N21      1.0000 0.83920  0.39880  0.62333  Biso   1.000  N
  N22      1.0000 0.80150  0.47240  0.71863  Biso   1.000  N
  N23      1.0000 0.91700  0.25950  0.75703  Biso   1.000  N
  N24      1.0000 0.70350  0.13280  0.72263  Biso   1.000  N
  O1       1.0000 0.48310  0.59470  0.52200  Biso   1.000  O
  O2       1.0000 0.64550  0.69790  0.59920  Biso   1.000  O
  O3       1.0000 0.67310  0.89320  0.44290  Biso   1.000  O
  O4       1.0000 0.46330  0.84100  0.58460  Biso   1.000  O
  O5       1.0000 0.42160  0.85410  0.47750  Biso   1.000  O
  O6       1.0000 0.11160  0.51690  0.85533  Biso   1.000  O
  O7       1.0000 0.05240  0.35450  0.93253  Biso   1.000  O
  O8       1.0000 0.22010  0.32690  0.77623  Biso   1.000  O
  O9       1.0000 0.37770  0.53670  0.91793  Biso   1.000  O
  O10      1.0000 0.43250  0.57840  0.81083  Biso   1.000  O
  O11      1.0000 0.40530  0.88840  0.18867  Biso   1.000  O
  O12      1.0000 0.30210  0.94760  0.26587  Biso   1.000  O
  O13      1.0000 0.10680  0.77990  0.10957  Biso   1.000  O
  O14      1.0000 0.15900  0.62230  0.25127  Biso   1.000  O
  O15      1.0000 0.14590  0.56750  0.14417  Biso   1.000  O
  O16      1.0000 0.88840  0.40530  0.47800  Biso   1.000  O
  O17      1.0000 0.94760  0.30210  0.40080  Biso   1.000  O
  O18      1.0000 0.77990  0.10680  0.55710  Biso   1.000  O
  O19      1.0000 0.62230  0.15900  0.41540  Biso   1.000  O
  O20      1.0000 0.56750  0.14590  0.52250  Biso   1.000  O
  O21      1.0000 0.59470  0.48310  0.14467  Biso   1.000  O
  O22      1.0000 0.69790  0.64550  0.06747  Biso   1.000  O
  O23      1.0000 0.89320  0.67310  0.22377  Biso   1.000  O
  O24      1.0000 0.84100  0.46330  0.08207  Biso   1.000  O
  O25      1.0000 0.85410  0.42160  0.18917  Biso   1.000  O
  O26      1.0000 0.51690  0.11160  0.81133  Biso   1.000  O
  O27      1.0000 0.35450  0.05240  0.73413  Biso   1.000  O
  O28      1.0000 0.32690  0.22010  0.89043  Biso   1.000  O
  O29      1.0000 0.53670  0.37770  0.74873  Biso   1.000  O
  O30      1.0000 0.57840  0.43250  0.85583  Biso   1.000  O
