data_image0
_cell_length_a       11.1753
_cell_length_b       27.609
_cell_length_c       27.609
_cell_angle_alpha    87.6526
_cell_angle_beta     78.3236
_cell_angle_gamma    78.3237

_symmetry_space_group_name_H-M    P 1
_symmetry_int_tables_number       1

loop_
  _symmetry_equiv_pos_as_xyz
  'x, y, z'

loop_
  _atom_site_label
  _atom_site_occupancy
  _atom_site_fract_x
  _atom_site_fract_y
  _atom_site_fract_z
  _atom_site_thermal_displace_type
  _atom_site_B_iso_or_equiv
  _atom_site_type_symbol
  Zn1      1.0000 0.39435  0.45855  0.45975  Biso   1.000  Zn
  Zn2      1.0000 0.31265  0.54145  0.54025  Biso   1.000  Zn
  Zn3      1.0000 0.10410  0.04025  0.95855  Biso   1.000  Zn
  Zn4      1.0000 0.10290  0.95975  0.04145  Biso   1.000  Zn
  Zn5      1.0000 0.93735  0.95975  0.95855  Biso   1.000  Zn
  Zn6      1.0000 0.85565  0.04025  0.04145  Biso   1.000  Zn
  Zn7      1.0000 0.14710  0.45855  0.54025  Biso   1.000  Zn
  Zn8      1.0000 0.14590  0.54145  0.45975  Biso   1.000  Zn
  Zn9      1.0000 0.41168  0.17664  0.00000  Biso   1.000  Zn
  Zn10     1.0000 0.58832  0.82336  0.00000  Biso   1.000  Zn
  Zn11     1.0000 0.66168  0.50000  0.67664  Biso   1.000  Zn
  Zn12     1.0000 0.83832  0.50000  0.32336  Biso   1.000  Zn
  Zn13     1.0000 0.41324  0.00000  0.17352  Biso   1.000  Zn
  Zn14     1.0000 0.58676  0.00000  0.82648  Biso   1.000  Zn
  Zn15     1.0000 0.83676  0.32648  0.50000  Biso   1.000  Zn
  Zn16     1.0000 0.66324  0.67352  0.50000  Biso   1.000  Zn
  H1       1.0000 0.41380  0.13470  0.09130  Biso   1.000  H
  H2       1.0000 0.44700  0.10170  0.13270  Biso   1.000  H
  H3       1.0000 0.22570  0.12890  0.96550  Biso   1.000  H
  H4       1.0000 0.21800  0.97330  0.12950  Biso   1.000  H
  H5       1.0000 0.57370  0.32680  0.32940  Biso   1.000  H
  H6       1.0000 0.55050  0.28910  0.25910  Biso   1.000  H
  H7       1.0000 0.20830  0.37350  0.26930  Biso   1.000  H
  H8       1.0000 0.23150  0.41110  0.33950  Biso   1.000  H
  H9       1.0000 0.47410  0.23880  0.22320  Biso   1.000  H
  H10      1.0000 0.46960  0.20200  0.14980  Biso   1.000  H
  H11      1.0000 0.24470  0.32480  0.11320  Biso   1.000  H
  H12      1.0000 0.24920  0.36170  0.18650  Biso   1.000  H
  H13      1.0000 0.03770  0.97430  0.29390  Biso   1.000  H
  H14      1.0000 0.93460  0.91990  0.34390  Biso   1.000  H
  H15      1.0000 0.21430  0.80690  0.29210  Biso   1.000  H
  H16      1.0000 0.31750  0.86140  0.24200  Biso   1.000  H
  H17      1.0000 0.63980  0.86530  0.90870  Biso   1.000  H
  H18      1.0000 0.68140  0.89830  0.86730  Biso   1.000  H
  H19      1.0000 0.32010  0.87110  0.03450  Biso   1.000  H
  H20      1.0000 0.32080  0.02670  0.87050  Biso   1.000  H
  H21      1.0000 0.22990  0.67320  0.67060  Biso   1.000  H
  H22      1.0000 0.09870  0.71090  0.74090  Biso   1.000  H
  H23      1.0000 0.85110  0.62650  0.73070  Biso   1.000  H
  H24      1.0000 0.98210  0.58890  0.66050  Biso   1.000  H
  H25      1.0000 0.93610  0.76120  0.77680  Biso   1.000  H
  H26      1.0000 0.82140  0.79800  0.85020  Biso   1.000  H
  H27      1.0000 0.68270  0.67520  0.88680  Biso   1.000  H
  H28      1.0000 0.79740  0.63830  0.81350  Biso   1.000  H
  H29      1.0000 0.30590  0.02570  0.70610  Biso   1.000  H
  H30      1.0000 0.19840  0.08010  0.65610  Biso   1.000  H
  H31      1.0000 0.31330  0.19310  0.70790  Biso   1.000  H
  H32      1.0000 0.42090  0.13860  0.75800  Biso   1.000  H
  H33      1.0000 0.75510  0.40870  0.63470  Biso   1.000  H
  H34      1.0000 0.82970  0.36730  0.60170  Biso   1.000  H
  H35      1.0000 0.44120  0.53450  0.62890  Biso   1.000  H
  H36      1.0000 0.59750  0.37050  0.47330  Biso   1.000  H
  H37      1.0000 0.15310  0.17060  0.82680  Biso   1.000  H
  H38      1.0000 0.05960  0.24090  0.78910  Biso   1.000  H
  H39      1.0000 0.72760  0.23070  0.87350  Biso   1.000  H
  H40      1.0000 0.82100  0.16050  0.91110  Biso   1.000  H
  H41      1.0000 0.94730  0.27680  0.73880  Biso   1.000  H
  H42      1.0000 0.86940  0.35020  0.70200  Biso   1.000  H
  H43      1.0000 0.60790  0.38680  0.82480  Biso   1.000  H
  H44      1.0000 0.68570  0.31350  0.86170  Biso   1.000  H
  H45      1.0000 0.58160  0.20610  0.47430  Biso   1.000  H
  H46      1.0000 0.52850  0.15610  0.41990  Biso   1.000  H
  H47      1.0000 0.75640  0.20790  0.30690  Biso   1.000  H
  H48      1.0000 0.80950  0.25800  0.36140  Biso   1.000  H
  H49      1.0000 0.79850  0.59130  0.36530  Biso   1.000  H
  H50      1.0000 0.79870  0.63270  0.39830  Biso   1.000  H
  H51      1.0000 0.60460  0.46550  0.37110  Biso   1.000  H
  H52      1.0000 0.44130  0.62950  0.52670  Biso   1.000  H
  H53      1.0000 0.15050  0.82940  0.17320  Biso   1.000  H
  H54      1.0000 0.08960  0.75910  0.21090  Biso   1.000  H
  H55      1.0000 0.83180  0.76930  0.12650  Biso   1.000  H
  H56      1.0000 0.89260  0.83950  0.08890  Biso   1.000  H
  H57      1.0000 0.96290  0.72320  0.26120  Biso   1.000  H
  H58      1.0000 0.92160  0.64980  0.29800  Biso   1.000  H
  H59      1.0000 0.81950  0.61320  0.17520  Biso   1.000  H
  H60      1.0000 0.86090  0.68650  0.13830  Biso   1.000  H
  H61      1.0000 0.26200  0.79390  0.52570  Biso   1.000  H
  H62      1.0000 0.10450  0.84390  0.58010  Biso   1.000  H
  H63      1.0000 0.27120  0.79210  0.69310  Biso   1.000  H
  H64      1.0000 0.42890  0.74200  0.63860  Biso   1.000  H
  H65      1.0000 0.61020  0.59130  0.63470  Biso   1.000  H
  H66      1.0000 0.56860  0.63270  0.60170  Biso   1.000  H
  H67      1.0000 0.92990  0.46550  0.62890  Biso   1.000  H
  H68      1.0000 0.92920  0.62950  0.47330  Biso   1.000  H
  H69      1.0000 0.02010  0.82940  0.82680  Biso   1.000  H
  H70      1.0000 0.15130  0.75910  0.78910  Biso   1.000  H
  H71      1.0000 0.39890  0.76930  0.87350  Biso   1.000  H
  H72      1.0000 0.26790  0.83950  0.91110  Biso   1.000  H
  H73      1.0000 0.31390  0.72320  0.73880  Biso   1.000  H
  H74      1.0000 0.42860  0.64980  0.70200  Biso   1.000  H
  H75      1.0000 0.56730  0.61320  0.82480  Biso   1.000  H
  H76      1.0000 0.45260  0.68650  0.86170  Biso   1.000  H
  H77      1.0000 0.94410  0.79390  0.47430  Biso   1.000  H
  H78      1.0000 0.05160  0.84390  0.41990  Biso   1.000  H
  H79      1.0000 0.93670  0.79210  0.30690  Biso   1.000  H
  H80      1.0000 0.82910  0.74200  0.36140  Biso   1.000  H
  H81      1.0000 0.83620  0.40870  0.36530  Biso   1.000  H
  H82      1.0000 0.80300  0.36730  0.39830  Biso   1.000  H
  H83      1.0000 0.02430  0.53450  0.37110  Biso   1.000  H
  H84      1.0000 0.03200  0.37050  0.52670  Biso   1.000  H
  H85      1.0000 0.67630  0.17060  0.17320  Biso   1.000  H
  H86      1.0000 0.69950  0.24090  0.21090  Biso   1.000  H
  H87      1.0000 0.04170  0.23070  0.12650  Biso   1.000  H
  H88      1.0000 0.01850  0.16050  0.08890  Biso   1.000  H
  H89      1.0000 0.77590  0.27680  0.26120  Biso   1.000  H
  H90      1.0000 0.78040  0.35020  0.29800  Biso   1.000  H
  H91      1.0000 0.00530  0.38680  0.17520  Biso   1.000  H
  H92      1.0000 0.00080  0.31350  0.13830  Biso   1.000  H
  H93      1.0000 0.21230  0.20610  0.52570  Biso   1.000  H
  H94      1.0000 0.31540  0.15610  0.58010  Biso   1.000  H
  H95      1.0000 0.03570  0.20790  0.69310  Biso   1.000  H
  H96      1.0000 0.93250  0.25800  0.63860  Biso   1.000  H
  H97      1.0000 0.45150  0.13470  0.90870  Biso   1.000  H
  H98      1.0000 0.45130  0.10170  0.86730  Biso   1.000  H
  H99      1.0000 0.64540  0.12890  0.03450  Biso   1.000  H
  H100     1.0000 0.80870  0.97330  0.87050  Biso   1.000  H
  H101     1.0000 0.09950  0.32680  0.67060  Biso   1.000  H
  H102     1.0000 0.16040  0.28910  0.74090  Biso   1.000  H
  H103     1.0000 0.41820  0.37350  0.73070  Biso   1.000  H
  H104     1.0000 0.35740  0.41110  0.66050  Biso   1.000  H
  H105     1.0000 0.28710  0.23880  0.77680  Biso   1.000  H
  H106     1.0000 0.32840  0.20200  0.85020  Biso   1.000  H
  H107     1.0000 0.43050  0.32480  0.88680  Biso   1.000  H
  H108     1.0000 0.38910  0.36170  0.81350  Biso   1.000  H
  H109     1.0000 0.98800  0.97430  0.70610  Biso   1.000  H
  H110     1.0000 0.14550  0.91990  0.65610  Biso   1.000  H
  H111     1.0000 0.97880  0.80690  0.70790  Biso   1.000  H
  H112     1.0000 0.82110  0.86140  0.75800  Biso   1.000  H
  H113     1.0000 0.49490  0.86530  0.09130  Biso   1.000  H
  H114     1.0000 0.42030  0.89830  0.13270  Biso   1.000  H
  H115     1.0000 0.80880  0.87110  0.96550  Biso   1.000  H
  H116     1.0000 0.65250  0.02670  0.12950  Biso   1.000  H
  H117     1.0000 0.09690  0.67320  0.32940  Biso   1.000  H
  H118     1.0000 0.19040  0.71090  0.25910  Biso   1.000  H
  H119     1.0000 0.52240  0.62650  0.26930  Biso   1.000  H
  H120     1.0000 0.42900  0.58890  0.33950  Biso   1.000  H
  H121     1.0000 0.30270  0.76120  0.22320  Biso   1.000  H
  H122     1.0000 0.38060  0.79800  0.14980  Biso   1.000  H
  H123     1.0000 0.64210  0.67520  0.11320  Biso   1.000  H
  H124     1.0000 0.56430  0.63830  0.18650  Biso   1.000  H
  H125     1.0000 0.66840  0.02570  0.29390  Biso   1.000  H
  H126     1.0000 0.72150  0.08010  0.34390  Biso   1.000  H
  H127     1.0000 0.49360  0.19310  0.29210  Biso   1.000  H
  H128     1.0000 0.44050  0.13860  0.24200  Biso   1.000  H
  C1       1.0000 0.23480  0.11120  0.99440  Biso   1.000  C
  C2       1.0000 0.21480  0.05410  0.04550  Biso   1.000  C
  C3       1.0000 0.23460  0.00070  0.11050  Biso   1.000  C
  C4       1.0000 0.33800  0.07330  0.09530  Biso   1.000  C
  C5       1.0000 0.28550  0.08510  0.05890  Biso   1.000  C
  C6       1.0000 0.42850  0.39830  0.38530  Biso   1.000  C
  C7       1.0000 0.50050  0.33610  0.31730  Biso   1.000  C
  C8       1.0000 0.48660  0.31360  0.27520  Biso   1.000  C
  C9       1.0000 0.37710  0.32760  0.25720  Biso   1.000  C
  C10      1.0000 0.28160  0.36410  0.28130  Biso   1.000  C
  C11      1.0000 0.29540  0.38670  0.32350  Biso   1.000  C
  C12      1.0000 0.40490  0.37260  0.34140  Biso   1.000  C
  C13      1.0000 0.42810  0.25610  0.20110  Biso   1.000  C
  C14      1.0000 0.42550  0.23390  0.15710  Biso   1.000  C
  C15      1.0000 0.35680  0.25960  0.12420  Biso   1.000  C
  C16      1.0000 0.29070  0.30760  0.13520  Biso   1.000  C
  C17      1.0000 0.29340  0.32970  0.17910  Biso   1.000  C
  C18      1.0000 0.36200  0.30400  0.21220  Biso   1.000  C
  C19      1.0000 0.35420  0.23640  0.07540  Biso   1.000  C
  C20      1.0000 0.26360  0.95390  0.23050  Biso   1.000  C
  C21      1.0000 0.07280  0.94080  0.29360  Biso   1.000  C
  C22      1.0000 0.01130  0.90810  0.32350  Biso   1.000  C
  C23      1.0000 0.06450  0.85800  0.32300  Biso   1.000  C
  C24      1.0000 0.17850  0.84050  0.29250  Biso   1.000  C
  C25      1.0000 0.24070  0.87310  0.26250  Biso   1.000  C
  C26      1.0000 0.18780  0.92320  0.26300  Biso   1.000  C
  C27      1.0000 0.34040  0.88880  0.00560  Biso   1.000  C
  C28      1.0000 0.31440  0.94590  0.95450  Biso   1.000  C
  C29      1.0000 0.34580  0.99930  0.88950  Biso   1.000  C
  C30      1.0000 0.50660  0.92670  0.90470  Biso   1.000  C
  C31      1.0000 0.42950  0.91490  0.94110  Biso   1.000  C
  C32      1.0000 0.21210  0.60170  0.61470  Biso   1.000  C
  C33      1.0000 0.15390  0.66390  0.68270  Biso   1.000  C
  C34      1.0000 0.07540  0.68640  0.72480  Biso   1.000  C
  C35      1.0000 0.96190  0.67240  0.74280  Biso   1.000  C
  C36      1.0000 0.92700  0.63590  0.71870  Biso   1.000  C
  C37      1.0000 0.00560  0.61330  0.67650  Biso   1.000  C
  C38      1.0000 0.11890  0.62740  0.65860  Biso   1.000  C
  C39      1.0000 0.88530  0.74390  0.79890  Biso   1.000  C
  C40      1.0000 0.81650  0.76610  0.84290  Biso   1.000  C
  C41      1.0000 0.74060  0.74040  0.87580  Biso   1.000  C
  C42      1.0000 0.73350  0.69240  0.86480  Biso   1.000  C
  C43      1.0000 0.80220  0.67030  0.82090  Biso   1.000  C
  C44      1.0000 0.87820  0.69600  0.78780  Biso   1.000  C
  C45      1.0000 0.66600  0.76360  0.92460  Biso   1.000  C
  C46      1.0000 0.44800  0.04610  0.76950  Biso   1.000  C
  C47      1.0000 0.30720  0.05920  0.70640  Biso   1.000  C
  C48      1.0000 0.24290  0.09190  0.67650  Biso   1.000  C
  C49      1.0000 0.24550  0.14200  0.67700  Biso   1.000  C
  C50      1.0000 0.31150  0.15950  0.70750  Biso   1.000  C
  C51      1.0000 0.37630  0.12690  0.73750  Biso   1.000  C
  C52      1.0000 0.37400  0.07680  0.73700  Biso   1.000  C
  C53      1.0000 0.47920  0.50560  0.61120  Biso   1.000  C
  C54      1.0000 0.51030  0.45450  0.55410  Biso   1.000  C
  C55      1.0000 0.59510  0.38950  0.50070  Biso   1.000  C
  C56      1.0000 0.68330  0.40470  0.57330  Biso   1.000  C
  C57      1.0000 0.59440  0.44110  0.58510  Biso   1.000  C
  C58      1.0000 0.06380  0.11470  0.89830  Biso   1.000  C
  C59      1.0000 0.06780  0.18270  0.83610  Biso   1.000  C
  C60      1.0000 0.01180  0.22480  0.81360  Biso   1.000  C
  C61      1.0000 0.88430  0.24280  0.82760  Biso   1.000  C
  C62      1.0000 0.81290  0.21870  0.86410  Biso   1.000  C
  C63      1.0000 0.86890  0.17650  0.88670  Biso   1.000  C
  C64      1.0000 0.99630  0.15860  0.87260  Biso   1.000  C
  C65      1.0000 0.87920  0.29890  0.75610  Biso   1.000  C
  C66      1.0000 0.83260  0.34290  0.73390  Biso   1.000  C
  C67      1.0000 0.73100  0.37580  0.75960  Biso   1.000  C
  C68      1.0000 0.67590  0.36480  0.80760  Biso   1.000  C
  C69      1.0000 0.72250  0.32090  0.82970  Biso   1.000  C
  C70      1.0000 0.82420  0.28780  0.80400  Biso   1.000  C
  C71      1.0000 0.67960  0.42460  0.73640  Biso   1.000  C
  C72      1.0000 0.74410  0.26950  0.45390  Biso   1.000  C
  C73      1.0000 0.61640  0.20640  0.44080  Biso   1.000  C
  C74      1.0000 0.58480  0.17650  0.40810  Biso   1.000  C
  C75      1.0000 0.63750  0.17700  0.35800  Biso   1.000  C
  C76      1.0000 0.72100  0.20750  0.34050  Biso   1.000  C
  C77      1.0000 0.75320  0.23750  0.37310  Biso   1.000  C
  C78      1.0000 0.70080  0.23700  0.42320  Biso   1.000  C
  C79      1.0000 0.59600  0.49440  0.38880  Biso   1.000  C
  C80      1.0000 0.51890  0.54550  0.44590  Biso   1.000  C
  C81      1.0000 0.48530  0.61050  0.49930  Biso   1.000  C
  C82      1.0000 0.66130  0.59530  0.42670  Biso   1.000  C
  C83      1.0000 0.62060  0.55890  0.41490  Biso   1.000  C
  C84      1.0000 0.07680  0.88530  0.10170  Biso   1.000  C
  C85      1.0000 0.08660  0.81730  0.16390  Biso   1.000  C
  C86      1.0000 0.05020  0.77520  0.18640  Biso   1.000  C
  C87      1.0000 0.95470  0.75720  0.17240  Biso   1.000  C
  C88      1.0000 0.89570  0.78130  0.13590  Biso   1.000  C
  C89      1.0000 0.93210  0.82350  0.11330  Biso   1.000  C
  C90      1.0000 0.02750  0.84140  0.12740  Biso   1.000  C
  C91      1.0000 0.93420  0.70110  0.24390  Biso   1.000  C
  C92      1.0000 0.90940  0.65710  0.26610  Biso   1.000  C
  C93      1.0000 0.86640  0.62420  0.24040  Biso   1.000  C
  C94      1.0000 0.84830  0.63520  0.19240  Biso   1.000  C
  C95      1.0000 0.87310  0.67910  0.17030  Biso   1.000  C
  C96      1.0000 0.91600  0.71220  0.19600  Biso   1.000  C
  C97      1.0000 0.84060  0.57540  0.26360  Biso   1.000  C
  C98      1.0000 0.46750  0.73050  0.54610  Biso   1.000  C
  C99      1.0000 0.26360  0.79360  0.55920  Biso   1.000  C
  C100     1.0000 0.16940  0.82350  0.59190  Biso   1.000  C
  C101     1.0000 0.17250  0.82300  0.64200  Biso   1.000  C
  C102     1.0000 0.26900  0.79250  0.65950  Biso   1.000  C
  C103     1.0000 0.36380  0.76250  0.62690  Biso   1.000  C
  C104     1.0000 0.36100  0.76300  0.57680  Biso   1.000  C
  C105     1.0000 0.90960  0.49440  0.61120  Biso   1.000  C
  C106     1.0000 0.93560  0.54550  0.55410  Biso   1.000  C
  C107     1.0000 0.90420  0.61050  0.50070  Biso   1.000  C
  C108     1.0000 0.74340  0.59530  0.57330  Biso   1.000  C
  C109     1.0000 0.82050  0.55890  0.58510  Biso   1.000  C
  C110     1.0000 0.03790  0.88530  0.89830  Biso   1.000  C
  C111     1.0000 0.09610  0.81730  0.83610  Biso   1.000  C
  C112     1.0000 0.17460  0.77520  0.81360  Biso   1.000  C
  C113     1.0000 0.28810  0.75720  0.82760  Biso   1.000  C
  C114     1.0000 0.32300  0.78130  0.86410  Biso   1.000  C
  C115     1.0000 0.24440  0.82350  0.88670  Biso   1.000  C
  C116     1.0000 0.13110  0.84140  0.87260  Biso   1.000  C
  C117     1.0000 0.36470  0.70110  0.75610  Biso   1.000  C
  C118     1.0000 0.43350  0.65710  0.73390  Biso   1.000  C
  C119     1.0000 0.50940  0.62420  0.75960  Biso   1.000  C
  C120     1.0000 0.51650  0.63520  0.80760  Biso   1.000  C
  C121     1.0000 0.44780  0.67910  0.82970  Biso   1.000  C
  C122     1.0000 0.37180  0.71220  0.80400  Biso   1.000  C
  C123     1.0000 0.58400  0.57540  0.73640  Biso   1.000  C
  C124     1.0000 0.80200  0.73050  0.45390  Biso   1.000  C
  C125     1.0000 0.94280  0.79360  0.44080  Biso   1.000  C
  C126     1.0000 0.00710  0.82350  0.40810  Biso   1.000  C
  C127     1.0000 0.00450  0.82300  0.35800  Biso   1.000  C
  C128     1.0000 0.93850  0.79250  0.34050  Biso   1.000  C
  C129     1.0000 0.87370  0.76250  0.37310  Biso   1.000  C
  C130     1.0000 0.87600  0.76300  0.42320  Biso   1.000  C
  C131     1.0000 0.01520  0.50560  0.38880  Biso   1.000  C
  C132     1.0000 0.03520  0.45450  0.44590  Biso   1.000  C
  C133     1.0000 0.01540  0.38950  0.49930  Biso   1.000  C
  C134     1.0000 0.91200  0.40470  0.42670  Biso   1.000  C
  C135     1.0000 0.96450  0.44110  0.41490  Biso   1.000  C
  C136     1.0000 0.82150  0.11470  0.10170  Biso   1.000  C
  C137     1.0000 0.74950  0.18270  0.16390  Biso   1.000  C
  C138     1.0000 0.76340  0.22480  0.18640  Biso   1.000  C
  C139     1.0000 0.87290  0.24280  0.17240  Biso   1.000  C
  C140     1.0000 0.96840  0.21870  0.13590  Biso   1.000  C
  C141     1.0000 0.95460  0.17650  0.11330  Biso   1.000  C
  C142     1.0000 0.84510  0.15860  0.12740  Biso   1.000  C
  C143     1.0000 0.82190  0.29890  0.24390  Biso   1.000  C
  C144     1.0000 0.82450  0.34290  0.26610  Biso   1.000  C
  C145     1.0000 0.89320  0.37580  0.24040  Biso   1.000  C
  C146     1.0000 0.95930  0.36480  0.19240  Biso   1.000  C
  C147     1.0000 0.95660  0.32090  0.17030  Biso   1.000  C
  C148     1.0000 0.88800  0.28780  0.19600  Biso   1.000  C
  C149     1.0000 0.89580  0.42460  0.26360  Biso   1.000  C
  C150     1.0000 0.98640  0.26950  0.54610  Biso   1.000  C
  C151     1.0000 0.17720  0.20640  0.55920  Biso   1.000  C
  C152     1.0000 0.23870  0.17650  0.59190  Biso   1.000  C
  C153     1.0000 0.18550  0.17700  0.64200  Biso   1.000  C
  C154     1.0000 0.07150  0.20750  0.65950  Biso   1.000  C
  C155     1.0000 0.00930  0.23750  0.62690  Biso   1.000  C
  C156     1.0000 0.06220  0.23700  0.57680  Biso   1.000  C
  C157     1.0000 0.65400  0.11120  0.00560  Biso   1.000  C
  C158     1.0000 0.73110  0.05410  0.95450  Biso   1.000  C
  C159     1.0000 0.76470  0.00070  0.88950  Biso   1.000  C
  C160     1.0000 0.58870  0.07330  0.90470  Biso   1.000  C
  C161     1.0000 0.62940  0.08510  0.94110  Biso   1.000  C
  C162     1.0000 0.17320  0.39830  0.61470  Biso   1.000  C
  C163     1.0000 0.16340  0.33610  0.68270  Biso   1.000  C
  C164     1.0000 0.19980  0.31360  0.72480  Biso   1.000  C
  C165     1.0000 0.29530  0.32760  0.74280  Biso   1.000  C
  C166     1.0000 0.35430  0.36410  0.71870  Biso   1.000  C
  C167     1.0000 0.31790  0.38670  0.67650  Biso   1.000  C
  C168     1.0000 0.22250  0.37260  0.65860  Biso   1.000  C
  C169     1.0000 0.31580  0.25610  0.79890  Biso   1.000  C
  C170     1.0000 0.34060  0.23390  0.84290  Biso   1.000  C
  C171     1.0000 0.38360  0.25960  0.87580  Biso   1.000  C
  C172     1.0000 0.40170  0.30760  0.86480  Biso   1.000  C
  C173     1.0000 0.37690  0.32970  0.82090  Biso   1.000  C
  C174     1.0000 0.33400  0.30400  0.78780  Biso   1.000  C
  C175     1.0000 0.40940  0.23640  0.92460  Biso   1.000  C
  C176     1.0000 0.78250  0.95390  0.76950  Biso   1.000  C
  C177     1.0000 0.98640  0.94080  0.70640  Biso   1.000  C
  C178     1.0000 0.08060  0.90810  0.67650  Biso   1.000  C
  C179     1.0000 0.07750  0.85800  0.67700  Biso   1.000  C
  C180     1.0000 0.98100  0.84050  0.70750  Biso   1.000  C
  C181     1.0000 0.88620  0.87310  0.73750  Biso   1.000  C
  C182     1.0000 0.88900  0.92320  0.73700  Biso   1.000  C
  C183     1.0000 0.77080  0.88880  0.99440  Biso   1.000  C
  C184     1.0000 0.73970  0.94590  0.04550  Biso   1.000  C
  C185     1.0000 0.65490  0.99930  0.11050  Biso   1.000  C
  C186     1.0000 0.56670  0.92670  0.09530  Biso   1.000  C
  C187     1.0000 0.65560  0.91490  0.05890  Biso   1.000  C
  C188     1.0000 0.18620  0.60170  0.38530  Biso   1.000  C
  C189     1.0000 0.18220  0.66390  0.31730  Biso   1.000  C
  C190     1.0000 0.23820  0.68640  0.27520  Biso   1.000  C
  C191     1.0000 0.36570  0.67240  0.25720  Biso   1.000  C
  C192     1.0000 0.43710  0.63590  0.28130  Biso   1.000  C
  C193     1.0000 0.38110  0.61330  0.32350  Biso   1.000  C
  C194     1.0000 0.25370  0.62740  0.34140  Biso   1.000  C
  C195     1.0000 0.37080  0.74390  0.20110  Biso   1.000  C
  C196     1.0000 0.41740  0.76610  0.15710  Biso   1.000  C
  C197     1.0000 0.51900  0.74040  0.12420  Biso   1.000  C
  C198     1.0000 0.57410  0.69240  0.13520  Biso   1.000  C
  C199     1.0000 0.52750  0.67030  0.17910  Biso   1.000  C
  C200     1.0000 0.42580  0.69600  0.21220  Biso   1.000  C
  C201     1.0000 0.57040  0.76360  0.07540  Biso   1.000  C
  C202     1.0000 0.50590  0.04610  0.23050  Biso   1.000  C
  C203     1.0000 0.63360  0.05920  0.29360  Biso   1.000  C
  C204     1.0000 0.66520  0.09190  0.32350  Biso   1.000  C
  C205     1.0000 0.61250  0.14200  0.32300  Biso   1.000  C
  C206     1.0000 0.52900  0.15950  0.29250  Biso   1.000  C
  C207     1.0000 0.49680  0.12690  0.26250  Biso   1.000  C
  C208     1.0000 0.54920  0.07680  0.26300  Biso   1.000  C
  N1       1.0000 0.18320  0.07180  0.00580  Biso   1.000  N
  N2       1.0000 0.18340  0.01290  0.06990  Biso   1.000  N
  N3       1.0000 0.30600  0.02730  0.12270  Biso   1.000  N
  N4       1.0000 0.30410  0.12560  0.02720  Biso   1.000  N
  N5       1.0000 0.40941  0.10799  0.10819  Biso   1.000  N
  N6       1.0000 0.26080  0.92820  0.99420  Biso   1.000  N
  N7       1.0000 0.26620  0.98710  0.93010  Biso   1.000  N
  N8       1.0000 0.45600  0.97270  0.87730  Biso   1.000  N
  N9       1.0000 0.45690  0.87440  0.97280  Biso   1.000  N
  N10      1.0000 0.62559  0.89201  0.89181  Biso   1.000  N
  N11      1.0000 0.43900  0.49420  0.57180  Biso   1.000  N
  N12      1.0000 0.50330  0.43010  0.51290  Biso   1.000  N
  N13      1.0000 0.67870  0.37730  0.52730  Biso   1.000  N
  N14      1.0000 0.58130  0.47280  0.62560  Biso   1.000  N
  N15      1.0000 0.76760  0.39181  0.60799  Biso   1.000  N
  N16      1.0000 0.50500  0.50580  0.42820  Biso   1.000  N
  N17      1.0000 0.44630  0.56990  0.48710  Biso   1.000  N
  N18      1.0000 0.58330  0.62270  0.47270  Biso   1.000  N
  N19      1.0000 0.67970  0.52720  0.37440  Biso   1.000  N
  N20      1.0000 0.76740  0.60819  0.39201  Biso   1.000  N
  N21      1.0000 0.98920  0.50580  0.57180  Biso   1.000  N
  N22      1.0000 0.98380  0.56990  0.51290  Biso   1.000  N
  N23      1.0000 0.79400  0.62270  0.52730  Biso   1.000  N
  N24      1.0000 0.79310  0.52720  0.62560  Biso   1.000  N
  N25      1.0000 0.62441  0.60819  0.60799  Biso   1.000  N
  N26      1.0000 0.06680  0.49420  0.42820  Biso   1.000  N
  N27      1.0000 0.06660  0.43010  0.48710  Biso   1.000  N
  N28      1.0000 0.94400  0.37730  0.47270  Biso   1.000  N
  N29      1.0000 0.94590  0.47280  0.37440  Biso   1.000  N
  N30      1.0000 0.84059  0.39181  0.39201  Biso   1.000  N
  N31      1.0000 0.74500  0.07180  0.99420  Biso   1.000  N
  N32      1.0000 0.80370  0.01290  0.93010  Biso   1.000  N
  N33      1.0000 0.66670  0.02730  0.87730  Biso   1.000  N
  N34      1.0000 0.57030  0.12560  0.97280  Biso   1.000  N
  N35      1.0000 0.48260  0.10799  0.89181  Biso   1.000  N
  N36      1.0000 0.81100  0.92820  0.00580  Biso   1.000  N
  N37      1.0000 0.74670  0.98710  0.06990  Biso   1.000  N
  N38      1.0000 0.57130  0.97270  0.12270  Biso   1.000  N
  N39      1.0000 0.66870  0.87440  0.02720  Biso   1.000  N
  N40      1.0000 0.48240  0.89201  0.10819  Biso   1.000  N
  O1       1.0000 0.53150  0.39020  0.39340  Biso   1.000  O
  O2       1.0000 0.33730  0.43020  0.40640  Biso   1.000  O
  O3       1.0000 0.44130  0.19990  0.05970  Biso   1.000  O
  O4       1.0000 0.27150  0.25000  0.05320  Biso   1.000  O
  O5       1.0000 0.34730  0.93970  0.19770  Biso   1.000  O
  O6       1.0000 0.23670  0.99940  0.24200  Biso   1.000  O
  O7       1.0000 0.31510  0.60980  0.60660  Biso   1.000  O
  O8       1.0000 0.17390  0.56980  0.59360  Biso   1.000  O
  O9       1.0000 0.70090  0.80010  0.94030  Biso   1.000  O
  O10      1.0000 0.57470  0.75000  0.94680  Biso   1.000  O
  O11      1.0000 0.48470  0.06030  0.80230  Biso   1.000  O
  O12      1.0000 0.47810  0.00060  0.75800  Biso   1.000  O
  O13      1.0000 0.17490  0.10660  0.89020  Biso   1.000  O
  O14      1.0000 0.99370  0.09360  0.93020  Biso   1.000  O
  O15      1.0000 0.75100  0.44030  0.69990  Biso   1.000  O
  O16      1.0000 0.57470  0.44680  0.75000  Biso   1.000  O
  O17      1.0000 0.79500  0.30230  0.43970  Biso   1.000  O
  O18      1.0000 0.72870  0.25800  0.49940  Biso   1.000  O
  O19      1.0000 0.17170  0.89340  0.10980  Biso   1.000  O
  O20      1.0000 0.01750  0.90640  0.06980  Biso   1.000  O
  O21      1.0000 0.89120  0.55970  0.30010  Biso   1.000  O
  O22      1.0000 0.77150  0.55320  0.25000  Biso   1.000  O
  O23      1.0000 0.53700  0.69770  0.56030  Biso   1.000  O
  O24      1.0000 0.48610  0.74200  0.50060  Biso   1.000  O
  O25      1.0000 0.93490  0.89340  0.89020  Biso   1.000  O
  O26      1.0000 0.07610  0.90640  0.93020  Biso   1.000  O
  O27      1.0000 0.54910  0.55970  0.69990  Biso   1.000  O
  O28      1.0000 0.67530  0.55320  0.75000  Biso   1.000  O
  O29      1.0000 0.76530  0.69770  0.43970  Biso   1.000  O
  O30      1.0000 0.77190  0.74200  0.49940  Biso   1.000  O
  O31      1.0000 0.71850  0.10660  0.10980  Biso   1.000  O
  O32      1.0000 0.91270  0.09360  0.06980  Biso   1.000  O
  O33      1.0000 0.80870  0.44030  0.30010  Biso   1.000  O
  O34      1.0000 0.97850  0.44680  0.25000  Biso   1.000  O
  O35      1.0000 0.90270  0.30230  0.56030  Biso   1.000  O
  O36      1.0000 0.01330  0.25800  0.50060  Biso   1.000  O
  O37      1.0000 0.07830  0.39020  0.60660  Biso   1.000  O
  O38      1.0000 0.23250  0.43020  0.59360  Biso   1.000  O
  O39      1.0000 0.35880  0.19990  0.94030  Biso   1.000  O
  O40      1.0000 0.47850  0.25000  0.94680  Biso   1.000  O
  O41      1.0000 0.71300  0.93970  0.80230  Biso   1.000  O
  O42      1.0000 0.76390  0.99940  0.75800  Biso   1.000  O
  O43      1.0000 0.07510  0.60980  0.39340  Biso   1.000  O
  O44      1.0000 0.25630  0.56980  0.40640  Biso   1.000  O
  O45      1.0000 0.49900  0.80010  0.05970  Biso   1.000  O
  O46      1.0000 0.67530  0.75000  0.05320  Biso   1.000  O
  O47      1.0000 0.45500  0.06030  0.19770  Biso   1.000  O
  O48      1.0000 0.52130  0.00060  0.24200  Biso   1.000  O
  O49      1.0000 0.25000  0.50000  0.50000  Biso   1.000  O
  O50      1.0000 0.00000  0.00000  0.00000  Biso   1.000  O
