data_image0
_cell_length_a       18.1667
_cell_length_b       12.5175
_cell_length_c       11.021
_cell_angle_alpha    90
_cell_angle_beta     102.672
_cell_angle_gamma    90

_symmetry_space_group_name_H-M    "P 1"
_symmetry_int_tables_number       1

loop_
  _symmetry_equiv_pos_as_xyz
  'x, y, z'

loop_
  _atom_site_label
  _atom_site_occupancy
  _atom_site_fract_x
  _atom_site_fract_y
  _atom_site_fract_z
  _atom_site_thermal_displace_type
  _atom_site_B_iso_or_equiv
  _atom_site_type_symbol
  Mg1      1.0000 0.08427  0.03632  0.04019  Biso   1.000  Mg
  N1       1.0000 0.18411  0.93187  0.11037  Biso   1.000  N
  O1       1.0000 0.07527  0.98368  0.21889  Biso   1.000  O
  O2       1.0000 0.13210  0.90995  0.39936  Biso   1.000  O
  O3       1.0000 0.35482  0.66603  0.37018  Biso   1.000  O
  O4       1.0000 0.41692  0.71139  0.22404  Biso   1.000  O
  O5       1.0000 0.97919  0.08840  0.05421  Biso   1.000  O
  H1       1.0000 0.96210  0.14900  0.02800  Biso   1.000  H
  C1       1.0000 0.18875  0.89201  0.22610  Biso   1.000  C
  C2       1.0000 0.24513  0.82450  0.28380  Biso   1.000  C
  H2       1.0000 0.24610  0.80200  0.35500  Biso   1.000  H
  C3       1.0000 0.30073  0.79547  0.22180  Biso   1.000  C
  C4       1.0000 0.29761  0.83820  0.10460  Biso   1.000  C
  H3       1.0000 0.33350  0.82100  0.06100  Biso   1.000  H
  C5       1.0000 0.23857  0.90480  0.05240  Biso   1.000  C
  H4       1.0000 0.23220  0.93200  0.97100  Biso   1.000  H
  C6       1.0000 0.12693  0.93049  0.28760  Biso   1.000  C
  C7       1.0000 0.36331  0.71765  0.27750  Biso   1.000  C
  Mg2      1.0000 0.58427  0.53632  0.04019  Biso   1.000  Mg
  N2       1.0000 0.68411  0.43187  0.11037  Biso   1.000  N
  O6       1.0000 0.57527  0.48368  0.21889  Biso   1.000  O
  O7       1.0000 0.63210  0.40995  0.39936  Biso   1.000  O
  O8       1.0000 0.85482  0.16603  0.37018  Biso   1.000  O
  O9       1.0000 0.91692  0.21139  0.22404  Biso   1.000  O
  O10      1.0000 0.47919  0.58840  0.05421  Biso   1.000  O
  H5       1.0000 0.46210  0.64900  0.02800  Biso   1.000  H
  C8       1.0000 0.68875  0.39201  0.22610  Biso   1.000  C
  C9       1.0000 0.74513  0.32450  0.28380  Biso   1.000  C
  H6       1.0000 0.74610  0.30200  0.35500  Biso   1.000  H
  C10      1.0000 0.80073  0.29547  0.22180  Biso   1.000  C
  C11      1.0000 0.79761  0.33820  0.10460  Biso   1.000  C
  H7       1.0000 0.83350  0.32100  0.06100  Biso   1.000  H
  C12      1.0000 0.73857  0.40480  0.05240  Biso   1.000  C
  H8       1.0000 0.73220  0.43200  0.97100  Biso   1.000  H
  C13      1.0000 0.62693  0.43049  0.28760  Biso   1.000  C
  C14      1.0000 0.86331  0.21765  0.27750  Biso   1.000  C
  Mg3      1.0000 0.91573  0.03632  0.45981  Biso   1.000  Mg
  N3       1.0000 0.81589  0.93187  0.38963  Biso   1.000  N
  O11      1.0000 0.92473  0.98368  0.28111  Biso   1.000  O
  O12      1.0000 0.86790  0.90995  0.10064  Biso   1.000  O
  O13      1.0000 0.64518  0.66603  0.12982  Biso   1.000  O
  O14      1.0000 0.58308  0.71139  0.27596  Biso   1.000  O
  O15      1.0000 0.02081  0.08840  0.44579  Biso   1.000  O
  H9       1.0000 0.03790  0.14900  0.47200  Biso   1.000  H
  C15      1.0000 0.81125  0.89201  0.27390  Biso   1.000  C
  C16      1.0000 0.75487  0.82450  0.21620  Biso   1.000  C
  H10      1.0000 0.75390  0.80200  0.14500  Biso   1.000  H
  C17      1.0000 0.69927  0.79547  0.27820  Biso   1.000  C
  C18      1.0000 0.70239  0.83820  0.39540  Biso   1.000  C
  H11      1.0000 0.66650  0.82100  0.43900  Biso   1.000  H
  C19      1.0000 0.76143  0.90480  0.44760  Biso   1.000  C
  H12      1.0000 0.76780  0.93200  0.52900  Biso   1.000  H
  C20      1.0000 0.87307  0.93049  0.21240  Biso   1.000  C
  C21      1.0000 0.63669  0.71765  0.22250  Biso   1.000  C
  Mg4      1.0000 0.41573  0.53632  0.45981  Biso   1.000  Mg
  N4       1.0000 0.31589  0.43187  0.38963  Biso   1.000  N
  O16      1.0000 0.42473  0.48368  0.28111  Biso   1.000  O
  O17      1.0000 0.36790  0.40995  0.10064  Biso   1.000  O
  O18      1.0000 0.14518  0.16603  0.12982  Biso   1.000  O
  O19      1.0000 0.08308  0.21139  0.27596  Biso   1.000  O
  O20      1.0000 0.52081  0.58840  0.44579  Biso   1.000  O
  H13      1.0000 0.53790  0.64900  0.47200  Biso   1.000  H
  C22      1.0000 0.31125  0.39201  0.27390  Biso   1.000  C
  C23      1.0000 0.25487  0.32450  0.21620  Biso   1.000  C
  H14      1.0000 0.25390  0.30200  0.14500  Biso   1.000  H
  C24      1.0000 0.19927  0.29547  0.27820  Biso   1.000  C
  C25      1.0000 0.20239  0.33820  0.39540  Biso   1.000  C
  H15      1.0000 0.16650  0.32100  0.43900  Biso   1.000  H
  C26      1.0000 0.26143  0.40480  0.44760  Biso   1.000  C
  H16      1.0000 0.26780  0.43200  0.52900  Biso   1.000  H
  C27      1.0000 0.37307  0.43049  0.21240  Biso   1.000  C
  C28      1.0000 0.13669  0.21765  0.22250  Biso   1.000  C
  Mg5      1.0000 0.91573  0.96368  0.95981  Biso   1.000  Mg
  N5       1.0000 0.81589  0.06813  0.88963  Biso   1.000  N
  O21      1.0000 0.92473  0.01632  0.78111  Biso   1.000  O
  O22      1.0000 0.86790  0.09005  0.60064  Biso   1.000  O
  O23      1.0000 0.64518  0.33397  0.62982  Biso   1.000  O
  O24      1.0000 0.58308  0.28861  0.77596  Biso   1.000  O
  O25      1.0000 0.02081  0.91160  0.94579  Biso   1.000  O
  H17      1.0000 0.03790  0.85100  0.97200  Biso   1.000  H
  C29      1.0000 0.81125  0.10799  0.77390  Biso   1.000  C
  C30      1.0000 0.75487  0.17550  0.71620  Biso   1.000  C
  H18      1.0000 0.75390  0.19800  0.64500  Biso   1.000  H
  C31      1.0000 0.69927  0.20453  0.77820  Biso   1.000  C
  C32      1.0000 0.70239  0.16180  0.89540  Biso   1.000  C
  H19      1.0000 0.66650  0.17900  0.93900  Biso   1.000  H
  C33      1.0000 0.76143  0.09520  0.94760  Biso   1.000  C
  H20      1.0000 0.76780  0.06800  0.02900  Biso   1.000  H
  C34      1.0000 0.87307  0.06951  0.71240  Biso   1.000  C
  C35      1.0000 0.63669  0.28235  0.72250  Biso   1.000  C
  Mg6      1.0000 0.41573  0.46368  0.95981  Biso   1.000  Mg
  N6       1.0000 0.31589  0.56813  0.88963  Biso   1.000  N
  O26      1.0000 0.42473  0.51632  0.78111  Biso   1.000  O
  O27      1.0000 0.36790  0.59005  0.60064  Biso   1.000  O
  O28      1.0000 0.14518  0.83397  0.62982  Biso   1.000  O
  O29      1.0000 0.08308  0.78861  0.77596  Biso   1.000  O
  O30      1.0000 0.52081  0.41160  0.94579  Biso   1.000  O
  H21      1.0000 0.53790  0.35100  0.97200  Biso   1.000  H
  C36      1.0000 0.31125  0.60799  0.77390  Biso   1.000  C
  C37      1.0000 0.25487  0.67550  0.71620  Biso   1.000  C
  H22      1.0000 0.25390  0.69800  0.64500  Biso   1.000  H
  C38      1.0000 0.19927  0.70453  0.77820  Biso   1.000  C
  C39      1.0000 0.20239  0.66180  0.89540  Biso   1.000  C
  H23      1.0000 0.16650  0.67900  0.93900  Biso   1.000  H
  C40      1.0000 0.26143  0.59520  0.94760  Biso   1.000  C
  H24      1.0000 0.26780  0.56800  0.02900  Biso   1.000  H
  C41      1.0000 0.37307  0.56951  0.71240  Biso   1.000  C
  C42      1.0000 0.13669  0.78235  0.72250  Biso   1.000  C
  Mg7      1.0000 0.08427  0.96368  0.54019  Biso   1.000  Mg
  N7       1.0000 0.18411  0.06813  0.61037  Biso   1.000  N
  O31      1.0000 0.07527  0.01632  0.71889  Biso   1.000  O
  O32      1.0000 0.13210  0.09005  0.89936  Biso   1.000  O
  O33      1.0000 0.35482  0.33397  0.87018  Biso   1.000  O
  O34      1.0000 0.41692  0.28861  0.72404  Biso   1.000  O
  O35      1.0000 0.97919  0.91160  0.55421  Biso   1.000  O
  H25      1.0000 0.96210  0.85100  0.52800  Biso   1.000  H
  C43      1.0000 0.18875  0.10799  0.72610  Biso   1.000  C
  C44      1.0000 0.24513  0.17550  0.78380  Biso   1.000  C
  H26      1.0000 0.24610  0.19800  0.85500  Biso   1.000  H
  C45      1.0000 0.30073  0.20453  0.72180  Biso   1.000  C
  C46      1.0000 0.29761  0.16180  0.60460  Biso   1.000  C
  H27      1.0000 0.33350  0.17900  0.56100  Biso   1.000  H
  C47      1.0000 0.23857  0.09520  0.55240  Biso   1.000  C
  H28      1.0000 0.23220  0.06800  0.47100  Biso   1.000  H
  C48      1.0000 0.12693  0.06951  0.78760  Biso   1.000  C
  C49      1.0000 0.36331  0.28235  0.77750  Biso   1.000  C
  Mg8      1.0000 0.58427  0.46368  0.54019  Biso   1.000  Mg
  N8       1.0000 0.68411  0.56813  0.61037  Biso   1.000  N
  O36      1.0000 0.57527  0.51632  0.71889  Biso   1.000  O
  O37      1.0000 0.63210  0.59005  0.89936  Biso   1.000  O
  O38      1.0000 0.85482  0.83397  0.87018  Biso   1.000  O
  O39      1.0000 0.91692  0.78861  0.72404  Biso   1.000  O
  O40      1.0000 0.47919  0.41160  0.55421  Biso   1.000  O
  H29      1.0000 0.46210  0.35100  0.52800  Biso   1.000  H
  C50      1.0000 0.68875  0.60799  0.72610  Biso   1.000  C
  C51      1.0000 0.74513  0.67550  0.78380  Biso   1.000  C
  H30      1.0000 0.74610  0.69800  0.85500  Biso   1.000  H
  C52      1.0000 0.80073  0.70453  0.72180  Biso   1.000  C
  C53      1.0000 0.79761  0.66180  0.60460  Biso   1.000  C
  H31      1.0000 0.83350  0.67900  0.56100  Biso   1.000  H
  C54      1.0000 0.73857  0.59520  0.55240  Biso   1.000  C
  H32      1.0000 0.73220  0.56800  0.47100  Biso   1.000  H
  C55      1.0000 0.62693  0.56951  0.78760  Biso   1.000  C
  C56      1.0000 0.86331  0.78235  0.77750  Biso   1.000  C
  Mg9      1.0000 0.00000  0.09915  0.25000  Biso   1.000  Mg
  Mg10     1.0000 0.50000  0.59915  0.25000  Biso   1.000  Mg
  Mg11     1.0000 0.00000  0.90085  0.75000  Biso   1.000  Mg
  Mg12     1.0000 0.50000  0.40085  0.75000  Biso   1.000  Mg
