data_NUFTOY_charged
_audit_creation_date              2014-07-02
_audit_creation_method            'Materials Studio'
_symmetry_space_group_name_H-M    'P1'
_symmetry_Int_Tables_number       1
_symmetry_cell_setting            triclinic
loop_
_symmetry_equiv_pos_as_xyz
  x,y,z
_cell_length_a                    8.2835
_cell_length_b                    31.7450
_cell_length_c                    31.7450
_cell_angle_alpha                 90.0000
_cell_angle_beta                  90.0000
_cell_angle_gamma                 90.0000
loop_
_atom_site_label
_atom_site_type_symbol
_atom_site_fract_x
_atom_site_fract_y
_atom_site_fract_z
_atom_site_U_iso_or_equiv
_atom_site_adp_type
_atom_site_occupancy
In1    In    0.90310   0.46542   0.30696   0.01267  Uiso   1.00
In2    In    0.90310   0.03458   0.19304   0.01267  Uiso   1.00
In3    In    0.90310   0.19304   0.46542   0.01267  Uiso   1.00
In4    In    0.90310   0.30696   0.03458   0.01267  Uiso   1.00
In5    In    0.09690   0.53458   0.69304   0.01267  Uiso   1.00
In6    In    0.09690   0.96542   0.80696   0.01267  Uiso   1.00
In7    In    0.09690   0.80696   0.53458   0.01267  Uiso   1.00
In8    In    0.09690   0.69304   0.96542   0.01267  Uiso   1.00
H1     H     0.35650   0.37970   0.32470   0.01267  Uiso   1.00
H2     H     0.61370   0.33820   0.32840   0.01267  Uiso   1.00
H3     H     0.76360   0.28620   0.35750   0.01267  Uiso   1.00
H4     H     0.37600   0.24600   0.42340   0.01267  Uiso   1.00
H5     H     0.11650   0.28580   0.41620   0.01267  Uiso   1.00
H6     H     0.97470   0.34240   0.39160   0.01267  Uiso   1.00
H7     H     0.72180   0.57210   0.21120   0.01267  Uiso   1.00
H8     H     0.72660   0.61000   0.15130   0.01267  Uiso   1.00
H9     H     0.86030   0.63090   0.08390   0.01267  Uiso   1.00
H10    H     0.28840   0.58040   0.05420   0.01267  Uiso   1.00
H11    H     0.27800   0.53830   0.11220   0.01267  Uiso   1.00
H12    H     0.14050   0.51810   0.17960   0.01267  Uiso   1.00
H13    H     0.35650   0.12030   0.17530   0.01267  Uiso   1.00
H14    H     0.61370   0.16180   0.17160   0.01267  Uiso   1.00
H15    H     0.76360   0.21380   0.14250   0.01267  Uiso   1.00
H16    H     0.37600   0.25400   0.07660   0.01267  Uiso   1.00
H17    H     0.11650   0.21420   0.08380   0.01267  Uiso   1.00
H18    H     0.97470   0.15760   0.10840   0.01267  Uiso   1.00
H19    H     0.72180   0.92790   0.28880   0.01267  Uiso   1.00
H20    H     0.72660   0.89000   0.34870   0.01267  Uiso   1.00
H21    H     0.86030   0.86910   0.41610   0.01267  Uiso   1.00
H22    H     0.28840   0.91960   0.44580   0.01267  Uiso   1.00
H23    H     0.27800   0.96170   0.38780   0.01267  Uiso   1.00
H24    H     0.14050   0.98190   0.32040   0.01267  Uiso   1.00
H25    H     0.35650   0.17530   0.37970   0.01267  Uiso   1.00
H26    H     0.61370   0.17160   0.33820   0.01267  Uiso   1.00
H27    H     0.76360   0.14250   0.28620   0.01267  Uiso   1.00
H28    H     0.37600   0.07660   0.24600   0.01267  Uiso   1.00
H29    H     0.11650   0.08380   0.28580   0.01267  Uiso   1.00
H30    H     0.97470   0.10840   0.34240   0.01267  Uiso   1.00
H31    H     0.72180   0.28880   0.57210   0.01267  Uiso   1.00
H32    H     0.72660   0.34870   0.61000   0.01267  Uiso   1.00
H33    H     0.86030   0.41610   0.63090   0.01267  Uiso   1.00
H34    H     0.28840   0.44580   0.58040   0.01267  Uiso   1.00
H35    H     0.27800   0.38780   0.53830   0.01267  Uiso   1.00
H36    H     0.14050   0.32040   0.51810   0.01267  Uiso   1.00
H37    H     0.35650   0.32470   0.12030   0.01267  Uiso   1.00
H38    H     0.61370   0.32840   0.16180   0.01267  Uiso   1.00
H39    H     0.76360   0.35750   0.21380   0.01267  Uiso   1.00
H40    H     0.37600   0.42340   0.25400   0.01267  Uiso   1.00
H41    H     0.11650   0.41620   0.21420   0.01267  Uiso   1.00
H42    H     0.97470   0.39160   0.15760   0.01267  Uiso   1.00
H43    H     0.72180   0.21120   0.92790   0.01267  Uiso   1.00
H44    H     0.72660   0.15130   0.89000   0.01267  Uiso   1.00
H45    H     0.86030   0.08390   0.86910   0.01267  Uiso   1.00
H46    H     0.28840   0.05420   0.91960   0.01267  Uiso   1.00
H47    H     0.27800   0.11220   0.96170   0.01267  Uiso   1.00
H48    H     0.14050   0.17960   0.98190   0.01267  Uiso   1.00
H49    H     0.64350   0.62030   0.67530   0.01267  Uiso   1.00
H50    H     0.38630   0.66180   0.67160   0.01267  Uiso   1.00
H51    H     0.23640   0.71380   0.64250   0.01267  Uiso   1.00
H52    H     0.62400   0.75400   0.57660   0.01267  Uiso   1.00
H53    H     0.88350   0.71420   0.58380   0.01267  Uiso   1.00
H54    H     0.02530   0.65760   0.60840   0.01267  Uiso   1.00
H55    H     0.27820   0.42790   0.78880   0.01267  Uiso   1.00
H56    H     0.27340   0.39000   0.84870   0.01267  Uiso   1.00
H57    H     0.13970   0.36910   0.91610   0.01267  Uiso   1.00
H58    H     0.71160   0.41960   0.94580   0.01267  Uiso   1.00
H59    H     0.72200   0.46170   0.88780   0.01267  Uiso   1.00
H60    H     0.85950   0.48190   0.82040   0.01267  Uiso   1.00
H61    H     0.64350   0.87970   0.82470   0.01267  Uiso   1.00
H62    H     0.38630   0.83820   0.82840   0.01267  Uiso   1.00
H63    H     0.23640   0.78620   0.85750   0.01267  Uiso   1.00
H64    H     0.62400   0.74600   0.92340   0.01267  Uiso   1.00
H65    H     0.88350   0.78580   0.91620   0.01267  Uiso   1.00
H66    H     0.02530   0.84240   0.89160   0.01267  Uiso   1.00
H67    H     0.27820   0.07210   0.71120   0.01267  Uiso   1.00
H68    H     0.27340   0.11000   0.65130   0.01267  Uiso   1.00
H69    H     0.13970   0.13090   0.58390   0.01267  Uiso   1.00
H70    H     0.71160   0.08040   0.55420   0.01267  Uiso   1.00
H71    H     0.72200   0.03830   0.61220   0.01267  Uiso   1.00
H72    H     0.85950   0.01810   0.67960   0.01267  Uiso   1.00
H73    H     0.64350   0.82470   0.62030   0.01267  Uiso   1.00
H74    H     0.38630   0.82840   0.66180   0.01267  Uiso   1.00
H75    H     0.23640   0.85750   0.71380   0.01267  Uiso   1.00
H76    H     0.62400   0.92340   0.75400   0.01267  Uiso   1.00
H77    H     0.88350   0.91620   0.71420   0.01267  Uiso   1.00
H78    H     0.02530   0.89160   0.65760   0.01267  Uiso   1.00
H79    H     0.27820   0.71120   0.42790   0.01267  Uiso   1.00
H80    H     0.27340   0.65130   0.39000   0.01267  Uiso   1.00
H81    H     0.13970   0.58390   0.36910   0.01267  Uiso   1.00
H82    H     0.71160   0.55420   0.41960   0.01267  Uiso   1.00
H83    H     0.72200   0.61220   0.46170   0.01267  Uiso   1.00
H84    H     0.85950   0.67960   0.48190   0.01267  Uiso   1.00
H85    H     0.64350   0.67530   0.87970   0.01267  Uiso   1.00
H86    H     0.38630   0.67160   0.83820   0.01267  Uiso   1.00
H87    H     0.23640   0.64250   0.78620   0.01267  Uiso   1.00
H88    H     0.62400   0.57660   0.74600   0.01267  Uiso   1.00
H89    H     0.88350   0.58380   0.78580   0.01267  Uiso   1.00
H90    H     0.02530   0.60840   0.84240   0.01267  Uiso   1.00
H91    H     0.27820   0.78880   0.07210   0.01267  Uiso   1.00
H92    H     0.27340   0.84870   0.11000   0.01267  Uiso   1.00
H93    H     0.13970   0.91610   0.13090   0.01267  Uiso   1.00
H94    H     0.71160   0.94580   0.08040   0.01267  Uiso   1.00
H95    H     0.72200   0.88780   0.03830   0.01267  Uiso   1.00
H96    H     0.85950   0.82040   0.01810   0.01267  Uiso   1.00
C1     C     0.06900   0.40510   0.34090   0.01267  Uiso   1.00
C2     C     0.15640   0.36730   0.35580   0.01267  Uiso   1.00
C3     C     0.31000   0.36100   0.34370   0.01267  Uiso   1.00
C4     C     0.40330   0.32690   0.35890   0.01267  Uiso   1.00
C5     C     0.56630   0.32040   0.34810   0.01267  Uiso   1.00
C6     C     0.65590   0.28970   0.36510   0.01267  Uiso   1.00
C7     C     0.58090   0.26220   0.39520   0.01267  Uiso   1.00
C8     C     0.42260   0.26540   0.40510   0.01267  Uiso   1.00
C9     C     0.32600   0.29860   0.38740   0.01267  Uiso   1.00
C10    C     0.16690   0.30490   0.39830   0.01267  Uiso   1.00
C11    C     0.08160   0.33850   0.38350   0.01267  Uiso   1.00
C12    C     0.68760   0.23240   0.41810   0.01267  Uiso   1.00
C13    C     0.92900   0.51410   0.24120   0.01267  Uiso   1.00
C14    C     0.93590   0.54020   0.20220   0.01267  Uiso   1.00
C15    C     0.80780   0.56910   0.19260   0.01267  Uiso   1.00
C16    C     0.81160   0.59180   0.15710   0.01267  Uiso   1.00
C17    C     0.93900   0.58890   0.12870   0.01267  Uiso   1.00
C18    C     0.94490   0.61280   0.09050   0.01267  Uiso   1.00
C19    C     0.07010   0.60940   0.06410   0.01267  Uiso   1.00
C20    C     0.20060   0.58180   0.07240   0.01267  Uiso   1.00
C21    C     0.19510   0.55740   0.10720   0.01267  Uiso   1.00
C22    C     0.06510   0.56040   0.13630   0.01267  Uiso   1.00
C23    C     0.05730   0.53700   0.17390   0.01267  Uiso   1.00
C24    C     0.07620   0.63810   0.02610   0.01267  Uiso   1.00
C25    C     0.06900   0.09490   0.15910   0.01267  Uiso   1.00
C26    C     0.15640   0.13270   0.14420   0.01267  Uiso   1.00
C27    C     0.31000   0.13900   0.15630   0.01267  Uiso   1.00
C28    C     0.40330   0.17310   0.14110   0.01267  Uiso   1.00
C29    C     0.56630   0.17960   0.15190   0.01267  Uiso   1.00
C30    C     0.65590   0.21030   0.13490   0.01267  Uiso   1.00
C31    C     0.58090   0.23780   0.10480   0.01267  Uiso   1.00
C32    C     0.42260   0.23460   0.09490   0.01267  Uiso   1.00
C33    C     0.32600   0.20140   0.11260   0.01267  Uiso   1.00
C34    C     0.16690   0.19510   0.10170   0.01267  Uiso   1.00
C35    C     0.08160   0.16150   0.11650   0.01267  Uiso   1.00
C36    C     0.68760   0.26760   0.08190   0.01267  Uiso   1.00
C37    C     0.92900   0.98590   0.25880   0.01267  Uiso   1.00
C38    C     0.93590   0.95980   0.29780   0.01267  Uiso   1.00
C39    C     0.80780   0.93090   0.30740   0.01267  Uiso   1.00
C40    C     0.81160   0.90820   0.34290   0.01267  Uiso   1.00
C41    C     0.93900   0.91110   0.37130   0.01267  Uiso   1.00
C42    C     0.94490   0.88720   0.40950   0.01267  Uiso   1.00
C43    C     0.07010   0.89060   0.43590   0.01267  Uiso   1.00
C44    C     0.20060   0.91820   0.42760   0.01267  Uiso   1.00
C45    C     0.19510   0.94260   0.39280   0.01267  Uiso   1.00
C46    C     0.06510   0.93960   0.36370   0.01267  Uiso   1.00
C47    C     0.05730   0.96300   0.32610   0.01267  Uiso   1.00
C48    C     0.07620   0.86190   0.47390   0.01267  Uiso   1.00
C49    C     0.06900   0.15910   0.40510   0.01267  Uiso   1.00
C50    C     0.15640   0.14420   0.36730   0.01267  Uiso   1.00
C51    C     0.31000   0.15630   0.36100   0.01267  Uiso   1.00
C52    C     0.40330   0.14110   0.32690   0.01267  Uiso   1.00
C53    C     0.56630   0.15190   0.32040   0.01267  Uiso   1.00
C54    C     0.65590   0.13490   0.28970   0.01267  Uiso   1.00
C55    C     0.58090   0.10480   0.26220   0.01267  Uiso   1.00
C56    C     0.42260   0.09490   0.26540   0.01267  Uiso   1.00
C57    C     0.32600   0.11260   0.29860   0.01267  Uiso   1.00
C58    C     0.16690   0.10170   0.30490   0.01267  Uiso   1.00
C59    C     0.08160   0.11650   0.33850   0.01267  Uiso   1.00
C60    C     0.68760   0.08190   0.23240   0.01267  Uiso   1.00
C61    C     0.92900   0.25880   0.51410   0.01267  Uiso   1.00
C62    C     0.93590   0.29780   0.54020   0.01267  Uiso   1.00
C63    C     0.80780   0.30740   0.56910   0.01267  Uiso   1.00
C64    C     0.81160   0.34290   0.59180   0.01267  Uiso   1.00
C65    C     0.93900   0.37130   0.58890   0.01267  Uiso   1.00
C66    C     0.94490   0.40950   0.61280   0.01267  Uiso   1.00
C67    C     0.07010   0.43590   0.60940   0.01267  Uiso   1.00
C68    C     0.20060   0.42760   0.58180   0.01267  Uiso   1.00
C69    C     0.19510   0.39280   0.55740   0.01267  Uiso   1.00
C70    C     0.06510   0.36370   0.56040   0.01267  Uiso   1.00
C71    C     0.05730   0.32610   0.53700   0.01267  Uiso   1.00
C72    C     0.07620   0.47390   0.63810   0.01267  Uiso   1.00
C73    C     0.06900   0.34090   0.09490   0.01267  Uiso   1.00
C74    C     0.15640   0.35580   0.13270   0.01267  Uiso   1.00
C75    C     0.31000   0.34370   0.13900   0.01267  Uiso   1.00
C76    C     0.40330   0.35890   0.17310   0.01267  Uiso   1.00
C77    C     0.56630   0.34810   0.17960   0.01267  Uiso   1.00
C78    C     0.65590   0.36510   0.21030   0.01267  Uiso   1.00
C79    C     0.58090   0.39520   0.23780   0.01267  Uiso   1.00
C80    C     0.42260   0.40510   0.23460   0.01267  Uiso   1.00
C81    C     0.32600   0.38740   0.20140   0.01267  Uiso   1.00
C82    C     0.16690   0.39830   0.19510   0.01267  Uiso   1.00
C83    C     0.08160   0.38350   0.16150   0.01267  Uiso   1.00
C84    C     0.68760   0.41810   0.26760   0.01267  Uiso   1.00
C85    C     0.92900   0.24120   0.98590   0.01267  Uiso   1.00
C86    C     0.93590   0.20220   0.95980   0.01267  Uiso   1.00
C87    C     0.80780   0.19260   0.93090   0.01267  Uiso   1.00
C88    C     0.81160   0.15710   0.90820   0.01267  Uiso   1.00
C89    C     0.93900   0.12870   0.91110   0.01267  Uiso   1.00
C90    C     0.94490   0.09050   0.88720   0.01267  Uiso   1.00
C91    C     0.07010   0.06410   0.89060   0.01267  Uiso   1.00
C92    C     0.20060   0.07240   0.91820   0.01267  Uiso   1.00
C93    C     0.19510   0.10720   0.94260   0.01267  Uiso   1.00
C94    C     0.06510   0.13630   0.93960   0.01267  Uiso   1.00
C95    C     0.05730   0.17390   0.96300   0.01267  Uiso   1.00
C96    C     0.07620   0.02610   0.86190   0.01267  Uiso   1.00
C97    C     0.93100   0.59490   0.65910   0.01267  Uiso   1.00
C98    C     0.84360   0.63270   0.64420   0.01267  Uiso   1.00
C99    C     0.69000   0.63900   0.65630   0.01267  Uiso   1.00
C100   C     0.59670   0.67310   0.64110   0.01267  Uiso   1.00
C101   C     0.43370   0.67960   0.65190   0.01267  Uiso   1.00
C102   C     0.34410   0.71030   0.63490   0.01267  Uiso   1.00
C103   C     0.41910   0.73780   0.60480   0.01267  Uiso   1.00
C104   C     0.57740   0.73460   0.59490   0.01267  Uiso   1.00
C105   C     0.67400   0.70140   0.61260   0.01267  Uiso   1.00
C106   C     0.83310   0.69510   0.60170   0.01267  Uiso   1.00
C107   C     0.91840   0.66150   0.61650   0.01267  Uiso   1.00
C108   C     0.31240   0.76760   0.58190   0.01267  Uiso   1.00
C109   C     0.07100   0.48590   0.75880   0.01267  Uiso   1.00
C110   C     0.06410   0.45980   0.79780   0.01267  Uiso   1.00
C111   C     0.19220   0.43090   0.80740   0.01267  Uiso   1.00
C112   C     0.18840   0.40820   0.84290   0.01267  Uiso   1.00
C113   C     0.06100   0.41110   0.87130   0.01267  Uiso   1.00
C114   C     0.05510   0.38720   0.90950   0.01267  Uiso   1.00
C115   C     0.92990   0.39060   0.93590   0.01267  Uiso   1.00
C116   C     0.79940   0.41820   0.92760   0.01267  Uiso   1.00
C117   C     0.80490   0.44260   0.89280   0.01267  Uiso   1.00
C118   C     0.93490   0.43960   0.86370   0.01267  Uiso   1.00
C119   C     0.94270   0.46300   0.82610   0.01267  Uiso   1.00
C120   C     0.92380   0.36190   0.97390   0.01267  Uiso   1.00
C121   C     0.93100   0.90510   0.84090   0.01267  Uiso   1.00
C122   C     0.84360   0.86730   0.85580   0.01267  Uiso   1.00
C123   C     0.69000   0.86100   0.84370   0.01267  Uiso   1.00
C124   C     0.59670   0.82690   0.85890   0.01267  Uiso   1.00
C125   C     0.43370   0.82040   0.84810   0.01267  Uiso   1.00
C126   C     0.34410   0.78970   0.86510   0.01267  Uiso   1.00
C127   C     0.41910   0.76220   0.89520   0.01267  Uiso   1.00
C128   C     0.57740   0.76540   0.90510   0.01267  Uiso   1.00
C129   C     0.67400   0.79860   0.88740   0.01267  Uiso   1.00
C130   C     0.83310   0.80490   0.89830   0.01267  Uiso   1.00
C131   C     0.91840   0.83850   0.88350   0.01267  Uiso   1.00
C132   C     0.31240   0.73240   0.91810   0.01267  Uiso   1.00
C133   C     0.07100   0.01410   0.74120   0.01267  Uiso   1.00
C134   C     0.06410   0.04020   0.70220   0.01267  Uiso   1.00
C135   C     0.19220   0.06910   0.69260   0.01267  Uiso   1.00
C136   C     0.18840   0.09180   0.65710   0.01267  Uiso   1.00
C137   C     0.06100   0.08890   0.62870   0.01267  Uiso   1.00
C138   C     0.05510   0.11280   0.59050   0.01267  Uiso   1.00
C139   C     0.92990   0.10940   0.56410   0.01267  Uiso   1.00
C140   C     0.79940   0.08180   0.57240   0.01267  Uiso   1.00
C141   C     0.80490   0.05740   0.60720   0.01267  Uiso   1.00
C142   C     0.93490   0.06040   0.63630   0.01267  Uiso   1.00
C143   C     0.94270   0.03700   0.67390   0.01267  Uiso   1.00
C144   C     0.92380   0.13810   0.52610   0.01267  Uiso   1.00
C145   C     0.93100   0.84090   0.59490   0.01267  Uiso   1.00
C146   C     0.84360   0.85580   0.63270   0.01267  Uiso   1.00
C147   C     0.69000   0.84370   0.63900   0.01267  Uiso   1.00
C148   C     0.59670   0.85890   0.67310   0.01267  Uiso   1.00
C149   C     0.43370   0.84810   0.67960   0.01267  Uiso   1.00
C150   C     0.34410   0.86510   0.71030   0.01267  Uiso   1.00
C151   C     0.41910   0.89520   0.73780   0.01267  Uiso   1.00
C152   C     0.57740   0.90510   0.73460   0.01267  Uiso   1.00
C153   C     0.67400   0.88740   0.70140   0.01267  Uiso   1.00
C154   C     0.83310   0.89830   0.69510   0.01267  Uiso   1.00
C155   C     0.91840   0.88350   0.66150   0.01267  Uiso   1.00
C156   C     0.31240   0.91810   0.76760   0.01267  Uiso   1.00
C157   C     0.07100   0.74120   0.48590   0.01267  Uiso   1.00
C158   C     0.06410   0.70220   0.45980   0.01267  Uiso   1.00
C159   C     0.19220   0.69260   0.43090   0.01267  Uiso   1.00
C160   C     0.18840   0.65710   0.40820   0.01267  Uiso   1.00
C161   C     0.06100   0.62870   0.41110   0.01267  Uiso   1.00
C162   C     0.05510   0.59050   0.38720   0.01267  Uiso   1.00
C163   C     0.92990   0.56410   0.39060   0.01267  Uiso   1.00
C164   C     0.79940   0.57240   0.41820   0.01267  Uiso   1.00
C165   C     0.80490   0.60720   0.44260   0.01267  Uiso   1.00
C166   C     0.93490   0.63630   0.43960   0.01267  Uiso   1.00
C167   C     0.94270   0.67390   0.46300   0.01267  Uiso   1.00
C168   C     0.92380   0.52610   0.36190   0.01267  Uiso   1.00
C169   C     0.93100   0.65910   0.90510   0.01267  Uiso   1.00
C170   C     0.84360   0.64420   0.86730   0.01267  Uiso   1.00
C171   C     0.69000   0.65630   0.86100   0.01267  Uiso   1.00
C172   C     0.59670   0.64110   0.82690   0.01267  Uiso   1.00
C173   C     0.43370   0.65190   0.82040   0.01267  Uiso   1.00
C174   C     0.34410   0.63490   0.78970   0.01267  Uiso   1.00
C175   C     0.41910   0.60480   0.76220   0.01267  Uiso   1.00
C176   C     0.57740   0.59490   0.76540   0.01267  Uiso   1.00
C177   C     0.67400   0.61260   0.79860   0.01267  Uiso   1.00
C178   C     0.83310   0.60170   0.80490   0.01267  Uiso   1.00
C179   C     0.91840   0.61650   0.83850   0.01267  Uiso   1.00
C180   C     0.31240   0.58190   0.73240   0.01267  Uiso   1.00
C181   C     0.07100   0.75880   0.01410   0.01267  Uiso   1.00
C182   C     0.06410   0.79780   0.04020   0.01267  Uiso   1.00
C183   C     0.19220   0.80740   0.06910   0.01267  Uiso   1.00
C184   C     0.18840   0.84290   0.09180   0.01267  Uiso   1.00
C185   C     0.06100   0.87130   0.08890   0.01267  Uiso   1.00
C186   C     0.05510   0.90950   0.11280   0.01267  Uiso   1.00
C187   C     0.92990   0.93590   0.10940   0.01267  Uiso   1.00
C188   C     0.79940   0.92760   0.08180   0.01267  Uiso   1.00
C189   C     0.80490   0.89280   0.05740   0.01267  Uiso   1.00
C190   C     0.93490   0.86370   0.06040   0.01267  Uiso   1.00
C191   C     0.94270   0.82610   0.03700   0.01267  Uiso   1.00
C192   C     0.92380   0.97390   0.13810   0.01267  Uiso   1.00
O1     O     0.92810   0.41210   0.35280   0.01267  Uiso   1.00
O2     O     0.13650   0.42950   0.31500   0.01267  Uiso   1.00
O3     O     0.63240   0.20260   0.44050   0.01267  Uiso   1.00
O4     O     0.83680   0.23910   0.41730   0.01267  Uiso   1.00
O5     O     0.04400   0.49030   0.24970   0.01267  Uiso   1.00
O6     O     0.80650   0.51530   0.26420   0.01267  Uiso   1.00
O7     O     0.20200   0.64100   0.00450   0.01267  Uiso   1.00
O8     O     0.95310   0.65920   0.01670   0.01267  Uiso   1.00
O9     O     0.92810   0.08790   0.14720   0.01267  Uiso   1.00
O10    O     0.13650   0.07050   0.18500   0.01267  Uiso   1.00
O11    O     0.63240   0.29740   0.05950   0.01267  Uiso   1.00
O12    O     0.83680   0.26090   0.08270   0.01267  Uiso   1.00
O13    O     0.04400   0.00970   0.25030   0.01267  Uiso   1.00
O14    O     0.80650   0.98470   0.23580   0.01267  Uiso   1.00
O15    O     0.20200   0.85900   0.49550   0.01267  Uiso   1.00
O16    O     0.95310   0.84080   0.48330   0.01267  Uiso   1.00
O17    O     0.92810   0.14720   0.41210   0.01267  Uiso   1.00
O18    O     0.13650   0.18500   0.42950   0.01267  Uiso   1.00
O19    O     0.63240   0.05950   0.20260   0.01267  Uiso   1.00
O20    O     0.83680   0.08270   0.23910   0.01267  Uiso   1.00
O21    O     0.04400   0.25030   0.49030   0.01267  Uiso   1.00
O22    O     0.80650   0.23580   0.51530   0.01267  Uiso   1.00
O23    O     0.20200   0.49550   0.64100   0.01267  Uiso   1.00
O24    O     0.95310   0.48330   0.65920   0.01267  Uiso   1.00
O25    O     0.92810   0.35280   0.08790   0.01267  Uiso   1.00
O26    O     0.13650   0.31500   0.07050   0.01267  Uiso   1.00
O27    O     0.63240   0.44050   0.29740   0.01267  Uiso   1.00
O28    O     0.83680   0.41730   0.26090   0.01267  Uiso   1.00
O29    O     0.04400   0.24970   0.00970   0.01267  Uiso   1.00
O30    O     0.80650   0.26420   0.98470   0.01267  Uiso   1.00
O31    O     0.20200   0.00450   0.85900   0.01267  Uiso   1.00
O32    O     0.95310   0.01670   0.84080   0.01267  Uiso   1.00
O33    O     0.07190   0.58790   0.64720   0.01267  Uiso   1.00
O34    O     0.86350   0.57050   0.68500   0.01267  Uiso   1.00
O35    O     0.36760   0.79740   0.55950   0.01267  Uiso   1.00
O36    O     0.16320   0.76090   0.58270   0.01267  Uiso   1.00
O37    O     0.95600   0.50970   0.75030   0.01267  Uiso   1.00
O38    O     0.19350   0.48470   0.73580   0.01267  Uiso   1.00
O39    O     0.79800   0.35900   0.99550   0.01267  Uiso   1.00
O40    O     0.04690   0.34080   0.98330   0.01267  Uiso   1.00
O41    O     0.07190   0.91210   0.85280   0.01267  Uiso   1.00
O42    O     0.86350   0.92950   0.81500   0.01267  Uiso   1.00
O43    O     0.36760   0.70260   0.94050   0.01267  Uiso   1.00
O44    O     0.16320   0.73910   0.91730   0.01267  Uiso   1.00
O45    O     0.95600   0.99030   0.74970   0.01267  Uiso   1.00
O46    O     0.19350   0.01530   0.76420   0.01267  Uiso   1.00
O47    O     0.79800   0.14100   0.50450   0.01267  Uiso   1.00
O48    O     0.04690   0.15920   0.51670   0.01267  Uiso   1.00
O49    O     0.07190   0.85280   0.58790   0.01267  Uiso   1.00
O50    O     0.86350   0.81500   0.57050   0.01267  Uiso   1.00
O51    O     0.36760   0.94050   0.79740   0.01267  Uiso   1.00
O52    O     0.16320   0.91730   0.76090   0.01267  Uiso   1.00
O53    O     0.95600   0.74970   0.50970   0.01267  Uiso   1.00
O54    O     0.19350   0.76420   0.48470   0.01267  Uiso   1.00
O55    O     0.79800   0.50450   0.35900   0.01267  Uiso   1.00
O56    O     0.04690   0.51670   0.34080   0.01267  Uiso   1.00
O57    O     0.07190   0.64720   0.91210   0.01267  Uiso   1.00
O58    O     0.86350   0.68500   0.92950   0.01267  Uiso   1.00
O59    O     0.36760   0.55950   0.70260   0.01267  Uiso   1.00
O60    O     0.16320   0.58270   0.73910   0.01267  Uiso   1.00
O61    O     0.95600   0.75030   0.99030   0.01267  Uiso   1.00
O62    O     0.19350   0.73580   0.01530   0.01267  Uiso   1.00
O63    O     0.79800   0.99550   0.14100   0.01267  Uiso   1.00
O64    O     0.04690   0.98330   0.15920   0.01267  Uiso   1.00
H97    H     0.46420   0.47590   0.31720   0.01267  Uiso   1.00
H98    H     0.29370   0.48640   0.32060   0.01267  Uiso   1.00
H99    H     0.51480   0.51740   0.37540   0.01267  Uiso   1.00
H100   H     0.32710   0.52090   0.38030   0.01267  Uiso   1.00
H101   H     0.48420   0.44250   0.38290   0.01267  Uiso   1.00
H102   H     0.44660   0.46820   0.42390   0.01267  Uiso   1.00
H103   H     0.30480   0.45110   0.39600   0.01267  Uiso   1.00
H104   H     0.34180   0.55560   0.30830   0.01267  Uiso   1.00
H105   H     0.52800   0.54590   0.30760   0.01267  Uiso   1.00
H106   H     0.39120   0.54950   0.23830   0.01267  Uiso   1.00
H107   H     0.51160   0.51190   0.24480   0.01267  Uiso   1.00
H108   H     0.32520   0.50450   0.24930   0.01267  Uiso   1.00
C193   C     0.41360   0.50280   0.37040   0.01267  Uiso   1.00
C194   C     0.41200   0.46250   0.39560   0.01267  Uiso   1.00
C195   C     0.42220   0.53450   0.30110   0.01267  Uiso   1.00
C196   C     0.41160   0.52410   0.25400   0.01267  Uiso   1.00
N1     N     0.39430   0.49590   0.32560   0.01267  Uiso   1.00
H109   H     0.46420   0.02410   0.18280   0.01267  Uiso   1.00
H110   H     0.29370   0.01360   0.17940   0.01267  Uiso   1.00
H111   H     0.51480   0.98260   0.12460   0.01267  Uiso   1.00
H112   H     0.32710   0.97910   0.11970   0.01267  Uiso   1.00
H113   H     0.48420   0.05750   0.11710   0.01267  Uiso   1.00
H114   H     0.44660   0.03180   0.07610   0.01267  Uiso   1.00
H115   H     0.30480   0.04890   0.10400   0.01267  Uiso   1.00
H116   H     0.34180   0.94440   0.19170   0.01267  Uiso   1.00
H117   H     0.52800   0.95410   0.19240   0.01267  Uiso   1.00
H118   H     0.39120   0.95050   0.26170   0.01267  Uiso   1.00
H119   H     0.51160   0.98810   0.25520   0.01267  Uiso   1.00
H120   H     0.32520   0.99550   0.25070   0.01267  Uiso   1.00
C197   C     0.41360   0.99720   0.12960   0.01267  Uiso   1.00
C198   C     0.41200   0.03750   0.10440   0.01267  Uiso   1.00
C199   C     0.42220   0.96550   0.19890   0.01267  Uiso   1.00
C200   C     0.41160   0.97590   0.24600   0.01267  Uiso   1.00
N2     N     0.39430   0.00410   0.17440   0.01267  Uiso   1.00
H121   H     0.46420   0.18280   0.47590   0.01267  Uiso   1.00
H122   H     0.29370   0.17940   0.48640   0.01267  Uiso   1.00
H123   H     0.51480   0.12460   0.51740   0.01267  Uiso   1.00
H124   H     0.32710   0.11970   0.52090   0.01267  Uiso   1.00
H125   H     0.48420   0.11710   0.44250   0.01267  Uiso   1.00
H126   H     0.44660   0.07610   0.46820   0.01267  Uiso   1.00
H127   H     0.30480   0.10400   0.45110   0.01267  Uiso   1.00
H128   H     0.34180   0.19170   0.55560   0.01267  Uiso   1.00
H129   H     0.52800   0.19240   0.54590   0.01267  Uiso   1.00
H130   H     0.39120   0.26170   0.54950   0.01267  Uiso   1.00
H131   H     0.51160   0.25520   0.51190   0.01267  Uiso   1.00
H132   H     0.32520   0.25070   0.50450   0.01267  Uiso   1.00
C201   C     0.41360   0.12960   0.50280   0.01267  Uiso   1.00
C202   C     0.41200   0.10440   0.46250   0.01267  Uiso   1.00
C203   C     0.42220   0.19890   0.53450   0.01267  Uiso   1.00
C204   C     0.41160   0.24600   0.52410   0.01267  Uiso   1.00
N3     N     0.39430   0.17440   0.49590   0.01267  Uiso   1.00
H133   H     0.46420   0.31720   0.02410   0.01267  Uiso   1.00
H134   H     0.29370   0.32060   0.01360   0.01267  Uiso   1.00
H135   H     0.51480   0.37540   0.98260   0.01267  Uiso   1.00
H136   H     0.32710   0.38030   0.97910   0.01267  Uiso   1.00
H137   H     0.48420   0.38290   0.05750   0.01267  Uiso   1.00
H138   H     0.44660   0.42390   0.03180   0.01267  Uiso   1.00
H139   H     0.30480   0.39600   0.04890   0.01267  Uiso   1.00
H140   H     0.34180   0.30830   0.94440   0.01267  Uiso   1.00
H141   H     0.52800   0.30760   0.95410   0.01267  Uiso   1.00
H142   H     0.39120   0.23830   0.95050   0.01267  Uiso   1.00
H143   H     0.51160   0.24480   0.98810   0.01267  Uiso   1.00
H144   H     0.32520   0.24930   0.99550   0.01267  Uiso   1.00
C205   C     0.41360   0.37040   0.99720   0.01267  Uiso   1.00
C206   C     0.41200   0.39560   0.03750   0.01267  Uiso   1.00
C207   C     0.42220   0.30110   0.96550   0.01267  Uiso   1.00
C208   C     0.41160   0.25400   0.97590   0.01267  Uiso   1.00
N4     N     0.39430   0.32560   0.00410   0.01267  Uiso   1.00
H145   H     0.53580   0.52410   0.68280   0.01267  Uiso   1.00
H146   H     0.70630   0.51360   0.67940   0.01267  Uiso   1.00
H147   H     0.48520   0.48260   0.62460   0.01267  Uiso   1.00
H148   H     0.67290   0.47910   0.61970   0.01267  Uiso   1.00
H149   H     0.51580   0.55750   0.61710   0.01267  Uiso   1.00
H150   H     0.55340   0.53180   0.57610   0.01267  Uiso   1.00
H151   H     0.69520   0.54890   0.60400   0.01267  Uiso   1.00
H152   H     0.65820   0.44440   0.69170   0.01267  Uiso   1.00
H153   H     0.47200   0.45410   0.69240   0.01267  Uiso   1.00
H154   H     0.60880   0.45050   0.76170   0.01267  Uiso   1.00
H155   H     0.48840   0.48810   0.75520   0.01267  Uiso   1.00
H156   H     0.67480   0.49550   0.75070   0.01267  Uiso   1.00
C209   C     0.58640   0.49720   0.62960   0.01267  Uiso   1.00
C210   C     0.58800   0.53750   0.60440   0.01267  Uiso   1.00
C211   C     0.57780   0.46550   0.69890   0.01267  Uiso   1.00
C212   C     0.58840   0.47590   0.74600   0.01267  Uiso   1.00
N5     N     0.60570   0.50410   0.67440   0.01267  Uiso   1.00
H157   H     0.53580   0.97590   0.81720   0.01267  Uiso   1.00
H158   H     0.70630   0.98640   0.82060   0.01267  Uiso   1.00
H159   H     0.48520   0.01740   0.87540   0.01267  Uiso   1.00
H160   H     0.67290   0.02090   0.88030   0.01267  Uiso   1.00
H161   H     0.51580   0.94250   0.88290   0.01267  Uiso   1.00
H162   H     0.55340   0.96820   0.92390   0.01267  Uiso   1.00
H163   H     0.69520   0.95110   0.89600   0.01267  Uiso   1.00
H164   H     0.65820   0.05560   0.80830   0.01267  Uiso   1.00
H165   H     0.47200   0.04590   0.80760   0.01267  Uiso   1.00
H166   H     0.60880   0.04950   0.73830   0.01267  Uiso   1.00
H167   H     0.48840   0.01190   0.74480   0.01267  Uiso   1.00
H168   H     0.67480   0.00450   0.74930   0.01267  Uiso   1.00
C213   C     0.58640   0.00280   0.87040   0.01267  Uiso   1.00
C214   C     0.58800   0.96250   0.89560   0.01267  Uiso   1.00
C215   C     0.57780   0.03450   0.80110   0.01267  Uiso   1.00
C216   C     0.58840   0.02410   0.75400   0.01267  Uiso   1.00
N6     N     0.60570   0.99590   0.82560   0.01267  Uiso   1.00
H169   H     0.53580   0.81720   0.52410   0.01267  Uiso   1.00
H170   H     0.70630   0.82060   0.51360   0.01267  Uiso   1.00
H171   H     0.48520   0.87540   0.48260   0.01267  Uiso   1.00
H172   H     0.67290   0.88030   0.47910   0.01267  Uiso   1.00
H173   H     0.51580   0.88290   0.55750   0.01267  Uiso   1.00
H174   H     0.55340   0.92390   0.53180   0.01267  Uiso   1.00
H175   H     0.69520   0.89600   0.54890   0.01267  Uiso   1.00
H176   H     0.65820   0.80830   0.44440   0.01267  Uiso   1.00
H177   H     0.47200   0.80760   0.45410   0.01267  Uiso   1.00
H178   H     0.60880   0.73830   0.45050   0.01267  Uiso   1.00
H179   H     0.48840   0.74480   0.48810   0.01267  Uiso   1.00
H180   H     0.67480   0.74930   0.49550   0.01267  Uiso   1.00
C217   C     0.58640   0.87040   0.49720   0.01267  Uiso   1.00
C218   C     0.58800   0.89560   0.53750   0.01267  Uiso   1.00
C219   C     0.57780   0.80110   0.46550   0.01267  Uiso   1.00
C220   C     0.58840   0.75400   0.47590   0.01267  Uiso   1.00
N7     N     0.60570   0.82560   0.50410   0.01267  Uiso   1.00
H181   H     0.53580   0.68280   0.97590   0.01267  Uiso   1.00
H182   H     0.70630   0.67940   0.98640   0.01267  Uiso   1.00
H183   H     0.48520   0.62460   0.01740   0.01267  Uiso   1.00
H184   H     0.67290   0.61970   0.02090   0.01267  Uiso   1.00
H185   H     0.51580   0.61710   0.94250   0.01267  Uiso   1.00
H186   H     0.55340   0.57610   0.96820   0.01267  Uiso   1.00
H187   H     0.69520   0.60400   0.95110   0.01267  Uiso   1.00
H188   H     0.65820   0.69170   0.05560   0.01267  Uiso   1.00
H189   H     0.47200   0.69240   0.04590   0.01267  Uiso   1.00
H190   H     0.60880   0.76170   0.04950   0.01267  Uiso   1.00
H191   H     0.48840   0.75520   0.01190   0.01267  Uiso   1.00
H192   H     0.67480   0.75070   0.00450   0.01267  Uiso   1.00
C221   C     0.58640   0.62960   0.00280   0.01267  Uiso   1.00
C222   C     0.58800   0.60440   0.96250   0.01267  Uiso   1.00
C223   C     0.57780   0.69890   0.03450   0.01267  Uiso   1.00
C224   C     0.58840   0.74600   0.02410   0.01267  Uiso   1.00
N8     N     0.60570   0.67440   0.99590   0.01267  Uiso   1.00
