data_image0
_cell_length_a       26.3215
_cell_length_b       26.3215
_cell_length_c       26.3215
_cell_angle_alpha    109.471
_cell_angle_beta     109.471
_cell_angle_gamma    109.471

_symmetry_space_group_name_H-M    P 1
_symmetry_int_tables_number       1

loop_
  _symmetry_equiv_pos_as_xyz
  'x, y, z'

loop_
  _atom_site_label
  _atom_site_occupancy
  _atom_site_fract_x
  _atom_site_fract_y
  _atom_site_fract_z
  _atom_site_thermal_displace_type
  _atom_site_B_iso_or_equiv
  _atom_site_type_symbol
  Cu1      1.0000 0.26143  0.32248  0.19943  Biso   1.000  Cu
  Cu2      1.0000 0.62305  0.06200  0.30057  Biso   1.000  Cu
  Cu3      1.0000 0.87695  0.17752  0.43895  Biso   1.000  Cu
  Cu4      1.0000 0.23857  0.43800  0.06105  Biso   1.000  Cu
  Cu5      1.0000 0.93895  0.87695  0.67752  Biso   1.000  Cu
  Cu6      1.0000 0.56105  0.23857  0.93800  Biso   1.000  Cu
  Cu7      1.0000 0.69943  0.26143  0.82248  Biso   1.000  Cu
  Cu8      1.0000 0.80057  0.62305  0.56200  Biso   1.000  Cu
  Cu9      1.0000 0.06200  0.80057  0.12305  Biso   1.000  Cu
  Cu10     1.0000 0.32248  0.69943  0.76143  Biso   1.000  Cu
  Cu11     1.0000 0.43800  0.56105  0.73857  Biso   1.000  Cu
  Cu12     1.0000 0.17752  0.93895  0.37695  Biso   1.000  Cu
  Cu13     1.0000 0.56200  0.12305  0.80057  Biso   1.000  Cu
  Cu14     1.0000 0.82248  0.76143  0.69943  Biso   1.000  Cu
  Cu15     1.0000 0.93800  0.73857  0.56105  Biso   1.000  Cu
  Cu16     1.0000 0.67752  0.37695  0.93895  Biso   1.000  Cu
  Cu17     1.0000 0.76143  0.19943  0.32248  Biso   1.000  Cu
  Cu18     1.0000 0.12305  0.30057  0.06200  Biso   1.000  Cu
  Cu19     1.0000 0.37695  0.43895  0.17752  Biso   1.000  Cu
  Cu20     1.0000 0.73857  0.06105  0.43800  Biso   1.000  Cu
  Cu21     1.0000 0.43895  0.67752  0.87695  Biso   1.000  Cu
  Cu22     1.0000 0.06105  0.93800  0.23857  Biso   1.000  Cu
  Cu23     1.0000 0.19943  0.82248  0.26143  Biso   1.000  Cu
  Cu24     1.0000 0.30057  0.56200  0.62305  Biso   1.000  Cu
  Cu25     1.0000 0.25000  0.28739  0.03739  Biso   1.000  Cu
  Cu26     1.0000 0.75000  0.21261  0.46261  Biso   1.000  Cu
  Cu27     1.0000 0.96261  0.75000  0.71261  Biso   1.000  Cu
  Cu28     1.0000 0.53739  0.25000  0.78739  Biso   1.000  Cu
  Cu29     1.0000 0.21261  0.96261  0.25000  Biso   1.000  Cu
  Cu30     1.0000 0.28739  0.53739  0.75000  Biso   1.000  Cu
  Cu31     1.0000 0.71261  0.25000  0.96261  Biso   1.000  Cu
  Cu32     1.0000 0.78739  0.75000  0.53739  Biso   1.000  Cu
  Cu33     1.0000 0.75000  0.03739  0.28739  Biso   1.000  Cu
  Cu34     1.0000 0.25000  0.46261  0.21261  Biso   1.000  Cu
  Cu35     1.0000 0.46261  0.71261  0.75000  Biso   1.000  Cu
  Cu36     1.0000 0.03739  0.78739  0.25000  Biso   1.000  Cu
  H1       1.0000 0.39800  0.42030  0.32410  Biso   1.000  H
  H2       1.0000 0.24950  0.31580  0.31530  Biso   1.000  H
  H3       1.0000 0.32460  0.38500  0.42400  Biso   1.000  H
  H4       1.0000 0.49190  0.46280  0.40230  Biso   1.000  H
  H5       1.0000 0.29270  0.36040  0.96990  Biso   1.000  H
  H6       1.0000 0.31940  0.22920  0.99040  Biso   1.000  H
  H7       1.0000 0.35160  0.24530  0.91650  Biso   1.000  H
  H8       1.0000 0.31770  0.39930  0.91760  Biso   1.000  H
  H9       1.0000 0.59620  0.07390  0.17590  Biso   1.000  H
  H10      1.0000 0.50050  0.93420  0.18470  Biso   1.000  H
  H11      1.0000 0.46100  0.90060  0.07600  Biso   1.000  H
  H12      1.0000 0.56050  0.08960  0.09770  Biso   1.000  H
  H13      1.0000 0.89050  0.32280  0.53010  Biso   1.000  H
  H14      1.0000 0.73880  0.32900  0.50960  Biso   1.000  H
  H15      1.0000 0.82880  0.43510  0.58350  Biso   1.000  H
  H16      1.0000 0.98170  0.40010  0.58240  Biso   1.000  H
  H17      1.0000 0.90380  0.07970  0.47770  Biso   1.000  H
  H18      1.0000 0.99950  0.18420  0.43370  Biso   1.000  H
  H19      1.0000 0.03900  0.11500  0.43960  Biso   1.000  H
  H20      1.0000 0.93950  0.03720  0.52910  Biso   1.000  H
  H21      1.0000 0.60950  0.13960  0.43230  Biso   1.000  H
  H22      1.0000 0.76120  0.27080  0.59020  Biso   1.000  H
  H23      1.0000 0.67120  0.25470  0.60630  Biso   1.000  H
  H24      1.0000 0.51830  0.10070  0.41840  Biso   1.000  H
  H25      1.0000 0.10200  0.42610  0.02230  Biso   1.000  H
  H26      1.0000 0.25050  0.56580  0.06630  Biso   1.000  H
  H27      1.0000 0.17540  0.59940  0.06040  Biso   1.000  H
  H28      1.0000 0.00810  0.41040  0.97090  Biso   1.000  H
  H29      1.0000 0.20730  0.17720  0.06770  Biso   1.000  H
  H30      1.0000 0.18060  0.17100  0.90980  Biso   1.000  H
  H31      1.0000 0.14840  0.06490  0.89370  Biso   1.000  H
  H32      1.0000 0.18230  0.09990  0.08160  Biso   1.000  H
  H33      1.0000 0.97770  0.90380  0.57970  Biso   1.000  H
  H34      1.0000 0.93370  0.99950  0.68420  Biso   1.000  H
  H35      1.0000 0.93960  0.03900  0.61500  Biso   1.000  H
  H36      1.0000 0.02910  0.93950  0.53720  Biso   1.000  H
  H37      1.0000 0.93230  0.60950  0.63960  Biso   1.000  H
  H38      1.0000 0.09020  0.76120  0.77080  Biso   1.000  H
  H39      1.0000 0.10630  0.67120  0.75470  Biso   1.000  H
  H40      1.0000 0.91840  0.51830  0.60070  Biso   1.000  H
  H41      1.0000 0.52230  0.10200  0.92610  Biso   1.000  H
  H42      1.0000 0.56630  0.25050  0.06580  Biso   1.000  H
  H43      1.0000 0.56040  0.17540  0.09940  Biso   1.000  H
  H44      1.0000 0.47090  0.00810  0.91040  Biso   1.000  H
  H45      1.0000 0.56770  0.20730  0.67720  Biso   1.000  H
  H46      1.0000 0.40980  0.18060  0.67100  Biso   1.000  H
  H47      1.0000 0.39370  0.14840  0.56490  Biso   1.000  H
  H48      1.0000 0.58160  0.18230  0.59990  Biso   1.000  H
  H49      1.0000 0.82410  0.39800  0.92030  Biso   1.000  H
  H50      1.0000 0.81530  0.24950  0.81580  Biso   1.000  H
  H51      1.0000 0.92400  0.32460  0.88500  Biso   1.000  H
  H52      1.0000 0.90230  0.49190  0.96280  Biso   1.000  H
  H53      1.0000 0.46990  0.29270  0.86040  Biso   1.000  H
  H54      1.0000 0.49040  0.31940  0.72920  Biso   1.000  H
  H55      1.0000 0.41650  0.35160  0.74530  Biso   1.000  H
  H56      1.0000 0.41760  0.31770  0.89930  Biso   1.000  H
  H57      1.0000 0.67590  0.59620  0.57390  Biso   1.000  H
  H58      1.0000 0.68470  0.50050  0.43420  Biso   1.000  H
  H59      1.0000 0.57600  0.46100  0.40060  Biso   1.000  H
  H60      1.0000 0.59770  0.56050  0.58960  Biso   1.000  H
  H61      1.0000 0.03010  0.89050  0.82280  Biso   1.000  H
  H62      1.0000 0.00960  0.73880  0.82900  Biso   1.000  H
  H63      1.0000 0.08350  0.82880  0.93510  Biso   1.000  H
  H64      1.0000 0.08240  0.98170  0.90010  Biso   1.000  H
  H65      1.0000 0.07390  0.67590  0.09620  Biso   1.000  H
  H66      1.0000 0.93420  0.68470  0.00050  Biso   1.000  H
  H67      1.0000 0.90060  0.57600  0.96100  Biso   1.000  H
  H68      1.0000 0.08960  0.59770  0.06050  Biso   1.000  H
  H69      1.0000 0.32280  0.03010  0.39050  Biso   1.000  H
  H70      1.0000 0.32900  0.00960  0.23880  Biso   1.000  H
  H71      1.0000 0.43510  0.08350  0.32880  Biso   1.000  H
  H72      1.0000 0.40010  0.08240  0.48170  Biso   1.000  H
  H73      1.0000 0.42030  0.82410  0.89800  Biso   1.000  H
  H74      1.0000 0.31580  0.81530  0.74950  Biso   1.000  H
  H75      1.0000 0.38500  0.92400  0.82460  Biso   1.000  H
  H76      1.0000 0.46280  0.90230  0.99190  Biso   1.000  H
  H77      1.0000 0.36040  0.46990  0.79270  Biso   1.000  H
  H78      1.0000 0.22920  0.49040  0.81940  Biso   1.000  H
  H79      1.0000 0.24530  0.41650  0.85160  Biso   1.000  H
  H80      1.0000 0.39930  0.41760  0.81770  Biso   1.000  H
  H81      1.0000 0.42610  0.52230  0.60200  Biso   1.000  H
  H82      1.0000 0.56580  0.56630  0.75050  Biso   1.000  H
  H83      1.0000 0.59940  0.56040  0.67540  Biso   1.000  H
  H84      1.0000 0.41040  0.47090  0.50810  Biso   1.000  H
  H85      1.0000 0.17720  0.56770  0.70730  Biso   1.000  H
  H86      1.0000 0.17100  0.40980  0.68060  Biso   1.000  H
  H87      1.0000 0.06490  0.39370  0.64840  Biso   1.000  H
  H88      1.0000 0.09990  0.58160  0.68230  Biso   1.000  H
  H89      1.0000 0.07970  0.97770  0.40380  Biso   1.000  H
  H90      1.0000 0.18420  0.93370  0.49950  Biso   1.000  H
  H91      1.0000 0.11500  0.93960  0.53900  Biso   1.000  H
  H92      1.0000 0.03720  0.02910  0.43950  Biso   1.000  H
  H93      1.0000 0.13960  0.93230  0.10950  Biso   1.000  H
  H94      1.0000 0.27080  0.09020  0.26120  Biso   1.000  H
  H95      1.0000 0.25470  0.10630  0.17120  Biso   1.000  H
  H96      1.0000 0.10070  0.91840  0.01830  Biso   1.000  H
  H97      1.0000 0.57390  0.09620  0.67590  Biso   1.000  H
  H98      1.0000 0.43420  0.00050  0.68470  Biso   1.000  H
  H99      1.0000 0.40060  0.96100  0.57600  Biso   1.000  H
  H100     1.0000 0.58960  0.06050  0.59770  Biso   1.000  H
  H101     1.0000 0.82280  0.39050  0.03010  Biso   1.000  H
  H102     1.0000 0.82900  0.23880  0.00960  Biso   1.000  H
  H103     1.0000 0.93510  0.32880  0.08350  Biso   1.000  H
  H104     1.0000 0.90010  0.48170  0.08240  Biso   1.000  H
  H105     1.0000 0.92030  0.89800  0.82410  Biso   1.000  H
  H106     1.0000 0.81580  0.74950  0.81530  Biso   1.000  H
  H107     1.0000 0.88500  0.82460  0.92400  Biso   1.000  H
  H108     1.0000 0.96280  0.99190  0.90230  Biso   1.000  H
  H109     1.0000 0.86040  0.79270  0.46990  Biso   1.000  H
  H110     1.0000 0.72920  0.81940  0.49040  Biso   1.000  H
  H111     1.0000 0.74530  0.85160  0.41650  Biso   1.000  H
  H112     1.0000 0.89930  0.81770  0.41760  Biso   1.000  H
  H113     1.0000 0.92610  0.60200  0.52230  Biso   1.000  H
  H114     1.0000 0.06580  0.75050  0.56630  Biso   1.000  H
  H115     1.0000 0.09940  0.67540  0.56040  Biso   1.000  H
  H116     1.0000 0.91040  0.50810  0.47090  Biso   1.000  H
  H117     1.0000 0.67720  0.70730  0.56770  Biso   1.000  H
  H118     1.0000 0.67100  0.68060  0.40980  Biso   1.000  H
  H119     1.0000 0.56490  0.64840  0.39370  Biso   1.000  H
  H120     1.0000 0.59990  0.68230  0.58160  Biso   1.000  H
  H121     1.0000 0.57970  0.40380  0.97770  Biso   1.000  H
  H122     1.0000 0.68420  0.49950  0.93370  Biso   1.000  H
  H123     1.0000 0.61500  0.53900  0.93960  Biso   1.000  H
  H124     1.0000 0.53720  0.43950  0.02910  Biso   1.000  H
  H125     1.0000 0.63960  0.10950  0.93230  Biso   1.000  H
  H126     1.0000 0.77080  0.26120  0.09020  Biso   1.000  H
  H127     1.0000 0.75470  0.17120  0.10630  Biso   1.000  H
  H128     1.0000 0.60070  0.01830  0.91840  Biso   1.000  H
  H129     1.0000 0.89800  0.32410  0.42030  Biso   1.000  H
  H130     1.0000 0.74950  0.31530  0.31580  Biso   1.000  H
  H131     1.0000 0.82460  0.42400  0.38500  Biso   1.000  H
  H132     1.0000 0.99190  0.40230  0.46280  Biso   1.000  H
  H133     1.0000 0.79270  0.96990  0.36040  Biso   1.000  H
  H134     1.0000 0.81940  0.99040  0.22920  Biso   1.000  H
  H135     1.0000 0.85160  0.91650  0.24530  Biso   1.000  H
  H136     1.0000 0.81770  0.91760  0.39930  Biso   1.000  H
  H137     1.0000 0.09620  0.17590  0.07390  Biso   1.000  H
  H138     1.0000 0.00050  0.18470  0.93420  Biso   1.000  H
  H139     1.0000 0.96100  0.07600  0.90060  Biso   1.000  H
  H140     1.0000 0.06050  0.09770  0.08960  Biso   1.000  H
  H141     1.0000 0.39050  0.53010  0.32280  Biso   1.000  H
  H142     1.0000 0.23880  0.50960  0.32900  Biso   1.000  H
  H143     1.0000 0.32880  0.58350  0.43510  Biso   1.000  H
  H144     1.0000 0.48170  0.58240  0.40010  Biso   1.000  H
  H145     1.0000 0.40380  0.47770  0.07970  Biso   1.000  H
  H146     1.0000 0.49950  0.43370  0.18420  Biso   1.000  H
  H147     1.0000 0.53900  0.43960  0.11500  Biso   1.000  H
  H148     1.0000 0.43950  0.52910  0.03720  Biso   1.000  H
  H149     1.0000 0.10950  0.43230  0.13960  Biso   1.000  H
  H150     1.0000 0.26120  0.59020  0.27080  Biso   1.000  H
  H151     1.0000 0.17120  0.60630  0.25470  Biso   1.000  H
  H152     1.0000 0.01830  0.41840  0.10070  Biso   1.000  H
  H153     1.0000 0.60200  0.02230  0.42610  Biso   1.000  H
  H154     1.0000 0.75050  0.06630  0.56580  Biso   1.000  H
  H155     1.0000 0.67540  0.06040  0.59940  Biso   1.000  H
  H156     1.0000 0.50810  0.97090  0.41040  Biso   1.000  H
  H157     1.0000 0.70730  0.06770  0.17720  Biso   1.000  H
  H158     1.0000 0.68060  0.90980  0.17100  Biso   1.000  H
  H159     1.0000 0.64840  0.89370  0.06490  Biso   1.000  H
  H160     1.0000 0.68230  0.08160  0.09990  Biso   1.000  H
  H161     1.0000 0.47770  0.57970  0.90380  Biso   1.000  H
  H162     1.0000 0.43370  0.68420  0.99950  Biso   1.000  H
  H163     1.0000 0.43960  0.61500  0.03900  Biso   1.000  H
  H164     1.0000 0.52910  0.53720  0.93950  Biso   1.000  H
  H165     1.0000 0.43230  0.63960  0.60950  Biso   1.000  H
  H166     1.0000 0.59020  0.77080  0.76120  Biso   1.000  H
  H167     1.0000 0.60630  0.75470  0.67120  Biso   1.000  H
  H168     1.0000 0.41840  0.60070  0.51830  Biso   1.000  H
  H169     1.0000 0.02230  0.92610  0.10200  Biso   1.000  H
  H170     1.0000 0.06630  0.06580  0.25050  Biso   1.000  H
  H171     1.0000 0.06040  0.09940  0.17540  Biso   1.000  H
  H172     1.0000 0.97090  0.91040  0.00810  Biso   1.000  H
  H173     1.0000 0.06770  0.67720  0.20730  Biso   1.000  H
  H174     1.0000 0.90980  0.67100  0.18060  Biso   1.000  H
  H175     1.0000 0.89370  0.56490  0.14840  Biso   1.000  H
  H176     1.0000 0.08160  0.59990  0.18230  Biso   1.000  H
  H177     1.0000 0.32410  0.92030  0.39800  Biso   1.000  H
  H178     1.0000 0.31530  0.81580  0.24950  Biso   1.000  H
  H179     1.0000 0.42400  0.88500  0.32460  Biso   1.000  H
  H180     1.0000 0.40230  0.96280  0.49190  Biso   1.000  H
  H181     1.0000 0.96990  0.86040  0.29270  Biso   1.000  H
  H182     1.0000 0.99040  0.72920  0.31940  Biso   1.000  H
  H183     1.0000 0.91650  0.74530  0.35160  Biso   1.000  H
  H184     1.0000 0.91760  0.89930  0.31770  Biso   1.000  H
  H185     1.0000 0.17590  0.57390  0.59620  Biso   1.000  H
  H186     1.0000 0.18470  0.43420  0.50050  Biso   1.000  H
  H187     1.0000 0.07600  0.40060  0.46100  Biso   1.000  H
  H188     1.0000 0.09770  0.58960  0.56050  Biso   1.000  H
  H189     1.0000 0.53010  0.82280  0.89050  Biso   1.000  H
  H190     1.0000 0.50960  0.82900  0.73880  Biso   1.000  H
  H191     1.0000 0.58350  0.93510  0.82880  Biso   1.000  H
  H192     1.0000 0.58240  0.90010  0.98170  Biso   1.000  H
  W1       1.0000 0.25000  0.37500  0.12500  Biso   1.000  W
  W2       1.0000 0.75000  0.12500  0.37500  Biso   1.000  W
  W3       1.0000 0.87500  0.75000  0.62500  Biso   1.000  W
  W4       1.0000 0.62500  0.25000  0.87500  Biso   1.000  W
  W5       1.0000 0.12500  0.87500  0.25000  Biso   1.000  W
  W6       1.0000 0.37500  0.62500  0.75000  Biso   1.000  W
  C1       1.0000 0.36930  0.40410  0.33560  Biso   1.000  C
  C2       1.0000 0.28880  0.34810  0.33090  Biso   1.000  C
  C3       1.0000 0.32990  0.38350  0.39040  Biso   1.000  C
  C4       1.0000 0.44220  0.46350  0.44690  Biso   1.000  C
  C5       1.0000 0.49510  0.47820  0.44130  Biso   1.000  C
  C6       1.0000 0.30130  0.32810  0.96340  Biso   1.000  C
  C7       1.0000 0.31550  0.25530  0.97460  Biso   1.000  C
  C8       1.0000 0.33520  0.26590  0.93610  Biso   1.000  C
  C9       1.0000 0.34860  0.33800  0.89860  Biso   1.000  C
  C10      1.0000 0.33220  0.38170  0.89290  Biso   1.000  C
  C11      1.0000 0.56850  0.03370  0.16440  Biso   1.000  C
  C12      1.0000 0.51720  0.95790  0.16910  Biso   1.000  C
  C13      1.0000 0.49310  0.93950  0.10960  Biso   1.000  C
  C14      1.0000 0.51660  0.99530  0.05310  Biso   1.000  C
  C15      1.0000 0.53690  0.05380  0.05870  Biso   1.000  C
  C16      1.0000 0.86470  0.33790  0.53660  Biso   1.000  C
  C17      1.0000 0.78070  0.34090  0.52540  Biso   1.000  C
  C18      1.0000 0.82980  0.39910  0.56390  Biso   1.000  C
  C19      1.0000 0.93940  0.45000  0.60140  Biso   1.000  C
  C20      1.0000 0.98880  0.43930  0.60710  Biso   1.000  C
  C21      1.0000 0.93150  0.09590  0.46520  Biso   1.000  C
  C22      1.0000 0.98280  0.15190  0.44070  Biso   1.000  C
  C23      1.0000 0.00690  0.11650  0.44640  Biso   1.000  C
  C24      1.0000 0.98340  0.03650  0.47870  Biso   1.000  C
  C25      1.0000 0.96310  0.02180  0.51690  Biso   1.000  C
  C26      1.0000 0.63530  0.17190  0.47320  Biso   1.000  C
  C27      1.0000 0.71930  0.24470  0.56020  Biso   1.000  C
  C28      1.0000 0.67020  0.23410  0.56930  Biso   1.000  C
  C29      1.0000 0.56060  0.16200  0.51060  Biso   1.000  C
  C30      1.0000 0.51120  0.11830  0.45050  Biso   1.000  C
  C31      1.0000 0.13070  0.46630  0.03480  Biso   1.000  C
  C32      1.0000 0.21120  0.54210  0.05930  Biso   1.000  C
  C33      1.0000 0.17010  0.56050  0.05360  Biso   1.000  C
  C34      1.0000 0.05780  0.50470  0.02130  Biso   1.000  C
  C35      1.0000 0.00490  0.44620  0.98310  Biso   1.000  C
  C36      1.0000 0.19870  0.16210  0.02680  Biso   1.000  C
  C37      1.0000 0.18450  0.15910  0.93980  Biso   1.000  C
  C38      1.0000 0.16480  0.10090  0.93070  Biso   1.000  C
  C39      1.0000 0.15140  0.05000  0.98940  Biso   1.000  C
  C40      1.0000 0.16780  0.06070  0.04950  Biso   1.000  C
  C41      1.0000 0.96520  0.93150  0.59590  Biso   1.000  C
  C42      1.0000 0.94070  0.98280  0.65190  Biso   1.000  C
  C43      1.0000 0.94640  0.00690  0.61650  Biso   1.000  C
  C44      1.0000 0.97870  0.98340  0.53650  Biso   1.000  C
  C45      1.0000 0.01690  0.96310  0.52180  Biso   1.000  C
  C46      1.0000 0.97320  0.63530  0.67190  Biso   1.000  C
  C47      1.0000 0.06020  0.71930  0.74470  Biso   1.000  C
  C48      1.0000 0.06930  0.67020  0.73410  Biso   1.000  C
  C49      1.0000 0.01060  0.56060  0.66200  Biso   1.000  C
  C50      1.0000 0.95050  0.51120  0.61830  Biso   1.000  C
  C51      1.0000 0.53480  0.13070  0.96630  Biso   1.000  C
  C52      1.0000 0.55930  0.21120  0.04210  Biso   1.000  C
  C53      1.0000 0.55360  0.17010  0.06050  Biso   1.000  C
  C54      1.0000 0.52130  0.05780  0.00470  Biso   1.000  C
  C55      1.0000 0.48310  0.00490  0.94620  Biso   1.000  C
  C56      1.0000 0.52680  0.19870  0.66210  Biso   1.000  C
  C57      1.0000 0.43980  0.18450  0.65910  Biso   1.000  C
  C58      1.0000 0.43070  0.16480  0.60090  Biso   1.000  C
  C59      1.0000 0.48940  0.15140  0.55000  Biso   1.000  C
  C60      1.0000 0.54950  0.16780  0.56070  Biso   1.000  C
  C61      1.0000 0.83560  0.36930  0.90410  Biso   1.000  C
  C62      1.0000 0.83090  0.28880  0.84810  Biso   1.000  C
  C63      1.0000 0.89040  0.32990  0.88350  Biso   1.000  C
  C64      1.0000 0.94690  0.44220  0.96350  Biso   1.000  C
  C65      1.0000 0.94130  0.49510  0.97820  Biso   1.000  C
  C66      1.0000 0.46340  0.30130  0.82810  Biso   1.000  C
  C67      1.0000 0.47460  0.31550  0.75530  Biso   1.000  C
  C68      1.0000 0.43610  0.33520  0.76590  Biso   1.000  C
  C69      1.0000 0.39860  0.34860  0.83800  Biso   1.000  C
  C70      1.0000 0.39290  0.33220  0.88170  Biso   1.000  C
  C71      1.0000 0.66440  0.56850  0.53370  Biso   1.000  C
  C72      1.0000 0.66910  0.51720  0.45790  Biso   1.000  C
  C73      1.0000 0.60960  0.49310  0.43950  Biso   1.000  C
  C74      1.0000 0.55310  0.51660  0.49530  Biso   1.000  C
  C75      1.0000 0.55870  0.53690  0.55380  Biso   1.000  C
  C76      1.0000 0.03660  0.86470  0.83790  Biso   1.000  C
  C77      1.0000 0.02540  0.78070  0.84090  Biso   1.000  C
  C78      1.0000 0.06390  0.82980  0.89910  Biso   1.000  C
  C79      1.0000 0.10140  0.93940  0.95000  Biso   1.000  C
  C80      1.0000 0.10710  0.98880  0.93930  Biso   1.000  C
  C81      1.0000 0.03370  0.66440  0.06850  Biso   1.000  C
  C82      1.0000 0.95790  0.66910  0.01720  Biso   1.000  C
  C83      1.0000 0.93950  0.60960  0.99310  Biso   1.000  C
  C84      1.0000 0.99530  0.55310  0.01660  Biso   1.000  C
  C85      1.0000 0.05380  0.55870  0.03690  Biso   1.000  C
  C86      1.0000 0.33790  0.03660  0.36470  Biso   1.000  C
  C87      1.0000 0.34090  0.02540  0.28070  Biso   1.000  C
  C88      1.0000 0.39910  0.06390  0.32980  Biso   1.000  C
  C89      1.0000 0.45000  0.10140  0.43940  Biso   1.000  C
  C90      1.0000 0.43930  0.10710  0.48880  Biso   1.000  C
  C91      1.0000 0.40410  0.83560  0.86930  Biso   1.000  C
  C92      1.0000 0.34810  0.83090  0.78880  Biso   1.000  C
  C93      1.0000 0.38350  0.89040  0.82990  Biso   1.000  C
  C94      1.0000 0.46350  0.94690  0.94220  Biso   1.000  C
  C95      1.0000 0.47820  0.94130  0.99510  Biso   1.000  C
  C96      1.0000 0.32810  0.46340  0.80130  Biso   1.000  C
  C97      1.0000 0.25530  0.47460  0.81550  Biso   1.000  C
  C98      1.0000 0.26590  0.43610  0.83520  Biso   1.000  C
  C99      1.0000 0.33800  0.39860  0.84860  Biso   1.000  C
  C100     1.0000 0.38170  0.39290  0.83220  Biso   1.000  C
  C101     1.0000 0.46630  0.53480  0.63070  Biso   1.000  C
  C102     1.0000 0.54210  0.55930  0.71120  Biso   1.000  C
  C103     1.0000 0.56050  0.55360  0.67010  Biso   1.000  C
  C104     1.0000 0.50470  0.52130  0.55780  Biso   1.000  C
  C105     1.0000 0.44620  0.48310  0.50490  Biso   1.000  C
  C106     1.0000 0.16210  0.52680  0.69870  Biso   1.000  C
  C107     1.0000 0.15910  0.43980  0.68450  Biso   1.000  C
  C108     1.0000 0.10090  0.43070  0.66480  Biso   1.000  C
  C109     1.0000 0.05000  0.48940  0.65140  Biso   1.000  C
  C110     1.0000 0.06070  0.54950  0.66780  Biso   1.000  C
  C111     1.0000 0.09590  0.96520  0.43150  Biso   1.000  C
  C112     1.0000 0.15190  0.94070  0.48280  Biso   1.000  C
  C113     1.0000 0.11650  0.94640  0.50690  Biso   1.000  C
  C114     1.0000 0.03650  0.97870  0.48340  Biso   1.000  C
  C115     1.0000 0.02180  0.01690  0.46310  Biso   1.000  C
  C116     1.0000 0.17190  0.97320  0.13530  Biso   1.000  C
  C117     1.0000 0.24470  0.06020  0.21930  Biso   1.000  C
  C118     1.0000 0.23410  0.06930  0.17020  Biso   1.000  C
  C119     1.0000 0.16200  0.01060  0.06060  Biso   1.000  C
  C120     1.0000 0.11830  0.95050  0.01120  Biso   1.000  C
  C121     1.0000 0.53370  0.06850  0.66440  Biso   1.000  C
  C122     1.0000 0.45790  0.01720  0.66910  Biso   1.000  C
  C123     1.0000 0.43950  0.99310  0.60960  Biso   1.000  C
  C124     1.0000 0.49530  0.01660  0.55310  Biso   1.000  C
  C125     1.0000 0.55380  0.03690  0.55870  Biso   1.000  C
  C126     1.0000 0.83790  0.36470  0.03660  Biso   1.000  C
  C127     1.0000 0.84090  0.28070  0.02540  Biso   1.000  C
  C128     1.0000 0.89910  0.32980  0.06390  Biso   1.000  C
  C129     1.0000 0.95000  0.43940  0.10140  Biso   1.000  C
  C130     1.0000 0.93930  0.48880  0.10710  Biso   1.000  C
  C131     1.0000 0.90410  0.86930  0.83560  Biso   1.000  C
  C132     1.0000 0.84810  0.78880  0.83090  Biso   1.000  C
  C133     1.0000 0.88350  0.82990  0.89040  Biso   1.000  C
  C134     1.0000 0.96350  0.94220  0.94690  Biso   1.000  C
  C135     1.0000 0.97820  0.99510  0.94130  Biso   1.000  C
  C136     1.0000 0.82810  0.80130  0.46340  Biso   1.000  C
  C137     1.0000 0.75530  0.81550  0.47460  Biso   1.000  C
  C138     1.0000 0.76590  0.83520  0.43610  Biso   1.000  C
  C139     1.0000 0.83800  0.84860  0.39860  Biso   1.000  C
  C140     1.0000 0.88170  0.83220  0.39290  Biso   1.000  C
  C141     1.0000 0.96630  0.63070  0.53480  Biso   1.000  C
  C142     1.0000 0.04210  0.71120  0.55930  Biso   1.000  C
  C143     1.0000 0.06050  0.67010  0.55360  Biso   1.000  C
  C144     1.0000 0.00470  0.55780  0.52130  Biso   1.000  C
  C145     1.0000 0.94620  0.50490  0.48310  Biso   1.000  C
  C146     1.0000 0.66210  0.69870  0.52680  Biso   1.000  C
  C147     1.0000 0.65910  0.68450  0.43980  Biso   1.000  C
  C148     1.0000 0.60090  0.66480  0.43070  Biso   1.000  C
  C149     1.0000 0.55000  0.65140  0.48940  Biso   1.000  C
  C150     1.0000 0.56070  0.66780  0.54950  Biso   1.000  C
  C151     1.0000 0.59590  0.43150  0.96520  Biso   1.000  C
  C152     1.0000 0.65190  0.48280  0.94070  Biso   1.000  C
  C153     1.0000 0.61650  0.50690  0.94640  Biso   1.000  C
  C154     1.0000 0.53650  0.48340  0.97870  Biso   1.000  C
  C155     1.0000 0.52180  0.46310  0.01690  Biso   1.000  C
  C156     1.0000 0.67190  0.13530  0.97320  Biso   1.000  C
  C157     1.0000 0.74470  0.21930  0.06020  Biso   1.000  C
  C158     1.0000 0.73410  0.17020  0.06930  Biso   1.000  C
  C159     1.0000 0.66200  0.06060  0.01060  Biso   1.000  C
  C160     1.0000 0.61830  0.01120  0.95050  Biso   1.000  C
  C161     1.0000 0.86930  0.33560  0.40410  Biso   1.000  C
  C162     1.0000 0.78880  0.33090  0.34810  Biso   1.000  C
  C163     1.0000 0.82990  0.39040  0.38350  Biso   1.000  C
  C164     1.0000 0.94220  0.44690  0.46350  Biso   1.000  C
  C165     1.0000 0.99510  0.44130  0.47820  Biso   1.000  C
  C166     1.0000 0.80130  0.96340  0.32810  Biso   1.000  C
  C167     1.0000 0.81550  0.97460  0.25530  Biso   1.000  C
  C168     1.0000 0.83520  0.93610  0.26590  Biso   1.000  C
  C169     1.0000 0.84860  0.89860  0.33800  Biso   1.000  C
  C170     1.0000 0.83220  0.89290  0.38170  Biso   1.000  C
  C171     1.0000 0.06850  0.16440  0.03370  Biso   1.000  C
  C172     1.0000 0.01720  0.16910  0.95790  Biso   1.000  C
  C173     1.0000 0.99310  0.10960  0.93950  Biso   1.000  C
  C174     1.0000 0.01660  0.05310  0.99530  Biso   1.000  C
  C175     1.0000 0.03690  0.05870  0.05380  Biso   1.000  C
  C176     1.0000 0.36470  0.53660  0.33790  Biso   1.000  C
  C177     1.0000 0.28070  0.52540  0.34090  Biso   1.000  C
  C178     1.0000 0.32980  0.56390  0.39910  Biso   1.000  C
  C179     1.0000 0.43940  0.60140  0.45000  Biso   1.000  C
  C180     1.0000 0.48880  0.60710  0.43930  Biso   1.000  C
  C181     1.0000 0.43150  0.46520  0.09590  Biso   1.000  C
  C182     1.0000 0.48280  0.44070  0.15190  Biso   1.000  C
  C183     1.0000 0.50690  0.44640  0.11650  Biso   1.000  C
  C184     1.0000 0.48340  0.47870  0.03650  Biso   1.000  C
  C185     1.0000 0.46310  0.51690  0.02180  Biso   1.000  C
  C186     1.0000 0.13530  0.47320  0.17190  Biso   1.000  C
  C187     1.0000 0.21930  0.56020  0.24470  Biso   1.000  C
  C188     1.0000 0.17020  0.56930  0.23410  Biso   1.000  C
  C189     1.0000 0.06060  0.51060  0.16200  Biso   1.000  C
  C190     1.0000 0.01120  0.45050  0.11830  Biso   1.000  C
  C191     1.0000 0.63070  0.03480  0.46630  Biso   1.000  C
  C192     1.0000 0.71120  0.05930  0.54210  Biso   1.000  C
  C193     1.0000 0.67010  0.05360  0.56050  Biso   1.000  C
  C194     1.0000 0.55780  0.02130  0.50470  Biso   1.000  C
  C195     1.0000 0.50490  0.98310  0.44620  Biso   1.000  C
  C196     1.0000 0.69870  0.02680  0.16210  Biso   1.000  C
  C197     1.0000 0.68450  0.93980  0.15910  Biso   1.000  C
  C198     1.0000 0.66480  0.93070  0.10090  Biso   1.000  C
  C199     1.0000 0.65140  0.98940  0.05000  Biso   1.000  C
  C200     1.0000 0.66780  0.04950  0.06070  Biso   1.000  C
  C201     1.0000 0.46520  0.59590  0.93150  Biso   1.000  C
  C202     1.0000 0.44070  0.65190  0.98280  Biso   1.000  C
  C203     1.0000 0.44640  0.61650  0.00690  Biso   1.000  C
  C204     1.0000 0.47870  0.53650  0.98340  Biso   1.000  C
  C205     1.0000 0.51690  0.52180  0.96310  Biso   1.000  C
  C206     1.0000 0.47320  0.67190  0.63530  Biso   1.000  C
  C207     1.0000 0.56020  0.74470  0.71930  Biso   1.000  C
  C208     1.0000 0.56930  0.73410  0.67020  Biso   1.000  C
  C209     1.0000 0.51060  0.66200  0.56060  Biso   1.000  C
  C210     1.0000 0.45050  0.61830  0.51120  Biso   1.000  C
  C211     1.0000 0.03480  0.96630  0.13070  Biso   1.000  C
  C212     1.0000 0.05930  0.04210  0.21120  Biso   1.000  C
  C213     1.0000 0.05360  0.06050  0.17010  Biso   1.000  C
  C214     1.0000 0.02130  0.00470  0.05780  Biso   1.000  C
  C215     1.0000 0.98310  0.94620  0.00490  Biso   1.000  C
  C216     1.0000 0.02680  0.66210  0.19870  Biso   1.000  C
  C217     1.0000 0.93980  0.65910  0.18450  Biso   1.000  C
  C218     1.0000 0.93070  0.60090  0.16480  Biso   1.000  C
  C219     1.0000 0.98940  0.55000  0.15140  Biso   1.000  C
  C220     1.0000 0.04950  0.56070  0.16780  Biso   1.000  C
  C221     1.0000 0.33560  0.90410  0.36930  Biso   1.000  C
  C222     1.0000 0.33090  0.84810  0.28880  Biso   1.000  C
  C223     1.0000 0.39040  0.88350  0.32990  Biso   1.000  C
  C224     1.0000 0.44690  0.96350  0.44220  Biso   1.000  C
  C225     1.0000 0.44130  0.97820  0.49510  Biso   1.000  C
  C226     1.0000 0.96340  0.82810  0.30130  Biso   1.000  C
  C227     1.0000 0.97460  0.75530  0.31550  Biso   1.000  C
  C228     1.0000 0.93610  0.76590  0.33520  Biso   1.000  C
  C229     1.0000 0.89860  0.83800  0.34860  Biso   1.000  C
  C230     1.0000 0.89290  0.88170  0.33220  Biso   1.000  C
  C231     1.0000 0.16440  0.53370  0.56850  Biso   1.000  C
  C232     1.0000 0.16910  0.45790  0.51720  Biso   1.000  C
  C233     1.0000 0.10960  0.43950  0.49310  Biso   1.000  C
  C234     1.0000 0.05310  0.49530  0.51660  Biso   1.000  C
  C235     1.0000 0.05870  0.55380  0.53690  Biso   1.000  C
  C236     1.0000 0.53660  0.83790  0.86470  Biso   1.000  C
  C237     1.0000 0.52540  0.84090  0.78070  Biso   1.000  C
  C238     1.0000 0.56390  0.89910  0.82980  Biso   1.000  C
  C239     1.0000 0.60140  0.95000  0.93940  Biso   1.000  C
  C240     1.0000 0.60710  0.93930  0.98880  Biso   1.000  C
  S1       1.0000 0.31108  0.33462  0.14252  Biso   1.000  S
  S2       1.0000 0.69210  0.16856  0.35748  Biso   1.000  S
  S3       1.0000 0.80790  0.16538  0.47646  Biso   1.000  S
  S4       1.0000 0.18892  0.33144  0.02354  Biso   1.000  S
  S5       1.0000 0.97646  0.80790  0.66538  Biso   1.000  S
  S6       1.0000 0.52354  0.18892  0.83144  Biso   1.000  S
  S7       1.0000 0.64252  0.31108  0.83462  Biso   1.000  S
  S8       1.0000 0.85748  0.69210  0.66856  Biso   1.000  S
  S9       1.0000 0.16856  0.85748  0.19210  Biso   1.000  S
  S10      1.0000 0.33462  0.64252  0.81108  Biso   1.000  S
  S11      1.0000 0.33144  0.52354  0.68892  Biso   1.000  S
  S12      1.0000 0.16538  0.97646  0.30790  Biso   1.000  S
  S13      1.0000 0.66856  0.19210  0.85748  Biso   1.000  S
  S14      1.0000 0.83462  0.81108  0.64252  Biso   1.000  S
  S15      1.0000 0.83144  0.68892  0.52354  Biso   1.000  S
  S16      1.0000 0.66538  0.30790  0.97646  Biso   1.000  S
  S17      1.0000 0.81108  0.14252  0.33462  Biso   1.000  S
  S18      1.0000 0.19210  0.35748  0.16856  Biso   1.000  S
  S19      1.0000 0.30790  0.47646  0.16538  Biso   1.000  S
  S20      1.0000 0.68892  0.02354  0.33144  Biso   1.000  S
  S21      1.0000 0.47646  0.66538  0.80790  Biso   1.000  S
  S22      1.0000 0.02354  0.83144  0.18892  Biso   1.000  S
  S23      1.0000 0.14252  0.83462  0.31108  Biso   1.000  S
  S24      1.0000 0.35748  0.66856  0.69210  Biso   1.000  S
  Br1      1.0000 0.20612  0.21440  0.17386  Biso   1.000  Br
  Br2      1.0000 0.54054  0.03226  0.32614  Biso   1.000  Br
  Br3      1.0000 0.95946  0.28560  0.49172  Biso   1.000  Br
  Br4      1.0000 0.29388  0.46774  0.00828  Biso   1.000  Br
  Br5      1.0000 0.99172  0.95946  0.78560  Biso   1.000  Br
  Br6      1.0000 0.50828  0.29388  0.96774  Biso   1.000  Br
  Br7      1.0000 0.67386  0.20612  0.71440  Biso   1.000  Br
  Br8      1.0000 0.82614  0.54054  0.53226  Biso   1.000  Br
  Br9      1.0000 0.03226  0.82614  0.04054  Biso   1.000  Br
  Br10     1.0000 0.21440  0.67386  0.70612  Biso   1.000  Br
  Br11     1.0000 0.46774  0.50828  0.79388  Biso   1.000  Br
  Br12     1.0000 0.28560  0.99172  0.45946  Biso   1.000  Br
  Br13     1.0000 0.53226  0.04054  0.82614  Biso   1.000  Br
  Br14     1.0000 0.71440  0.70612  0.67386  Biso   1.000  Br
  Br15     1.0000 0.96774  0.79388  0.50828  Biso   1.000  Br
  Br16     1.0000 0.78560  0.45946  0.99172  Biso   1.000  Br
  Br17     1.0000 0.70612  0.17386  0.21440  Biso   1.000  Br
  Br18     1.0000 0.04054  0.32614  0.03226  Biso   1.000  Br
  Br19     1.0000 0.45946  0.49172  0.28560  Biso   1.000  Br
  Br20     1.0000 0.79388  0.00828  0.46774  Biso   1.000  Br
  Br21     1.0000 0.49172  0.78560  0.95946  Biso   1.000  Br
  Br22     1.0000 0.00828  0.96774  0.29388  Biso   1.000  Br
  Br23     1.0000 0.17386  0.71440  0.20612  Biso   1.000  Br
  Br24     1.0000 0.32614  0.53226  0.54054  Biso   1.000  Br
  N1       1.0000 0.30989  0.36383  0.29394  Biso   1.000  N
  N2       1.0000 0.38515  0.41966  0.39149  Biso   1.000  N
  N3       1.0000 0.28978  0.28981  0.98531  Biso   1.000  N
  N4       1.0000 0.32638  0.31247  0.93163  Biso   1.000  N
  N5       1.0000 0.56989  0.01595  0.20606  Biso   1.000  N
  N6       1.0000 0.52817  0.99366  0.10851  Biso   1.000  N
  N7       1.0000 0.80450  0.30447  0.51469  Biso   1.000  N
  N8       1.0000 0.88084  0.39475  0.56837  Biso   1.000  N
  N9       1.0000 0.93011  0.13617  0.44606  Biso   1.000  N
  N10      1.0000 0.97183  0.08034  0.46549  Biso   1.000  N
  N11      1.0000 0.69550  0.21019  0.49997  Biso   1.000  N
  N12      1.0000 0.61916  0.18753  0.51391  Biso   1.000  N
  N13      1.0000 0.19011  0.48405  0.05394  Biso   1.000  N
  N14      1.0000 0.11485  0.50634  0.03451  Biso   1.000  N
  N15      1.0000 0.21022  0.19553  0.00003  Biso   1.000  N
  N16      1.0000 0.17362  0.10525  0.98609  Biso   1.000  N
  N17      1.0000 0.94606  0.93011  0.63617  Biso   1.000  N
  N18      1.0000 0.96549  0.97183  0.58034  Biso   1.000  N
  N19      1.0000 0.99997  0.69550  0.71019  Biso   1.000  N
  N20      1.0000 0.01391  0.61916  0.68753  Biso   1.000  N
  N21      1.0000 0.55394  0.19011  0.98405  Biso   1.000  N
  N22      1.0000 0.53451  0.11485  0.00634  Biso   1.000  N
  N23      1.0000 0.50003  0.21022  0.69553  Biso   1.000  N
  N24      1.0000 0.48609  0.17362  0.60525  Biso   1.000  N
  N25      1.0000 0.79394  0.30989  0.86383  Biso   1.000  N
  N26      1.0000 0.89149  0.38515  0.91966  Biso   1.000  N
  N27      1.0000 0.48531  0.28978  0.78981  Biso   1.000  N
  N28      1.0000 0.43163  0.32638  0.81247  Biso   1.000  N
  N29      1.0000 0.70606  0.56989  0.51595  Biso   1.000  N
  N30      1.0000 0.60851  0.52817  0.49366  Biso   1.000  N
  N31      1.0000 0.01469  0.80450  0.80447  Biso   1.000  N
  N32      1.0000 0.06837  0.88084  0.89475  Biso   1.000  N
  N33      1.0000 0.01595  0.70606  0.06989  Biso   1.000  N
  N34      1.0000 0.99366  0.60851  0.02817  Biso   1.000  N
  N35      1.0000 0.30447  0.01469  0.30450  Biso   1.000  N
  N36      1.0000 0.39475  0.06837  0.38084  Biso   1.000  N
  N37      1.0000 0.36383  0.79394  0.80989  Biso   1.000  N
  N38      1.0000 0.41966  0.89149  0.88515  Biso   1.000  N
  N39      1.0000 0.28981  0.48531  0.78978  Biso   1.000  N
  N40      1.0000 0.31247  0.43163  0.82638  Biso   1.000  N
  N41      1.0000 0.48405  0.55394  0.69011  Biso   1.000  N
  N42      1.0000 0.50634  0.53451  0.61485  Biso   1.000  N
  N43      1.0000 0.19553  0.50003  0.71022  Biso   1.000  N
  N44      1.0000 0.10525  0.48609  0.67362  Biso   1.000  N
  N45      1.0000 0.13617  0.94606  0.43011  Biso   1.000  N
  N46      1.0000 0.08034  0.96549  0.47183  Biso   1.000  N
  N47      1.0000 0.21019  0.99997  0.19550  Biso   1.000  N
  N48      1.0000 0.18753  0.01391  0.11916  Biso   1.000  N
  N49      1.0000 0.51595  0.06989  0.70606  Biso   1.000  N
  N50      1.0000 0.49366  0.02817  0.60851  Biso   1.000  N
  N51      1.0000 0.80447  0.30450  0.01469  Biso   1.000  N
  N52      1.0000 0.89475  0.38084  0.06837  Biso   1.000  N
  N53      1.0000 0.86383  0.80989  0.79394  Biso   1.000  N
  N54      1.0000 0.91966  0.88515  0.89149  Biso   1.000  N
  N55      1.0000 0.78981  0.78978  0.48531  Biso   1.000  N
  N56      1.0000 0.81247  0.82638  0.43163  Biso   1.000  N
  N57      1.0000 0.98405  0.69011  0.55394  Biso   1.000  N
  N58      1.0000 0.00634  0.61485  0.53451  Biso   1.000  N
  N59      1.0000 0.69553  0.71022  0.50003  Biso   1.000  N
  N60      1.0000 0.60525  0.67362  0.48609  Biso   1.000  N
  N61      1.0000 0.63617  0.43011  0.94606  Biso   1.000  N
  N62      1.0000 0.58034  0.47183  0.96549  Biso   1.000  N
  N63      1.0000 0.71019  0.19550  0.99997  Biso   1.000  N
  N64      1.0000 0.68753  0.11916  0.01391  Biso   1.000  N
  N65      1.0000 0.80989  0.29394  0.36383  Biso   1.000  N
  N66      1.0000 0.88515  0.39149  0.41966  Biso   1.000  N
  N67      1.0000 0.78978  0.98531  0.28981  Biso   1.000  N
  N68      1.0000 0.82638  0.93163  0.31247  Biso   1.000  N
  N69      1.0000 0.06989  0.20606  0.01595  Biso   1.000  N
  N70      1.0000 0.02817  0.10851  0.99366  Biso   1.000  N
  N71      1.0000 0.30450  0.51469  0.30447  Biso   1.000  N
  N72      1.0000 0.38084  0.56837  0.39475  Biso   1.000  N
  N73      1.0000 0.43011  0.44606  0.13617  Biso   1.000  N
  N74      1.0000 0.47183  0.46549  0.08034  Biso   1.000  N
  N75      1.0000 0.19550  0.49997  0.21019  Biso   1.000  N
  N76      1.0000 0.11916  0.51391  0.18753  Biso   1.000  N
  N77      1.0000 0.69011  0.05394  0.48405  Biso   1.000  N
  N78      1.0000 0.61485  0.03451  0.50634  Biso   1.000  N
  N79      1.0000 0.71022  0.00003  0.19553  Biso   1.000  N
  N80      1.0000 0.67362  0.98609  0.10525  Biso   1.000  N
  N81      1.0000 0.44606  0.63617  0.93011  Biso   1.000  N
  N82      1.0000 0.46549  0.58034  0.97183  Biso   1.000  N
  N83      1.0000 0.49997  0.71019  0.69550  Biso   1.000  N
  N84      1.0000 0.51391  0.68753  0.61916  Biso   1.000  N
  N85      1.0000 0.05394  0.98405  0.19011  Biso   1.000  N
  N86      1.0000 0.03451  0.00634  0.11485  Biso   1.000  N
  N87      1.0000 0.00003  0.69553  0.21022  Biso   1.000  N
  N88      1.0000 0.98609  0.60525  0.17362  Biso   1.000  N
  N89      1.0000 0.29394  0.86383  0.30989  Biso   1.000  N
  N90      1.0000 0.39149  0.91966  0.38515  Biso   1.000  N
  N91      1.0000 0.98531  0.78981  0.28978  Biso   1.000  N
  N92      1.0000 0.93163  0.81247  0.32638  Biso   1.000  N
  N93      1.0000 0.20606  0.51595  0.56989  Biso   1.000  N
  N94      1.0000 0.10851  0.49366  0.52817  Biso   1.000  N
  N95      1.0000 0.51469  0.80447  0.80450  Biso   1.000  N
  N96      1.0000 0.56837  0.89475  0.88084  Biso   1.000  N
