data_image0
_cell_length_a       26.0643
_cell_length_b       26.0643
_cell_length_c       26.0643
_cell_angle_alpha    109.471
_cell_angle_beta     109.471
_cell_angle_gamma    109.471

_symmetry_space_group_name_H-M    P 1
_symmetry_int_tables_number       1

loop_
  _symmetry_equiv_pos_as_xyz
  'x, y, z'

loop_
  _atom_site_label
  _atom_site_occupancy
  _atom_site_fract_x
  _atom_site_fract_y
  _atom_site_fract_z
  _atom_site_thermal_displace_type
  _atom_site_B_iso_or_equiv
  _atom_site_type_symbol
  Cu1      1.0000 0.44018  0.67589  0.87661  Biso   1.000  Cu
  Cu2      1.0000 0.29928  0.56357  0.62339  Biso   1.000  Cu
  Cu3      1.0000 0.20072  0.82411  0.26429  Biso   1.000  Cu
  Cu4      1.0000 0.05982  0.93643  0.23571  Biso   1.000  Cu
  Cu5      1.0000 0.76429  0.20072  0.32411  Biso   1.000  Cu
  Cu6      1.0000 0.73571  0.05982  0.43643  Biso   1.000  Cu
  Cu7      1.0000 0.37661  0.44018  0.17589  Biso   1.000  Cu
  Cu8      1.0000 0.12339  0.29928  0.06357  Biso   1.000  Cu
  Cu9      1.0000 0.56357  0.12339  0.79928  Biso   1.000  Cu
  Cu10     1.0000 0.67589  0.37661  0.94018  Biso   1.000  Cu
  Cu11     1.0000 0.93643  0.73571  0.55982  Biso   1.000  Cu
  Cu12     1.0000 0.82411  0.76429  0.70072  Biso   1.000  Cu
  Cu13     1.0000 0.06357  0.79928  0.12339  Biso   1.000  Cu
  Cu14     1.0000 0.17589  0.94018  0.37661  Biso   1.000  Cu
  Cu15     1.0000 0.43643  0.55982  0.73571  Biso   1.000  Cu
  Cu16     1.0000 0.32411  0.70072  0.76429  Biso   1.000  Cu
  Cu17     1.0000 0.94018  0.87661  0.67589  Biso   1.000  Cu
  Cu18     1.0000 0.79928  0.62339  0.56357  Biso   1.000  Cu
  Cu19     1.0000 0.70072  0.26429  0.82411  Biso   1.000  Cu
  Cu20     1.0000 0.55982  0.23571  0.93643  Biso   1.000  Cu
  Cu21     1.0000 0.26429  0.32411  0.20072  Biso   1.000  Cu
  Cu22     1.0000 0.23571  0.43643  0.05982  Biso   1.000  Cu
  Cu23     1.0000 0.87661  0.17589  0.44018  Biso   1.000  Cu
  Cu24     1.0000 0.62339  0.06357  0.29928  Biso   1.000  Cu
  Cu25     1.0000 0.46371  0.71371  0.75000  Biso   1.000  Cu
  Cu26     1.0000 0.03629  0.78629  0.25000  Biso   1.000  Cu
  Cu27     1.0000 0.75000  0.03629  0.28629  Biso   1.000  Cu
  Cu28     1.0000 0.25000  0.46371  0.21371  Biso   1.000  Cu
  Cu29     1.0000 0.71371  0.25000  0.96371  Biso   1.000  Cu
  Cu30     1.0000 0.78629  0.75000  0.53629  Biso   1.000  Cu
  Cu31     1.0000 0.21371  0.96371  0.25000  Biso   1.000  Cu
  Cu32     1.0000 0.28629  0.53629  0.75000  Biso   1.000  Cu
  Cu33     1.0000 0.96371  0.75000  0.71371  Biso   1.000  Cu
  Cu34     1.0000 0.53629  0.25000  0.78629  Biso   1.000  Cu
  Cu35     1.0000 0.25000  0.28629  0.03629  Biso   1.000  Cu
  Cu36     1.0000 0.75000  0.21371  0.46371  Biso   1.000  Cu
  H1       1.0000 0.48570  0.57770  0.90300  Biso   1.000  H
  H2       1.0000 0.38270  0.63870  0.95540  Biso   1.000  H
  H3       1.0000 0.39590  0.57160  0.00070  Biso   1.000  H
  H4       1.0000 0.54700  0.83000  0.89360  Biso   1.000  H
  H5       1.0000 0.50750  0.83710  0.73980  Biso   1.000  H
  H6       1.0000 0.56770  0.94520  0.82630  Biso   1.000  H
  H7       1.0000 0.17470  0.58270  0.59700  Biso   1.000  H
  H8       1.0000 0.18330  0.42730  0.54460  Biso   1.000  H
  H9       1.0000 0.07090  0.39520  0.49930  Biso   1.000  H
  H10      1.0000 0.43640  0.65340  0.60640  Biso   1.000  H
  H11      1.0000 0.59730  0.76770  0.76020  Biso   1.000  H
  H12      1.0000 0.61890  0.74140  0.67370  Biso   1.000  H
  H13      1.0000 0.32530  0.92230  0.40800  Biso   1.000  H
  H14      1.0000 0.31670  0.86130  0.24400  Biso   1.000  H
  H15      1.0000 0.42910  0.92840  0.32430  Biso   1.000  H
  H16      1.0000 0.06360  0.67000  0.21700  Biso   1.000  H
  H17      1.0000 0.90270  0.66290  0.17040  Biso   1.000  H
  H18      1.0000 0.88110  0.55480  0.12250  Biso   1.000  H
  H19      1.0000 0.01430  0.91730  0.09200  Biso   1.000  H
  H20      1.0000 0.11730  0.07270  0.25600  Biso   1.000  H
  H21      1.0000 0.10410  0.10480  0.17570  Biso   1.000  H
  H22      1.0000 0.95300  0.84660  0.28300  Biso   1.000  H
  H23      1.0000 0.99250  0.73230  0.32960  Biso   1.000  H
  H24      1.0000 0.93230  0.75860  0.37750  Biso   1.000  H
  H25      1.0000 0.90800  0.32530  0.42230  Biso   1.000  H
  H26      1.0000 0.74400  0.31670  0.36130  Biso   1.000  H
  H27      1.0000 0.82430  0.42910  0.42840  Biso   1.000  H
  H28      1.0000 0.71700  0.06360  0.17000  Biso   1.000  H
  H29      1.0000 0.67040  0.90270  0.16290  Biso   1.000  H
  H30      1.0000 0.62250  0.88110  0.05480  Biso   1.000  H
  H31      1.0000 0.59200  0.01430  0.41730  Biso   1.000  H
  H32      1.0000 0.75600  0.11730  0.57270  Biso   1.000  H
  H33      1.0000 0.67570  0.10410  0.60480  Biso   1.000  H
  H34      1.0000 0.78300  0.95300  0.34660  Biso   1.000  H
  H35      1.0000 0.82960  0.99250  0.23230  Biso   1.000  H
  H36      1.0000 0.87750  0.93230  0.25860  Biso   1.000  H
  H37      1.0000 0.40300  0.48570  0.07770  Biso   1.000  H
  H38      1.0000 0.45540  0.38270  0.13870  Biso   1.000  H
  H39      1.0000 0.50070  0.39590  0.07160  Biso   1.000  H
  H40      1.0000 0.39360  0.54700  0.33000  Biso   1.000  H
  H41      1.0000 0.23980  0.50750  0.33710  Biso   1.000  H
  H42      1.0000 0.32630  0.56770  0.44520  Biso   1.000  H
  H43      1.0000 0.09700  0.17470  0.08270  Biso   1.000  H
  H44      1.0000 0.04460  0.18330  0.92730  Biso   1.000  H
  H45      1.0000 0.99930  0.07090  0.89520  Biso   1.000  H
  H46      1.0000 0.10640  0.43640  0.15340  Biso   1.000  H
  H47      1.0000 0.26020  0.59730  0.26770  Biso   1.000  H
  H48      1.0000 0.17370  0.61890  0.24140  Biso   1.000  H
  H49      1.0000 0.58270  0.09700  0.67470  Biso   1.000  H
  H50      1.0000 0.42730  0.04460  0.68330  Biso   1.000  H
  H51      1.0000 0.39520  0.99930  0.57090  Biso   1.000  H
  H52      1.0000 0.65340  0.10640  0.93640  Biso   1.000  H
  H53      1.0000 0.76770  0.26020  0.09730  Biso   1.000  H
  H54      1.0000 0.74140  0.17370  0.11890  Biso   1.000  H
  H55      1.0000 0.57770  0.40300  0.98570  Biso   1.000  H
  H56      1.0000 0.63870  0.45540  0.88270  Biso   1.000  H
  H57      1.0000 0.57160  0.50070  0.89590  Biso   1.000  H
  H58      1.0000 0.83000  0.39360  0.04700  Biso   1.000  H
  H59      1.0000 0.83710  0.23980  0.00750  Biso   1.000  H
  H60      1.0000 0.94520  0.32630  0.06770  Biso   1.000  H
  H61      1.0000 0.91730  0.59200  0.51430  Biso   1.000  H
  H62      1.0000 0.07270  0.75600  0.61730  Biso   1.000  H
  H63      1.0000 0.10480  0.67570  0.60410  Biso   1.000  H
  H64      1.0000 0.84660  0.78300  0.45300  Biso   1.000  H
  H65      1.0000 0.73230  0.82960  0.49250  Biso   1.000  H
  H66      1.0000 0.75860  0.87750  0.43230  Biso   1.000  H
  H67      1.0000 0.92230  0.90800  0.82530  Biso   1.000  H
  H68      1.0000 0.86130  0.74400  0.81670  Biso   1.000  H
  H69      1.0000 0.92840  0.82430  0.92910  Biso   1.000  H
  H70      1.0000 0.67000  0.71700  0.56360  Biso   1.000  H
  H71      1.0000 0.66290  0.67040  0.40270  Biso   1.000  H
  H72      1.0000 0.55480  0.62250  0.38110  Biso   1.000  H
  H73      1.0000 0.08270  0.67470  0.09700  Biso   1.000  H
  H74      1.0000 0.92730  0.68330  0.04460  Biso   1.000  H
  H75      1.0000 0.89520  0.57090  0.99930  Biso   1.000  H
  H76      1.0000 0.15340  0.93640  0.10640  Biso   1.000  H
  H77      1.0000 0.26770  0.09730  0.26020  Biso   1.000  H
  H78      1.0000 0.24140  0.11890  0.17370  Biso   1.000  H
  H79      1.0000 0.07770  0.98570  0.40300  Biso   1.000  H
  H80      1.0000 0.13870  0.88270  0.45540  Biso   1.000  H
  H81      1.0000 0.07160  0.89590  0.50070  Biso   1.000  H
  H82      1.0000 0.33000  0.04700  0.39360  Biso   1.000  H
  H83      1.0000 0.33710  0.00750  0.23980  Biso   1.000  H
  H84      1.0000 0.44520  0.06770  0.32630  Biso   1.000  H
  H85      1.0000 0.41730  0.51430  0.59200  Biso   1.000  H
  H86      1.0000 0.57270  0.61730  0.75600  Biso   1.000  H
  H87      1.0000 0.60480  0.60410  0.67570  Biso   1.000  H
  H88      1.0000 0.34660  0.45300  0.78300  Biso   1.000  H
  H89      1.0000 0.23230  0.49250  0.82960  Biso   1.000  H
  H90      1.0000 0.25860  0.43230  0.87750  Biso   1.000  H
  H91      1.0000 0.42230  0.82530  0.90800  Biso   1.000  H
  H92      1.0000 0.36130  0.81670  0.74400  Biso   1.000  H
  H93      1.0000 0.42840  0.92910  0.82430  Biso   1.000  H
  H94      1.0000 0.17000  0.56360  0.71700  Biso   1.000  H
  H95      1.0000 0.16290  0.40270  0.67040  Biso   1.000  H
  H96      1.0000 0.05480  0.38110  0.62250  Biso   1.000  H
  H97      1.0000 0.98570  0.90300  0.57770  Biso   1.000  H
  H98      1.0000 0.88270  0.95540  0.63870  Biso   1.000  H
  H99      1.0000 0.89590  0.00070  0.57160  Biso   1.000  H
  H100     1.0000 0.04700  0.89360  0.83000  Biso   1.000  H
  H101     1.0000 0.00750  0.73980  0.83710  Biso   1.000  H
  H102     1.0000 0.06770  0.82630  0.94520  Biso   1.000  H
  H103     1.0000 0.67470  0.59700  0.58270  Biso   1.000  H
  H104     1.0000 0.68330  0.54460  0.42730  Biso   1.000  H
  H105     1.0000 0.57090  0.49930  0.39520  Biso   1.000  H
  H106     1.0000 0.93640  0.60640  0.65340  Biso   1.000  H
  H107     1.0000 0.09730  0.76020  0.76770  Biso   1.000  H
  H108     1.0000 0.11890  0.67370  0.74140  Biso   1.000  H
  H109     1.0000 0.82530  0.40800  0.92230  Biso   1.000  H
  H110     1.0000 0.81670  0.24400  0.86130  Biso   1.000  H
  H111     1.0000 0.92910  0.32430  0.92840  Biso   1.000  H
  H112     1.0000 0.56360  0.21700  0.67000  Biso   1.000  H
  H113     1.0000 0.40270  0.17040  0.66290  Biso   1.000  H
  H114     1.0000 0.38110  0.12250  0.55480  Biso   1.000  H
  H115     1.0000 0.51430  0.09200  0.91730  Biso   1.000  H
  H116     1.0000 0.61730  0.25600  0.07270  Biso   1.000  H
  H117     1.0000 0.60410  0.17570  0.10480  Biso   1.000  H
  H118     1.0000 0.45300  0.28300  0.84660  Biso   1.000  H
  H119     1.0000 0.49250  0.32960  0.73230  Biso   1.000  H
  H120     1.0000 0.43230  0.37750  0.75860  Biso   1.000  H
  H121     1.0000 0.40800  0.42230  0.32530  Biso   1.000  H
  H122     1.0000 0.24400  0.36130  0.31670  Biso   1.000  H
  H123     1.0000 0.32430  0.42840  0.42910  Biso   1.000  H
  H124     1.0000 0.21700  0.17000  0.06360  Biso   1.000  H
  H125     1.0000 0.17040  0.16290  0.90270  Biso   1.000  H
  H126     1.0000 0.12250  0.05480  0.88110  Biso   1.000  H
  H127     1.0000 0.09200  0.41730  0.01430  Biso   1.000  H
  H128     1.0000 0.25600  0.57270  0.11730  Biso   1.000  H
  H129     1.0000 0.17570  0.60480  0.10410  Biso   1.000  H
  H130     1.0000 0.28300  0.34660  0.95300  Biso   1.000  H
  H131     1.0000 0.32960  0.23230  0.99250  Biso   1.000  H
  H132     1.0000 0.37750  0.25860  0.93230  Biso   1.000  H
  H133     1.0000 0.90300  0.07770  0.48570  Biso   1.000  H
  H134     1.0000 0.95540  0.13870  0.38270  Biso   1.000  H
  H135     1.0000 0.00070  0.07160  0.39590  Biso   1.000  H
  H136     1.0000 0.89360  0.33000  0.54700  Biso   1.000  H
  H137     1.0000 0.73980  0.33710  0.50750  Biso   1.000  H
  H138     1.0000 0.82630  0.44520  0.56770  Biso   1.000  H
  H139     1.0000 0.59700  0.08270  0.17470  Biso   1.000  H
  H140     1.0000 0.54460  0.92730  0.18330  Biso   1.000  H
  H141     1.0000 0.49930  0.89520  0.07090  Biso   1.000  H
  H142     1.0000 0.60640  0.15340  0.43640  Biso   1.000  H
  H143     1.0000 0.76020  0.26770  0.59730  Biso   1.000  H
  H144     1.0000 0.67370  0.24140  0.61890  Biso   1.000  H
  W1       1.0000 0.37500  0.62500  0.75000  Biso   1.000  W
  W2       1.0000 0.12500  0.87500  0.25000  Biso   1.000  W
  W3       1.0000 0.75000  0.12500  0.37500  Biso   1.000  W
  W4       1.0000 0.25000  0.37500  0.12500  Biso   1.000  W
  W5       1.0000 0.62500  0.25000  0.87500  Biso   1.000  W
  W6       1.0000 0.87500  0.75000  0.62500  Biso   1.000  W
  C1       1.0000 0.46360  0.58660  0.92280  Biso   1.000  C
  C2       1.0000 0.40600  0.61890  0.95110  Biso   1.000  C
  C3       1.0000 0.41340  0.58260  0.97760  Biso   1.000  C
  C4       1.0000 0.47500  0.52910  0.97670  Biso   1.000  C
  C5       1.0000 0.54390  0.84540  0.86590  Biso   1.000  C
  C6       1.0000 0.52200  0.84960  0.78220  Biso   1.000  C
  C7       1.0000 0.55620  0.90870  0.82890  Biso   1.000  C
  C8       1.0000 0.60750  0.95330  0.94460  Biso   1.000  C
  C9       1.0000 0.16380  0.54080  0.57720  Biso   1.000  C
  C10      1.0000 0.16780  0.45490  0.54890  Biso   1.000  C
  C11      1.0000 0.10500  0.43580  0.52240  Biso   1.000  C
  C12      1.0000 0.05240  0.49830  0.52330  Biso   1.000  C
  C13      1.0000 0.47950  0.67800  0.63410  Biso   1.000  C
  C14      1.0000 0.56740  0.73980  0.71780  Biso   1.000  C
  C15      1.0000 0.57980  0.72730  0.67110  Biso   1.000  C
  C16      1.0000 0.50870  0.66290  0.55540  Biso   1.000  C
  C17      1.0000 0.33620  0.91340  0.37700  Biso   1.000  C
  C18      1.0000 0.33220  0.88110  0.28710  Biso   1.000  C
  C19      1.0000 0.39500  0.91740  0.33080  Biso   1.000  C
  C20      1.0000 0.44760  0.97090  0.44590  Biso   1.000  C
  C21      1.0000 0.02050  0.65460  0.19850  Biso   1.000  C
  C22      1.0000 0.93260  0.65040  0.17240  Biso   1.000  C
  C23      1.0000 0.92020  0.59130  0.14750  Biso   1.000  C
  C24      1.0000 0.99130  0.54670  0.15420  Biso   1.000  C
  C25      1.0000 0.03640  0.95920  0.12300  Biso   1.000  C
  C26      1.0000 0.09400  0.04510  0.21290  Biso   1.000  C
  C27      1.0000 0.08660  0.06420  0.16920  Biso   1.000  C
  C28      1.0000 0.02500  0.00170  0.05410  Biso   1.000  C
  C29      1.0000 0.95610  0.82200  0.30150  Biso   1.000  C
  C30      1.0000 0.97800  0.76020  0.32760  Biso   1.000  C
  C31      1.0000 0.94380  0.77270  0.35250  Biso   1.000  C
  C32      1.0000 0.89250  0.83710  0.34580  Biso   1.000  C
  C33      1.0000 0.87700  0.33620  0.41340  Biso   1.000  C
  C34      1.0000 0.78710  0.33220  0.38110  Biso   1.000  C
  C35      1.0000 0.83080  0.39500  0.41740  Biso   1.000  C
  C36      1.0000 0.94590  0.44760  0.47090  Biso   1.000  C
  C37      1.0000 0.69850  0.02050  0.15460  Biso   1.000  C
  C38      1.0000 0.67240  0.93260  0.15040  Biso   1.000  C
  C39      1.0000 0.64750  0.92020  0.09130  Biso   1.000  C
  C40      1.0000 0.65420  0.99130  0.04670  Biso   1.000  C
  C41      1.0000 0.62300  0.03640  0.45920  Biso   1.000  C
  C42      1.0000 0.71290  0.09400  0.54510  Biso   1.000  C
  C43      1.0000 0.66920  0.08660  0.56420  Biso   1.000  C
  C44      1.0000 0.55410  0.02500  0.50170  Biso   1.000  C
  C45      1.0000 0.80150  0.95610  0.32200  Biso   1.000  C
  C46      1.0000 0.82760  0.97800  0.26020  Biso   1.000  C
  C47      1.0000 0.85250  0.94380  0.27270  Biso   1.000  C
  C48      1.0000 0.84580  0.89250  0.33710  Biso   1.000  C
  C49      1.0000 0.42280  0.46360  0.08660  Biso   1.000  C
  C50      1.0000 0.45110  0.40600  0.11890  Biso   1.000  C
  C51      1.0000 0.47760  0.41340  0.08260  Biso   1.000  C
  C52      1.0000 0.47670  0.47500  0.02910  Biso   1.000  C
  C53      1.0000 0.36590  0.54390  0.34540  Biso   1.000  C
  C54      1.0000 0.28220  0.52200  0.34960  Biso   1.000  C
  C55      1.0000 0.32890  0.55620  0.40870  Biso   1.000  C
  C56      1.0000 0.44460  0.60750  0.45330  Biso   1.000  C
  C57      1.0000 0.07720  0.16380  0.04080  Biso   1.000  C
  C58      1.0000 0.04890  0.16780  0.95490  Biso   1.000  C
  C59      1.0000 0.02240  0.10500  0.93580  Biso   1.000  C
  C60      1.0000 0.02330  0.05240  0.99830  Biso   1.000  C
  C61      1.0000 0.13410  0.47950  0.17800  Biso   1.000  C
  C62      1.0000 0.21780  0.56740  0.23980  Biso   1.000  C
  C63      1.0000 0.17110  0.57980  0.22730  Biso   1.000  C
  C64      1.0000 0.05540  0.50870  0.16290  Biso   1.000  C
  C65      1.0000 0.54080  0.07720  0.66380  Biso   1.000  C
  C66      1.0000 0.45490  0.04890  0.66780  Biso   1.000  C
  C67      1.0000 0.43580  0.02240  0.60500  Biso   1.000  C
  C68      1.0000 0.49830  0.02330  0.55240  Biso   1.000  C
  C69      1.0000 0.67800  0.13410  0.97950  Biso   1.000  C
  C70      1.0000 0.73980  0.21780  0.06740  Biso   1.000  C
  C71      1.0000 0.72730  0.17110  0.07980  Biso   1.000  C
  C72      1.0000 0.66290  0.05540  0.00870  Biso   1.000  C
  C73      1.0000 0.58660  0.42280  0.96360  Biso   1.000  C
  C74      1.0000 0.61890  0.45110  0.90600  Biso   1.000  C
  C75      1.0000 0.58260  0.47760  0.91340  Biso   1.000  C
  C76      1.0000 0.52910  0.47670  0.97500  Biso   1.000  C
  C77      1.0000 0.84540  0.36590  0.04390  Biso   1.000  C
  C78      1.0000 0.84960  0.28220  0.02200  Biso   1.000  C
  C79      1.0000 0.90870  0.32890  0.05620  Biso   1.000  C
  C80      1.0000 0.95330  0.44460  0.10750  Biso   1.000  C
  C81      1.0000 0.95920  0.62300  0.53640  Biso   1.000  C
  C82      1.0000 0.04510  0.71290  0.59400  Biso   1.000  C
  C83      1.0000 0.06420  0.66920  0.58660  Biso   1.000  C
  C84      1.0000 0.00170  0.55410  0.52500  Biso   1.000  C
  C85      1.0000 0.82200  0.80150  0.45610  Biso   1.000  C
  C86      1.0000 0.76020  0.82760  0.47800  Biso   1.000  C
  C87      1.0000 0.77270  0.85250  0.44380  Biso   1.000  C
  C88      1.0000 0.83710  0.84580  0.39250  Biso   1.000  C
  C89      1.0000 0.91340  0.87700  0.83620  Biso   1.000  C
  C90      1.0000 0.88110  0.78710  0.83220  Biso   1.000  C
  C91      1.0000 0.91740  0.83080  0.89500  Biso   1.000  C
  C92      1.0000 0.97090  0.94590  0.94760  Biso   1.000  C
  C93      1.0000 0.65460  0.69850  0.52050  Biso   1.000  C
  C94      1.0000 0.65040  0.67240  0.43260  Biso   1.000  C
  C95      1.0000 0.59130  0.64750  0.42020  Biso   1.000  C
  C96      1.0000 0.54670  0.65420  0.49130  Biso   1.000  C
  C97      1.0000 0.04080  0.66380  0.07720  Biso   1.000  C
  C98      1.0000 0.95490  0.66780  0.04890  Biso   1.000  C
  C99      1.0000 0.93580  0.60500  0.02240  Biso   1.000  C
  C100     1.0000 0.99830  0.55240  0.02330  Biso   1.000  C
  C101     1.0000 0.17800  0.97950  0.13410  Biso   1.000  C
  C102     1.0000 0.23980  0.06740  0.21780  Biso   1.000  C
  C103     1.0000 0.22730  0.07980  0.17110  Biso   1.000  C
  C104     1.0000 0.16290  0.00870  0.05540  Biso   1.000  C
  C105     1.0000 0.08660  0.96360  0.42280  Biso   1.000  C
  C106     1.0000 0.11890  0.90600  0.45110  Biso   1.000  C
  C107     1.0000 0.08260  0.91340  0.47760  Biso   1.000  C
  C108     1.0000 0.02910  0.97500  0.47670  Biso   1.000  C
  C109     1.0000 0.34540  0.04390  0.36590  Biso   1.000  C
  C110     1.0000 0.34960  0.02200  0.28220  Biso   1.000  C
  C111     1.0000 0.40870  0.05620  0.32890  Biso   1.000  C
  C112     1.0000 0.45330  0.10750  0.44460  Biso   1.000  C
  C113     1.0000 0.45920  0.53640  0.62300  Biso   1.000  C
  C114     1.0000 0.54510  0.59400  0.71290  Biso   1.000  C
  C115     1.0000 0.56420  0.58660  0.66920  Biso   1.000  C
  C116     1.0000 0.50170  0.52500  0.55410  Biso   1.000  C
  C117     1.0000 0.32200  0.45610  0.80150  Biso   1.000  C
  C118     1.0000 0.26020  0.47800  0.82760  Biso   1.000  C
  C119     1.0000 0.27270  0.44380  0.85250  Biso   1.000  C
  C120     1.0000 0.33710  0.39250  0.84580  Biso   1.000  C
  C121     1.0000 0.41340  0.83620  0.87700  Biso   1.000  C
  C122     1.0000 0.38110  0.83220  0.78710  Biso   1.000  C
  C123     1.0000 0.41740  0.89500  0.83080  Biso   1.000  C
  C124     1.0000 0.47090  0.94760  0.94590  Biso   1.000  C
  C125     1.0000 0.15460  0.52050  0.69850  Biso   1.000  C
  C126     1.0000 0.15040  0.43260  0.67240  Biso   1.000  C
  C127     1.0000 0.09130  0.42020  0.64750  Biso   1.000  C
  C128     1.0000 0.04670  0.49130  0.65420  Biso   1.000  C
  C129     1.0000 0.96360  0.92280  0.58660  Biso   1.000  C
  C130     1.0000 0.90600  0.95110  0.61890  Biso   1.000  C
  C131     1.0000 0.91340  0.97760  0.58260  Biso   1.000  C
  C132     1.0000 0.97500  0.97670  0.52910  Biso   1.000  C
  C133     1.0000 0.04390  0.86590  0.84540  Biso   1.000  C
  C134     1.0000 0.02200  0.78220  0.84960  Biso   1.000  C
  C135     1.0000 0.05620  0.82890  0.90870  Biso   1.000  C
  C136     1.0000 0.10750  0.94460  0.95330  Biso   1.000  C
  C137     1.0000 0.66380  0.57720  0.54080  Biso   1.000  C
  C138     1.0000 0.66780  0.54890  0.45490  Biso   1.000  C
  C139     1.0000 0.60500  0.52240  0.43580  Biso   1.000  C
  C140     1.0000 0.55240  0.52330  0.49830  Biso   1.000  C
  C141     1.0000 0.97950  0.63410  0.67800  Biso   1.000  C
  C142     1.0000 0.06740  0.71780  0.73980  Biso   1.000  C
  C143     1.0000 0.07980  0.67110  0.72730  Biso   1.000  C
  C144     1.0000 0.00870  0.55540  0.66290  Biso   1.000  C
  C145     1.0000 0.83620  0.37700  0.91340  Biso   1.000  C
  C146     1.0000 0.83220  0.28710  0.88110  Biso   1.000  C
  C147     1.0000 0.89500  0.33080  0.91740  Biso   1.000  C
  C148     1.0000 0.94760  0.44590  0.97090  Biso   1.000  C
  C149     1.0000 0.52050  0.19850  0.65460  Biso   1.000  C
  C150     1.0000 0.43260  0.17240  0.65040  Biso   1.000  C
  C151     1.0000 0.42020  0.14750  0.59130  Biso   1.000  C
  C152     1.0000 0.49130  0.15420  0.54670  Biso   1.000  C
  C153     1.0000 0.53640  0.12300  0.95920  Biso   1.000  C
  C154     1.0000 0.59400  0.21290  0.04510  Biso   1.000  C
  C155     1.0000 0.58660  0.16920  0.06420  Biso   1.000  C
  C156     1.0000 0.52500  0.05410  0.00170  Biso   1.000  C
  C157     1.0000 0.45610  0.30150  0.82200  Biso   1.000  C
  C158     1.0000 0.47800  0.32760  0.76020  Biso   1.000  C
  C159     1.0000 0.44380  0.35250  0.77270  Biso   1.000  C
  C160     1.0000 0.39250  0.34580  0.83710  Biso   1.000  C
  C161     1.0000 0.37700  0.41340  0.33620  Biso   1.000  C
  C162     1.0000 0.28710  0.38110  0.33220  Biso   1.000  C
  C163     1.0000 0.33080  0.41740  0.39500  Biso   1.000  C
  C164     1.0000 0.44590  0.47090  0.44760  Biso   1.000  C
  C165     1.0000 0.19850  0.15460  0.02050  Biso   1.000  C
  C166     1.0000 0.17240  0.15040  0.93260  Biso   1.000  C
  C167     1.0000 0.14750  0.09130  0.92020  Biso   1.000  C
  C168     1.0000 0.15420  0.04670  0.99130  Biso   1.000  C
  C169     1.0000 0.12300  0.45920  0.03640  Biso   1.000  C
  C170     1.0000 0.21290  0.54510  0.09400  Biso   1.000  C
  C171     1.0000 0.16920  0.56420  0.08660  Biso   1.000  C
  C172     1.0000 0.05410  0.50170  0.02500  Biso   1.000  C
  C173     1.0000 0.30150  0.32200  0.95610  Biso   1.000  C
  C174     1.0000 0.32760  0.26020  0.97800  Biso   1.000  C
  C175     1.0000 0.35250  0.27270  0.94380  Biso   1.000  C
  C176     1.0000 0.34580  0.33710  0.89250  Biso   1.000  C
  C177     1.0000 0.92280  0.08660  0.46360  Biso   1.000  C
  C178     1.0000 0.95110  0.11890  0.40600  Biso   1.000  C
  C179     1.0000 0.97760  0.08260  0.41340  Biso   1.000  C
  C180     1.0000 0.97670  0.02910  0.47500  Biso   1.000  C
  C181     1.0000 0.86590  0.34540  0.54390  Biso   1.000  C
  C182     1.0000 0.78220  0.34960  0.52200  Biso   1.000  C
  C183     1.0000 0.82890  0.40870  0.55620  Biso   1.000  C
  C184     1.0000 0.94460  0.45330  0.60750  Biso   1.000  C
  C185     1.0000 0.57720  0.04080  0.16380  Biso   1.000  C
  C186     1.0000 0.54890  0.95490  0.16780  Biso   1.000  C
  C187     1.0000 0.52240  0.93580  0.10500  Biso   1.000  C
  C188     1.0000 0.52330  0.99830  0.05240  Biso   1.000  C
  C189     1.0000 0.63410  0.17800  0.47950  Biso   1.000  C
  C190     1.0000 0.71780  0.23980  0.56740  Biso   1.000  C
  C191     1.0000 0.67110  0.22730  0.57980  Biso   1.000  C
  C192     1.0000 0.55540  0.16290  0.50870  Biso   1.000  C
  S1       1.0000 0.47961  0.66484  0.80913  Biso   1.000  S
  S2       1.0000 0.35571  0.67048  0.69087  Biso   1.000  S
  S3       1.0000 0.14429  0.83516  0.31477  Biso   1.000  S
  S4       1.0000 0.02039  0.82952  0.18523  Biso   1.000  S
  S5       1.0000 0.81477  0.14429  0.33516  Biso   1.000  S
  S6       1.0000 0.68523  0.02039  0.32952  Biso   1.000  S
  S7       1.0000 0.30913  0.47961  0.16484  Biso   1.000  S
  S8       1.0000 0.19087  0.35571  0.17048  Biso   1.000  S
  S9       1.0000 0.67048  0.19087  0.85571  Biso   1.000  S
  S10      1.0000 0.66484  0.30913  0.97961  Biso   1.000  S
  S11      1.0000 0.82952  0.68523  0.52039  Biso   1.000  S
  S12      1.0000 0.83516  0.81477  0.64429  Biso   1.000  S
  S13      1.0000 0.17048  0.85571  0.19087  Biso   1.000  S
  S14      1.0000 0.16484  0.97961  0.30913  Biso   1.000  S
  S15      1.0000 0.32952  0.52039  0.68523  Biso   1.000  S
  S16      1.0000 0.33516  0.64429  0.81477  Biso   1.000  S
  S17      1.0000 0.97961  0.80913  0.66484  Biso   1.000  S
  S18      1.0000 0.85571  0.69087  0.67048  Biso   1.000  S
  S19      1.0000 0.64429  0.31477  0.83516  Biso   1.000  S
  S20      1.0000 0.52039  0.18523  0.82952  Biso   1.000  S
  S21      1.0000 0.31477  0.33516  0.14429  Biso   1.000  S
  S22      1.0000 0.18523  0.32952  0.02039  Biso   1.000  S
  S23      1.0000 0.80913  0.16484  0.47961  Biso   1.000  S
  S24      1.0000 0.69087  0.17048  0.35571  Biso   1.000  S
  Br1      1.0000 0.49430  0.78187  0.96383  Biso   1.000  Br
  Br2      1.0000 0.31804  0.53047  0.53617  Biso   1.000  Br
  Br3      1.0000 0.18196  0.71813  0.21243  Biso   1.000  Br
  Br4      1.0000 0.00570  0.96953  0.28757  Biso   1.000  Br
  Br5      1.0000 0.71243  0.18196  0.21813  Biso   1.000  Br
  Br6      1.0000 0.78757  0.00570  0.46953  Biso   1.000  Br
  Br7      1.0000 0.46383  0.49430  0.28187  Biso   1.000  Br
  Br8      1.0000 0.03617  0.31804  0.03047  Biso   1.000  Br
  Br9      1.0000 0.53047  0.03617  0.81804  Biso   1.000  Br
  Br10     1.0000 0.78187  0.46383  0.99430  Biso   1.000  Br
  Br11     1.0000 0.96953  0.78757  0.50570  Biso   1.000  Br
  Br12     1.0000 0.71813  0.71243  0.68196  Biso   1.000  Br
  Br13     1.0000 0.03047  0.81804  0.03617  Biso   1.000  Br
  Br14     1.0000 0.28187  0.99430  0.46383  Biso   1.000  Br
  Br15     1.0000 0.46953  0.50570  0.78757  Biso   1.000  Br
  Br16     1.0000 0.21813  0.68196  0.71243  Biso   1.000  Br
  Br17     1.0000 0.99430  0.96383  0.78187  Biso   1.000  Br
  Br18     1.0000 0.81804  0.53617  0.53047  Biso   1.000  Br
  Br19     1.0000 0.68196  0.21243  0.71813  Biso   1.000  Br
  Br20     1.0000 0.50570  0.28757  0.96953  Biso   1.000  Br
  Br21     1.0000 0.21243  0.21813  0.18196  Biso   1.000  Br
  Br22     1.0000 0.28757  0.46953  0.00570  Biso   1.000  Br
  Br23     1.0000 0.96383  0.28187  0.49430  Biso   1.000  Br
  Br24     1.0000 0.53617  0.03047  0.31804  Biso   1.000  Br
  N1       1.0000 0.43630  0.62280  0.91770  Biso   1.000  N
  N2       1.0000 0.45280  0.56620  0.96120  Biso   1.000  N
  N3       1.0000 0.50990  0.51460  0.95570  Biso   1.000  N
  N4       1.0000 0.51150  0.81060  0.80530  Biso   1.000  N
  N5       1.0000 0.57100  0.90370  0.88290  Biso   1.000  N
  N6       1.0000 0.61330  0.93880  0.98670  Biso   1.000  N
  N7       1.0000 0.20510  0.51860  0.58230  Biso   1.000  N
  N8       1.0000 0.10500  0.49160  0.53880  Biso   1.000  N
  N9       1.0000 0.05890  0.55420  0.54430  Biso   1.000  N
  N10      1.0000 0.50530  0.70620  0.69470  Biso   1.000  N
  N11      1.0000 0.52080  0.68810  0.61710  Biso   1.000  N
  N12      1.0000 0.45210  0.62660  0.51330  Biso   1.000  N
  N13      1.0000 0.29490  0.87720  0.31350  Biso   1.000  N
  N14      1.0000 0.39500  0.93380  0.38660  Biso   1.000  N
  N15      1.0000 0.44110  0.98540  0.49530  Biso   1.000  N
  N16      1.0000 0.99470  0.68940  0.20090  Biso   1.000  N
  N17      1.0000 0.97920  0.59630  0.16730  Biso   1.000  N
  N18      1.0000 0.04790  0.56120  0.17450  Biso   1.000  N
  N19      1.0000 0.06370  0.98140  0.18650  Biso   1.000  N
  N20      1.0000 0.04720  0.00840  0.11340  Biso   1.000  N
  N21      1.0000 0.99010  0.94580  0.00470  Biso   1.000  N
  N22      1.0000 0.98850  0.79380  0.29910  Biso   1.000  N
  N23      1.0000 0.92900  0.81190  0.33270  Biso   1.000  N
  N24      1.0000 0.88670  0.87340  0.32550  Biso   1.000  N
  N25      1.0000 0.81350  0.29490  0.37720  Biso   1.000  N
  N26      1.0000 0.88660  0.39500  0.43380  Biso   1.000  N
  N27      1.0000 0.99530  0.44110  0.48540  Biso   1.000  N
  N28      1.0000 0.70090  0.99470  0.18940  Biso   1.000  N
  N29      1.0000 0.66730  0.97920  0.09630  Biso   1.000  N
  N30      1.0000 0.67450  0.04790  0.06120  Biso   1.000  N
  N31      1.0000 0.68650  0.06370  0.48140  Biso   1.000  N
  N32      1.0000 0.61340  0.04720  0.50840  Biso   1.000  N
  N33      1.0000 0.50470  0.99010  0.44580  Biso   1.000  N
  N34      1.0000 0.79910  0.98850  0.29380  Biso   1.000  N
  N35      1.0000 0.83270  0.92900  0.31190  Biso   1.000  N
  N36      1.0000 0.82550  0.88670  0.37340  Biso   1.000  N
  N37      1.0000 0.41770  0.43630  0.12280  Biso   1.000  N
  N38      1.0000 0.46120  0.45280  0.06620  Biso   1.000  N
  N39      1.0000 0.45570  0.50990  0.01460  Biso   1.000  N
  N40      1.0000 0.30530  0.51150  0.31060  Biso   1.000  N
  N41      1.0000 0.38290  0.57100  0.40370  Biso   1.000  N
  N42      1.0000 0.48670  0.61330  0.43880  Biso   1.000  N
  N43      1.0000 0.08230  0.20510  0.01860  Biso   1.000  N
  N44      1.0000 0.03880  0.10500  0.99160  Biso   1.000  N
  N45      1.0000 0.04430  0.05890  0.05420  Biso   1.000  N
  N46      1.0000 0.19470  0.50530  0.20620  Biso   1.000  N
  N47      1.0000 0.11710  0.52080  0.18810  Biso   1.000  N
  N48      1.0000 0.01330  0.45210  0.12660  Biso   1.000  N
  N49      1.0000 0.51860  0.08230  0.70510  Biso   1.000  N
  N50      1.0000 0.49160  0.03880  0.60500  Biso   1.000  N
  N51      1.0000 0.55420  0.04430  0.55890  Biso   1.000  N
  N52      1.0000 0.70620  0.19470  0.00530  Biso   1.000  N
  N53      1.0000 0.68810  0.11710  0.02080  Biso   1.000  N
  N54      1.0000 0.62660  0.01330  0.95210  Biso   1.000  N
  N55      1.0000 0.62280  0.41770  0.93630  Biso   1.000  N
  N56      1.0000 0.56620  0.46120  0.95280  Biso   1.000  N
  N57      1.0000 0.51460  0.45570  0.00990  Biso   1.000  N
  N58      1.0000 0.81060  0.30530  0.01150  Biso   1.000  N
  N59      1.0000 0.90370  0.38290  0.07100  Biso   1.000  N
  N60      1.0000 0.93880  0.48670  0.11330  Biso   1.000  N
  N61      1.0000 0.98140  0.68650  0.56370  Biso   1.000  N
  N62      1.0000 0.00840  0.61340  0.54720  Biso   1.000  N
  N63      1.0000 0.94580  0.50470  0.49010  Biso   1.000  N
  N64      1.0000 0.79380  0.79910  0.48850  Biso   1.000  N
  N65      1.0000 0.81190  0.83270  0.42900  Biso   1.000  N
  N66      1.0000 0.87340  0.82550  0.38670  Biso   1.000  N
  N67      1.0000 0.87720  0.81350  0.79490  Biso   1.000  N
  N68      1.0000 0.93380  0.88660  0.89500  Biso   1.000  N
  N69      1.0000 0.98540  0.99530  0.94110  Biso   1.000  N
  N70      1.0000 0.68940  0.70090  0.49470  Biso   1.000  N
  N71      1.0000 0.59630  0.66730  0.47920  Biso   1.000  N
  N72      1.0000 0.56120  0.67450  0.54790  Biso   1.000  N
  N73      1.0000 0.01860  0.70510  0.08230  Biso   1.000  N
  N74      1.0000 0.99160  0.60500  0.03880  Biso   1.000  N
  N75      1.0000 0.05420  0.55890  0.04430  Biso   1.000  N
  N76      1.0000 0.20620  0.00530  0.19470  Biso   1.000  N
  N77      1.0000 0.18810  0.02080  0.11710  Biso   1.000  N
  N78      1.0000 0.12660  0.95210  0.01330  Biso   1.000  N
  N79      1.0000 0.12280  0.93630  0.41770  Biso   1.000  N
  N80      1.0000 0.06620  0.95280  0.46120  Biso   1.000  N
  N81      1.0000 0.01460  0.00990  0.45570  Biso   1.000  N
  N82      1.0000 0.31060  0.01150  0.30530  Biso   1.000  N
  N83      1.0000 0.40370  0.07100  0.38290  Biso   1.000  N
  N84      1.0000 0.43880  0.11330  0.48670  Biso   1.000  N
  N85      1.0000 0.48140  0.56370  0.68650  Biso   1.000  N
  N86      1.0000 0.50840  0.54720  0.61340  Biso   1.000  N
  N87      1.0000 0.44580  0.49010  0.50470  Biso   1.000  N
  N88      1.0000 0.29380  0.48850  0.79910  Biso   1.000  N
  N89      1.0000 0.31190  0.42900  0.83270  Biso   1.000  N
  N90      1.0000 0.37340  0.38670  0.82550  Biso   1.000  N
  N91      1.0000 0.37720  0.79490  0.81350  Biso   1.000  N
  N92      1.0000 0.43380  0.89500  0.88660  Biso   1.000  N
  N93      1.0000 0.48540  0.94110  0.99530  Biso   1.000  N
  N94      1.0000 0.18940  0.49470  0.70090  Biso   1.000  N
  N95      1.0000 0.09630  0.47920  0.66730  Biso   1.000  N
  N96      1.0000 0.06120  0.54790  0.67450  Biso   1.000  N
  N97      1.0000 0.93630  0.91770  0.62280  Biso   1.000  N
  N98      1.0000 0.95280  0.96120  0.56620  Biso   1.000  N
  N99      1.0000 0.00990  0.95570  0.51460  Biso   1.000  N
  N100     1.0000 0.01150  0.80530  0.81060  Biso   1.000  N
  N101     1.0000 0.07100  0.88290  0.90370  Biso   1.000  N
  N102     1.0000 0.11330  0.98670  0.93880  Biso   1.000  N
  N103     1.0000 0.70510  0.58230  0.51860  Biso   1.000  N
  N104     1.0000 0.60500  0.53880  0.49160  Biso   1.000  N
  N105     1.0000 0.55890  0.54430  0.55420  Biso   1.000  N
  N106     1.0000 0.00530  0.69470  0.70620  Biso   1.000  N
  N107     1.0000 0.02080  0.61710  0.68810  Biso   1.000  N
  N108     1.0000 0.95210  0.51330  0.62660  Biso   1.000  N
  N109     1.0000 0.79490  0.31350  0.87720  Biso   1.000  N
  N110     1.0000 0.89500  0.38660  0.93380  Biso   1.000  N
  N111     1.0000 0.94110  0.49530  0.98540  Biso   1.000  N
  N112     1.0000 0.49470  0.20090  0.68940  Biso   1.000  N
  N113     1.0000 0.47920  0.16730  0.59630  Biso   1.000  N
  N114     1.0000 0.54790  0.17450  0.56120  Biso   1.000  N
  N115     1.0000 0.56370  0.18650  0.98140  Biso   1.000  N
  N116     1.0000 0.54720  0.11340  0.00840  Biso   1.000  N
  N117     1.0000 0.49010  0.00470  0.94580  Biso   1.000  N
  N118     1.0000 0.48850  0.29910  0.79380  Biso   1.000  N
  N119     1.0000 0.42900  0.33270  0.81190  Biso   1.000  N
  N120     1.0000 0.38670  0.32550  0.87340  Biso   1.000  N
  N121     1.0000 0.31350  0.37720  0.29490  Biso   1.000  N
  N122     1.0000 0.38660  0.43380  0.39500  Biso   1.000  N
  N123     1.0000 0.49530  0.48540  0.44110  Biso   1.000  N
  N124     1.0000 0.20090  0.18940  0.99470  Biso   1.000  N
  N125     1.0000 0.16730  0.09630  0.97920  Biso   1.000  N
  N126     1.0000 0.17450  0.06120  0.04790  Biso   1.000  N
  N127     1.0000 0.18650  0.48140  0.06370  Biso   1.000  N
  N128     1.0000 0.11340  0.50840  0.04720  Biso   1.000  N
  N129     1.0000 0.00470  0.44580  0.99010  Biso   1.000  N
  N130     1.0000 0.29910  0.29380  0.98850  Biso   1.000  N
  N131     1.0000 0.33270  0.31190  0.92900  Biso   1.000  N
  N132     1.0000 0.32550  0.37340  0.88670  Biso   1.000  N
  N133     1.0000 0.91770  0.12280  0.43630  Biso   1.000  N
  N134     1.0000 0.96120  0.06620  0.45280  Biso   1.000  N
  N135     1.0000 0.95570  0.01460  0.50990  Biso   1.000  N
  N136     1.0000 0.80530  0.31060  0.51150  Biso   1.000  N
  N137     1.0000 0.88290  0.40370  0.57100  Biso   1.000  N
  N138     1.0000 0.98670  0.43880  0.61330  Biso   1.000  N
  N139     1.0000 0.58230  0.01860  0.20510  Biso   1.000  N
  N140     1.0000 0.53880  0.99160  0.10500  Biso   1.000  N
  N141     1.0000 0.54430  0.05420  0.05890  Biso   1.000  N
  N142     1.0000 0.69470  0.20620  0.50530  Biso   1.000  N
  N143     1.0000 0.61710  0.18810  0.52080  Biso   1.000  N
  N144     1.0000 0.51330  0.12660  0.45210  Biso   1.000  N
