data_image0
_cell_length_a       24.623
_cell_length_b       12.866
_cell_length_c       14.868
_cell_angle_alpha    90
_cell_angle_beta     96.78
_cell_angle_gamma    90

_symmetry_space_group_name_H-M    "P 1"
_symmetry_int_tables_number       1

loop_
  _symmetry_equiv_pos_as_xyz
  'x, y, z'

loop_
  _atom_site_label
  _atom_site_occupancy
  _atom_site_fract_x
  _atom_site_fract_y
  _atom_site_fract_z
  _atom_site_thermal_displace_type
  _atom_site_B_iso_or_equiv
  _atom_site_type_symbol
  Eu1      1.0000 0.67217  0.79764  0.46679  Biso   1.000  Eu
  O1       1.0000 0.30739  0.74140  0.88105  Biso   1.000  O
  O2       1.0000 0.22886  0.65280  0.85310  Biso   1.000  O
  O3       1.0000 0.27461  0.35500  0.53957  Biso   1.000  O
  O4       1.0000 0.20259  0.44950  0.55800  Biso   1.000  O
  O5       1.0000 0.58707  0.83120  0.53650  Biso   1.000  O
  O6       1.0000 0.60086  0.66940  0.49860  Biso   1.000  O
  C1       1.0000 0.29780  0.62730  0.75670  Biso   1.000  C
  C2       1.0000 0.26595  0.55780  0.70250  Biso   1.000  C
  H1       1.0000 0.23010  0.54460  0.71320  Biso   1.000  H
  C3       1.0000 0.28763  0.50770  0.63180  Biso   1.000  C
  C4       1.0000 0.34099  0.52900  0.61460  Biso   1.000  C
  H2       1.0000 0.35590  0.49280  0.56930  Biso   1.000  H
  C5       1.0000 0.37216  0.60410  0.66490  Biso   1.000  C
  C6       1.0000 0.35016  0.65180  0.73720  Biso   1.000  C
  H3       1.0000 0.37080  0.70040  0.77270  Biso   1.000  H
  C7       1.0000 0.42630  0.63630  0.63950  Biso   1.000  C
  C8       1.0000 0.44156  0.74090  0.64310  Biso   1.000  C
  H4       1.0000 0.41910  0.78970  0.66640  Biso   1.000  H
  C9       1.0000 0.49030  0.77260  0.61210  Biso   1.000  C
  H5       1.0000 0.50020  0.84240  0.61540  Biso   1.000  H
  C10      1.0000 0.52377  0.70210  0.57690  Biso   1.000  C
  C11      1.0000 0.51007  0.59850  0.57750  Biso   1.000  C
  H6       1.0000 0.53360  0.54950  0.55730  Biso   1.000  H
  C12      1.0000 0.46138  0.56560  0.60800  Biso   1.000  C
  H7       1.0000 0.45260  0.49530  0.60700  Biso   1.000  H
  C13      1.0000 0.27629  0.67770  0.83730  Biso   1.000  C
  C14      1.0000 0.25266  0.43240  0.57320  Biso   1.000  C
  C15      1.0000 0.57362  0.73590  0.53470  Biso   1.000  C
  O7       1.0000 0.62540  0.73570  0.32300  Biso   1.000  O
  N1       1.0000 0.61030  0.65510  0.18440  Biso   1.000  N
  C16      1.0000 0.64580  0.69580  0.25310  Biso   1.000  C
  H8       1.0000 0.68340  0.69520  0.25030  Biso   1.000  H
  C17      1.0000 0.55700  0.66620  0.18230  Biso   1.000  C
  H9       1.0000 0.53890  0.63120  0.13010  Biso   1.000  H
  H10      1.0000 0.54780  0.73870  0.17930  Biso   1.000  H
  H11      1.0000 0.54530  0.63660  0.23610  Biso   1.000  H
  C18      1.0000 0.63920  0.60220  0.12080  Biso   1.000  C
  H12      1.0000 0.67760  0.60250  0.14180  Biso   1.000  H
  H13      1.0000 0.63310  0.63670  0.06320  Biso   1.000  H
  H14      1.0000 0.62650  0.53180  0.11440  Biso   1.000  H
  O8       1.0000 0.62750  0.95110  0.39070  Biso   1.000  O
  H15      1.0000 0.59130  0.96300  0.35500  Biso   1.000  H
  H16      1.0000 0.64800  0.01800  0.39900  Biso   1.000  H
  H17      1.0000 0.63600  0.66900  0.29600  Biso   1.000  H
  H18      1.0000 0.61300  0.78300  0.27000  Biso   1.000  H
  Eu2      1.0000 0.17217  0.29764  0.46679  Biso   1.000  Eu
  O9       1.0000 0.80739  0.24140  0.88105  Biso   1.000  O
  O10      1.0000 0.72886  0.15280  0.85310  Biso   1.000  O
  O11      1.0000 0.77461  0.85500  0.53957  Biso   1.000  O
  O12      1.0000 0.70259  0.94950  0.55800  Biso   1.000  O
  O13      1.0000 0.08707  0.33120  0.53650  Biso   1.000  O
  O14      1.0000 0.10086  0.16940  0.49860  Biso   1.000  O
  C19      1.0000 0.79780  0.12730  0.75670  Biso   1.000  C
  C20      1.0000 0.76595  0.05780  0.70250  Biso   1.000  C
  H19      1.0000 0.73010  0.04460  0.71320  Biso   1.000  H
  C21      1.0000 0.78763  0.00770  0.63180  Biso   1.000  C
  C22      1.0000 0.84099  0.02900  0.61460  Biso   1.000  C
  H20      1.0000 0.85590  0.99280  0.56930  Biso   1.000  H
  C23      1.0000 0.87216  0.10410  0.66490  Biso   1.000  C
  C24      1.0000 0.85016  0.15180  0.73720  Biso   1.000  C
  H21      1.0000 0.87080  0.20040  0.77270  Biso   1.000  H
  C25      1.0000 0.92630  0.13630  0.63950  Biso   1.000  C
  C26      1.0000 0.94156  0.24090  0.64310  Biso   1.000  C
  H22      1.0000 0.91910  0.28970  0.66640  Biso   1.000  H
  C27      1.0000 0.99030  0.27260  0.61210  Biso   1.000  C
  H23      1.0000 0.00020  0.34240  0.61540  Biso   1.000  H
  C28      1.0000 0.02377  0.20210  0.57690  Biso   1.000  C
  C29      1.0000 0.01007  0.09850  0.57750  Biso   1.000  C
  H24      1.0000 0.03360  0.04950  0.55730  Biso   1.000  H
  C30      1.0000 0.96138  0.06560  0.60800  Biso   1.000  C
  H25      1.0000 0.95260  0.99530  0.60700  Biso   1.000  H
  C31      1.0000 0.77629  0.17770  0.83730  Biso   1.000  C
  C32      1.0000 0.75266  0.93240  0.57320  Biso   1.000  C
  C33      1.0000 0.07362  0.23590  0.53470  Biso   1.000  C
  O15      1.0000 0.12540  0.23570  0.32300  Biso   1.000  O
  N2       1.0000 0.11030  0.15510  0.18440  Biso   1.000  N
  C34      1.0000 0.14580  0.19580  0.25310  Biso   1.000  C
  H26      1.0000 0.18340  0.19520  0.25030  Biso   1.000  H
  C35      1.0000 0.05700  0.16620  0.18230  Biso   1.000  C
  H27      1.0000 0.03890  0.13120  0.13010  Biso   1.000  H
  H28      1.0000 0.04780  0.23870  0.17930  Biso   1.000  H
  H29      1.0000 0.04530  0.13660  0.23610  Biso   1.000  H
  C36      1.0000 0.13920  0.10220  0.12080  Biso   1.000  C
  H30      1.0000 0.17760  0.10250  0.14180  Biso   1.000  H
  H31      1.0000 0.13310  0.13670  0.06320  Biso   1.000  H
  H32      1.0000 0.12650  0.03180  0.11440  Biso   1.000  H
  O16      1.0000 0.12750  0.45110  0.39070  Biso   1.000  O
  H33      1.0000 0.09130  0.46300  0.35500  Biso   1.000  H
  H34      1.0000 0.14800  0.51800  0.39900  Biso   1.000  H
  H35      1.0000 0.13600  0.16900  0.29600  Biso   1.000  H
  H36      1.0000 0.11300  0.28300  0.27000  Biso   1.000  H
  Eu3      1.0000 0.32783  0.79764  0.03321  Biso   1.000  Eu
  O17      1.0000 0.69261  0.74140  0.61895  Biso   1.000  O
  O18      1.0000 0.77114  0.65280  0.64690  Biso   1.000  O
  O19      1.0000 0.72539  0.35500  0.96043  Biso   1.000  O
  O20      1.0000 0.79741  0.44950  0.94200  Biso   1.000  O
  O21      1.0000 0.41293  0.83120  0.96350  Biso   1.000  O
  O22      1.0000 0.39914  0.66940  0.00140  Biso   1.000  O
  C37      1.0000 0.70220  0.62730  0.74330  Biso   1.000  C
  C38      1.0000 0.73405  0.55780  0.79750  Biso   1.000  C
  H37      1.0000 0.76990  0.54460  0.78680  Biso   1.000  H
  C39      1.0000 0.71237  0.50770  0.86820  Biso   1.000  C
  C40      1.0000 0.65901  0.52900  0.88540  Biso   1.000  C
  H38      1.0000 0.64410  0.49280  0.93070  Biso   1.000  H
  C41      1.0000 0.62784  0.60410  0.83510  Biso   1.000  C
  C42      1.0000 0.64984  0.65180  0.76280  Biso   1.000  C
  H39      1.0000 0.62920  0.70040  0.72730  Biso   1.000  H
  C43      1.0000 0.57370  0.63630  0.86050  Biso   1.000  C
  C44      1.0000 0.55844  0.74090  0.85690  Biso   1.000  C
  H40      1.0000 0.58090  0.78970  0.83360  Biso   1.000  H
  C45      1.0000 0.50970  0.77260  0.88790  Biso   1.000  C
  H41      1.0000 0.49980  0.84240  0.88460  Biso   1.000  H
  C46      1.0000 0.47623  0.70210  0.92310  Biso   1.000  C
  C47      1.0000 0.48993  0.59850  0.92250  Biso   1.000  C
  H42      1.0000 0.46640  0.54950  0.94270  Biso   1.000  H
  C48      1.0000 0.53862  0.56560  0.89200  Biso   1.000  C
  H43      1.0000 0.54740  0.49530  0.89300  Biso   1.000  H
  C49      1.0000 0.72371  0.67770  0.66270  Biso   1.000  C
  C50      1.0000 0.74734  0.43240  0.92680  Biso   1.000  C
  C51      1.0000 0.42638  0.73590  0.96530  Biso   1.000  C
  O23      1.0000 0.37460  0.73570  0.17700  Biso   1.000  O
  N3       1.0000 0.38970  0.65510  0.31560  Biso   1.000  N
  C52      1.0000 0.35420  0.69580  0.24690  Biso   1.000  C
  H44      1.0000 0.31660  0.69520  0.24970  Biso   1.000  H
  C53      1.0000 0.44300  0.66620  0.31770  Biso   1.000  C
  H45      1.0000 0.46110  0.63120  0.36990  Biso   1.000  H
  H46      1.0000 0.45220  0.73870  0.32070  Biso   1.000  H
  H47      1.0000 0.45470  0.63660  0.26390  Biso   1.000  H
  C54      1.0000 0.36080  0.60220  0.37920  Biso   1.000  C
  H48      1.0000 0.32240  0.60250  0.35820  Biso   1.000  H
  H49      1.0000 0.36690  0.63670  0.43680  Biso   1.000  H
  H50      1.0000 0.37350  0.53180  0.38560  Biso   1.000  H
  O24      1.0000 0.37250  0.95110  0.10930  Biso   1.000  O
  H51      1.0000 0.40870  0.96300  0.14500  Biso   1.000  H
  H52      1.0000 0.35200  0.01800  0.10100  Biso   1.000  H
  H53      1.0000 0.36400  0.66900  0.20400  Biso   1.000  H
  H54      1.0000 0.38700  0.78300  0.23000  Biso   1.000  H
  Eu4      1.0000 0.82783  0.29764  0.03321  Biso   1.000  Eu
  O25      1.0000 0.19261  0.24140  0.61895  Biso   1.000  O
  O26      1.0000 0.27114  0.15280  0.64690  Biso   1.000  O
  O27      1.0000 0.22539  0.85500  0.96043  Biso   1.000  O
  O28      1.0000 0.29741  0.94950  0.94200  Biso   1.000  O
  O29      1.0000 0.91293  0.33120  0.96350  Biso   1.000  O
  O30      1.0000 0.89914  0.16940  0.00140  Biso   1.000  O
  C55      1.0000 0.20220  0.12730  0.74330  Biso   1.000  C
  C56      1.0000 0.23405  0.05780  0.79750  Biso   1.000  C
  H55      1.0000 0.26990  0.04460  0.78680  Biso   1.000  H
  C57      1.0000 0.21237  0.00770  0.86820  Biso   1.000  C
  C58      1.0000 0.15901  0.02900  0.88540  Biso   1.000  C
  H56      1.0000 0.14410  0.99280  0.93070  Biso   1.000  H
  C59      1.0000 0.12784  0.10410  0.83510  Biso   1.000  C
  C60      1.0000 0.14984  0.15180  0.76280  Biso   1.000  C
  H57      1.0000 0.12920  0.20040  0.72730  Biso   1.000  H
  C61      1.0000 0.07370  0.13630  0.86050  Biso   1.000  C
  C62      1.0000 0.05844  0.24090  0.85690  Biso   1.000  C
  H58      1.0000 0.08090  0.28970  0.83360  Biso   1.000  H
  C63      1.0000 0.00970  0.27260  0.88790  Biso   1.000  C
  H59      1.0000 0.99980  0.34240  0.88460  Biso   1.000  H
  C64      1.0000 0.97623  0.20210  0.92310  Biso   1.000  C
  C65      1.0000 0.98993  0.09850  0.92250  Biso   1.000  C
  H60      1.0000 0.96640  0.04950  0.94270  Biso   1.000  H
  C66      1.0000 0.03862  0.06560  0.89200  Biso   1.000  C
  H61      1.0000 0.04740  0.99530  0.89300  Biso   1.000  H
  C67      1.0000 0.22371  0.17770  0.66270  Biso   1.000  C
  C68      1.0000 0.24734  0.93240  0.92680  Biso   1.000  C
  C69      1.0000 0.92638  0.23590  0.96530  Biso   1.000  C
  O31      1.0000 0.87460  0.23570  0.17700  Biso   1.000  O
  N4       1.0000 0.88970  0.15510  0.31560  Biso   1.000  N
  C70      1.0000 0.85420  0.19580  0.24690  Biso   1.000  C
  H62      1.0000 0.81660  0.19520  0.24970  Biso   1.000  H
  C71      1.0000 0.94300  0.16620  0.31770  Biso   1.000  C
  H63      1.0000 0.96110  0.13120  0.36990  Biso   1.000  H
  H64      1.0000 0.95220  0.23870  0.32070  Biso   1.000  H
  H65      1.0000 0.95470  0.13660  0.26390  Biso   1.000  H
  C72      1.0000 0.86080  0.10220  0.37920  Biso   1.000  C
  H66      1.0000 0.82240  0.10250  0.35820  Biso   1.000  H
  H67      1.0000 0.86690  0.13670  0.43680  Biso   1.000  H
  H68      1.0000 0.87350  0.03180  0.38560  Biso   1.000  H
  O32      1.0000 0.87250  0.45110  0.10930  Biso   1.000  O
  H69      1.0000 0.90870  0.46300  0.14500  Biso   1.000  H
  H70      1.0000 0.85200  0.51800  0.10100  Biso   1.000  H
  H71      1.0000 0.86400  0.16900  0.20400  Biso   1.000  H
  H72      1.0000 0.88700  0.28300  0.23000  Biso   1.000  H
  Eu5      1.0000 0.32783  0.20236  0.53321  Biso   1.000  Eu
  O33      1.0000 0.69261  0.25860  0.11895  Biso   1.000  O
  O34      1.0000 0.77114  0.34720  0.14690  Biso   1.000  O
  O35      1.0000 0.72539  0.64500  0.46043  Biso   1.000  O
  O36      1.0000 0.79741  0.55050  0.44200  Biso   1.000  O
  O37      1.0000 0.41293  0.16880  0.46350  Biso   1.000  O
  O38      1.0000 0.39914  0.33060  0.50140  Biso   1.000  O
  C73      1.0000 0.70220  0.37270  0.24330  Biso   1.000  C
  C74      1.0000 0.73405  0.44220  0.29750  Biso   1.000  C
  H73      1.0000 0.76990  0.45540  0.28680  Biso   1.000  H
  C75      1.0000 0.71237  0.49230  0.36820  Biso   1.000  C
  C76      1.0000 0.65901  0.47100  0.38540  Biso   1.000  C
  H74      1.0000 0.64410  0.50720  0.43070  Biso   1.000  H
  C77      1.0000 0.62784  0.39590  0.33510  Biso   1.000  C
  C78      1.0000 0.64984  0.34820  0.26280  Biso   1.000  C
  H75      1.0000 0.62920  0.29960  0.22730  Biso   1.000  H
  C79      1.0000 0.57370  0.36370  0.36050  Biso   1.000  C
  C80      1.0000 0.55844  0.25910  0.35690  Biso   1.000  C
  H76      1.0000 0.58090  0.21030  0.33360  Biso   1.000  H
  C81      1.0000 0.50970  0.22740  0.38790  Biso   1.000  C
  H77      1.0000 0.49980  0.15760  0.38460  Biso   1.000  H
  C82      1.0000 0.47623  0.29790  0.42310  Biso   1.000  C
  C83      1.0000 0.48993  0.40150  0.42250  Biso   1.000  C
  H78      1.0000 0.46640  0.45050  0.44270  Biso   1.000  H
  C84      1.0000 0.53862  0.43440  0.39200  Biso   1.000  C
  H79      1.0000 0.54740  0.50470  0.39300  Biso   1.000  H
  C85      1.0000 0.72371  0.32230  0.16270  Biso   1.000  C
  C86      1.0000 0.74734  0.56760  0.42680  Biso   1.000  C
  C87      1.0000 0.42638  0.26410  0.46530  Biso   1.000  C
  O39      1.0000 0.37460  0.26430  0.67700  Biso   1.000  O
  N5       1.0000 0.38970  0.34490  0.81560  Biso   1.000  N
  C88      1.0000 0.35420  0.30420  0.74690  Biso   1.000  C
  H80      1.0000 0.31660  0.30480  0.74970  Biso   1.000  H
  C89      1.0000 0.44300  0.33380  0.81770  Biso   1.000  C
  H81      1.0000 0.46110  0.36880  0.86990  Biso   1.000  H
  H82      1.0000 0.45220  0.26130  0.82070  Biso   1.000  H
  H83      1.0000 0.45470  0.36340  0.76390  Biso   1.000  H
  C90      1.0000 0.36080  0.39780  0.87920  Biso   1.000  C
  H84      1.0000 0.32240  0.39750  0.85820  Biso   1.000  H
  H85      1.0000 0.36690  0.36330  0.93680  Biso   1.000  H
  H86      1.0000 0.37350  0.46820  0.88560  Biso   1.000  H
  O40      1.0000 0.37250  0.04890  0.60930  Biso   1.000  O
  H87      1.0000 0.40870  0.03700  0.64500  Biso   1.000  H
  H88      1.0000 0.35200  0.98200  0.60100  Biso   1.000  H
  H89      1.0000 0.36400  0.33100  0.70400  Biso   1.000  H
  H90      1.0000 0.38700  0.21700  0.73000  Biso   1.000  H
  Eu6      1.0000 0.82783  0.70236  0.53321  Biso   1.000  Eu
  O41      1.0000 0.19261  0.75860  0.11895  Biso   1.000  O
  O42      1.0000 0.27114  0.84720  0.14690  Biso   1.000  O
  O43      1.0000 0.22539  0.14500  0.46043  Biso   1.000  O
  O44      1.0000 0.29741  0.05050  0.44200  Biso   1.000  O
  O45      1.0000 0.91293  0.66880  0.46350  Biso   1.000  O
  O46      1.0000 0.89914  0.83060  0.50140  Biso   1.000  O
  C91      1.0000 0.20220  0.87270  0.24330  Biso   1.000  C
  C92      1.0000 0.23405  0.94220  0.29750  Biso   1.000  C
  H91      1.0000 0.26990  0.95540  0.28680  Biso   1.000  H
  C93      1.0000 0.21237  0.99230  0.36820  Biso   1.000  C
  C94      1.0000 0.15901  0.97100  0.38540  Biso   1.000  C
  H92      1.0000 0.14410  0.00720  0.43070  Biso   1.000  H
  C95      1.0000 0.12784  0.89590  0.33510  Biso   1.000  C
  C96      1.0000 0.14984  0.84820  0.26280  Biso   1.000  C
  H93      1.0000 0.12920  0.79960  0.22730  Biso   1.000  H
  C97      1.0000 0.07370  0.86370  0.36050  Biso   1.000  C
  C98      1.0000 0.05844  0.75910  0.35690  Biso   1.000  C
  H94      1.0000 0.08090  0.71030  0.33360  Biso   1.000  H
  C99      1.0000 0.00970  0.72740  0.38790  Biso   1.000  C
  H95      1.0000 0.99980  0.65760  0.38460  Biso   1.000  H
  C100     1.0000 0.97623  0.79790  0.42310  Biso   1.000  C
  C101     1.0000 0.98993  0.90150  0.42250  Biso   1.000  C
  H96      1.0000 0.96640  0.95050  0.44270  Biso   1.000  H
  C102     1.0000 0.03862  0.93440  0.39200  Biso   1.000  C
  H97      1.0000 0.04740  0.00470  0.39300  Biso   1.000  H
  C103     1.0000 0.22371  0.82230  0.16270  Biso   1.000  C
  C104     1.0000 0.24734  0.06760  0.42680  Biso   1.000  C
  C105     1.0000 0.92638  0.76410  0.46530  Biso   1.000  C
  O47      1.0000 0.87460  0.76430  0.67700  Biso   1.000  O
  N6       1.0000 0.88970  0.84490  0.81560  Biso   1.000  N
  C106     1.0000 0.85420  0.80420  0.74690  Biso   1.000  C
  H98      1.0000 0.81660  0.80480  0.74970  Biso   1.000  H
  C107     1.0000 0.94300  0.83380  0.81770  Biso   1.000  C
  H99      1.0000 0.96110  0.86880  0.86990  Biso   1.000  H
  H100     1.0000 0.95220  0.76130  0.82070  Biso   1.000  H
  H101     1.0000 0.95470  0.86340  0.76390  Biso   1.000  H
  C108     1.0000 0.86080  0.89780  0.87920  Biso   1.000  C
  H102     1.0000 0.82240  0.89750  0.85820  Biso   1.000  H
  H103     1.0000 0.86690  0.86330  0.93680  Biso   1.000  H
  H104     1.0000 0.87350  0.96820  0.88560  Biso   1.000  H
  O48      1.0000 0.87250  0.54890  0.60930  Biso   1.000  O
  H105     1.0000 0.90870  0.53700  0.64500  Biso   1.000  H
  H106     1.0000 0.85200  0.48200  0.60100  Biso   1.000  H
  H107     1.0000 0.86400  0.83100  0.70400  Biso   1.000  H
  H108     1.0000 0.88700  0.71700  0.73000  Biso   1.000  H
  Eu7      1.0000 0.67217  0.20236  0.96679  Biso   1.000  Eu
  O49      1.0000 0.30739  0.25860  0.38105  Biso   1.000  O
  O50      1.0000 0.22886  0.34720  0.35310  Biso   1.000  O
  O51      1.0000 0.27461  0.64500  0.03957  Biso   1.000  O
  O52      1.0000 0.20259  0.55050  0.05800  Biso   1.000  O
  O53      1.0000 0.58707  0.16880  0.03650  Biso   1.000  O
  O54      1.0000 0.60086  0.33060  0.99860  Biso   1.000  O
  C109     1.0000 0.29780  0.37270  0.25670  Biso   1.000  C
  C110     1.0000 0.26595  0.44220  0.20250  Biso   1.000  C
  H109     1.0000 0.23010  0.45540  0.21320  Biso   1.000  H
  C111     1.0000 0.28763  0.49230  0.13180  Biso   1.000  C
  C112     1.0000 0.34099  0.47100  0.11460  Biso   1.000  C
  H110     1.0000 0.35590  0.50720  0.06930  Biso   1.000  H
  C113     1.0000 0.37216  0.39590  0.16490  Biso   1.000  C
  C114     1.0000 0.35016  0.34820  0.23720  Biso   1.000  C
  H111     1.0000 0.37080  0.29960  0.27270  Biso   1.000  H
  C115     1.0000 0.42630  0.36370  0.13950  Biso   1.000  C
  C116     1.0000 0.44156  0.25910  0.14310  Biso   1.000  C
  H112     1.0000 0.41910  0.21030  0.16640  Biso   1.000  H
  C117     1.0000 0.49030  0.22740  0.11210  Biso   1.000  C
  H113     1.0000 0.50020  0.15760  0.11540  Biso   1.000  H
  C118     1.0000 0.52377  0.29790  0.07690  Biso   1.000  C
  C119     1.0000 0.51007  0.40150  0.07750  Biso   1.000  C
  H114     1.0000 0.53360  0.45050  0.05730  Biso   1.000  H
  C120     1.0000 0.46138  0.43440  0.10800  Biso   1.000  C
  H115     1.0000 0.45260  0.50470  0.10700  Biso   1.000  H
  C121     1.0000 0.27629  0.32230  0.33730  Biso   1.000  C
  C122     1.0000 0.25266  0.56760  0.07320  Biso   1.000  C
  C123     1.0000 0.57362  0.26410  0.03470  Biso   1.000  C
  O55      1.0000 0.62540  0.26430  0.82300  Biso   1.000  O
  N7       1.0000 0.61030  0.34490  0.68440  Biso   1.000  N
  C124     1.0000 0.64580  0.30420  0.75310  Biso   1.000  C
  H116     1.0000 0.68340  0.30480  0.75030  Biso   1.000  H
  C125     1.0000 0.55700  0.33380  0.68230  Biso   1.000  C
  H117     1.0000 0.53890  0.36880  0.63010  Biso   1.000  H
  H118     1.0000 0.54780  0.26130  0.67930  Biso   1.000  H
  H119     1.0000 0.54530  0.36340  0.73610  Biso   1.000  H
  C126     1.0000 0.63920  0.39780  0.62080  Biso   1.000  C
  H120     1.0000 0.67760  0.39750  0.64180  Biso   1.000  H
  H121     1.0000 0.63310  0.36330  0.56320  Biso   1.000  H
  H122     1.0000 0.62650  0.46820  0.61440  Biso   1.000  H
  O56      1.0000 0.62750  0.04890  0.89070  Biso   1.000  O
  H123     1.0000 0.59130  0.03700  0.85500  Biso   1.000  H
  H124     1.0000 0.64800  0.98200  0.89900  Biso   1.000  H
  H125     1.0000 0.63600  0.33100  0.79600  Biso   1.000  H
  H126     1.0000 0.61300  0.21700  0.77000  Biso   1.000  H
  Eu8      1.0000 0.17217  0.70236  0.96679  Biso   1.000  Eu
  O57      1.0000 0.80739  0.75860  0.38105  Biso   1.000  O
  O58      1.0000 0.72886  0.84720  0.35310  Biso   1.000  O
  O59      1.0000 0.77461  0.14500  0.03957  Biso   1.000  O
  O60      1.0000 0.70259  0.05050  0.05800  Biso   1.000  O
  O61      1.0000 0.08707  0.66880  0.03650  Biso   1.000  O
  O62      1.0000 0.10086  0.83060  0.99860  Biso   1.000  O
  C127     1.0000 0.79780  0.87270  0.25670  Biso   1.000  C
  C128     1.0000 0.76595  0.94220  0.20250  Biso   1.000  C
  H127     1.0000 0.73010  0.95540  0.21320  Biso   1.000  H
  C129     1.0000 0.78763  0.99230  0.13180  Biso   1.000  C
  C130     1.0000 0.84099  0.97100  0.11460  Biso   1.000  C
  H128     1.0000 0.85590  0.00720  0.06930  Biso   1.000  H
  C131     1.0000 0.87216  0.89590  0.16490  Biso   1.000  C
  C132     1.0000 0.85016  0.84820  0.23720  Biso   1.000  C
  H129     1.0000 0.87080  0.79960  0.27270  Biso   1.000  H
  C133     1.0000 0.92630  0.86370  0.13950  Biso   1.000  C
  C134     1.0000 0.94156  0.75910  0.14310  Biso   1.000  C
  H130     1.0000 0.91910  0.71030  0.16640  Biso   1.000  H
  C135     1.0000 0.99030  0.72740  0.11210  Biso   1.000  C
  H131     1.0000 0.00020  0.65760  0.11540  Biso   1.000  H
  C136     1.0000 0.02377  0.79790  0.07690  Biso   1.000  C
  C137     1.0000 0.01007  0.90150  0.07750  Biso   1.000  C
  H132     1.0000 0.03360  0.95050  0.05730  Biso   1.000  H
  C138     1.0000 0.96138  0.93440  0.10800  Biso   1.000  C
  H133     1.0000 0.95260  0.00470  0.10700  Biso   1.000  H
  C139     1.0000 0.77629  0.82230  0.33730  Biso   1.000  C
  C140     1.0000 0.75266  0.06760  0.07320  Biso   1.000  C
  C141     1.0000 0.07362  0.76410  0.03470  Biso   1.000  C
  O63      1.0000 0.12540  0.76430  0.82300  Biso   1.000  O
  N8       1.0000 0.11030  0.84490  0.68440  Biso   1.000  N
  C142     1.0000 0.14580  0.80420  0.75310  Biso   1.000  C
  H134     1.0000 0.18340  0.80480  0.75030  Biso   1.000  H
  C143     1.0000 0.05700  0.83380  0.68230  Biso   1.000  C
  H135     1.0000 0.03890  0.86880  0.63010  Biso   1.000  H
  H136     1.0000 0.04780  0.76130  0.67930  Biso   1.000  H
  H137     1.0000 0.04530  0.86340  0.73610  Biso   1.000  H
  C144     1.0000 0.13920  0.89780  0.62080  Biso   1.000  C
  H138     1.0000 0.17760  0.89750  0.64180  Biso   1.000  H
  H139     1.0000 0.13310  0.86330  0.56320  Biso   1.000  H
  H140     1.0000 0.12650  0.96820  0.61440  Biso   1.000  H
  O64      1.0000 0.12750  0.54890  0.89070  Biso   1.000  O
  H141     1.0000 0.09130  0.53700  0.85500  Biso   1.000  H
  H142     1.0000 0.14800  0.48200  0.89900  Biso   1.000  H
  H143     1.0000 0.13600  0.83100  0.79600  Biso   1.000  H
  H144     1.0000 0.11300  0.71700  0.77000  Biso   1.000  H
