data_image0
_cell_length_a       12.955
_cell_length_b       13.814
_cell_length_c       27.962
_cell_angle_alpha    75.69
_cell_angle_beta     79.38
_cell_angle_gamma    85.69

_symmetry_space_group_name_H-M    "P 1"
_symmetry_int_tables_number       1

loop_
  _symmetry_equiv_pos_as_xyz
  'x, y, z'

loop_
  _atom_site_label
  _atom_site_occupancy
  _atom_site_fract_x
  _atom_site_fract_y
  _atom_site_fract_z
  _atom_site_thermal_displace_type
  _atom_site_B_iso_or_equiv
  _atom_site_type_symbol
  Eu1      1.0000 0.87991  0.02124  0.55384  Biso   1.000  Eu
  Eu2      1.0000 0.47109  0.53755  0.41492  Biso   1.000  Eu
  Eu3      1.0000 0.03100  0.87493  0.06034  Biso   1.000  Eu
  Eu4      1.0000 0.51626  0.48066  0.91420  Biso   1.000  Eu
  O1       1.0000 0.94680  0.93100  0.47167  Biso   1.000  O
  O2       1.0000 0.79960  0.89970  0.52548  Biso   1.000  O
  O3       1.0000 0.59930  0.56740  0.45588  Biso   1.000  O
  O4       1.0000 0.62380  0.59010  0.52835  Biso   1.000  O
  O5       1.0000 0.04570  0.88880  0.14407  Biso   1.000  O
  O6       1.0000 0.93160  0.78480  0.14023  Biso   1.000  O
  O7       1.0000 0.63830  0.51620  0.35775  Biso   1.000  O
  O8       1.0000 0.59470  0.39160  0.42331  Biso   1.000  O
  O9       1.0000 0.86820  0.13430  0.47582  Biso   1.000  O
  O10      1.0000 0.01910  0.12580  0.42252  Biso   1.000  O
  O11      1.0000 0.26040  0.65930  0.14674  Biso   1.000  O
  O12      1.0000 0.32660  0.50770  0.14135  Biso   1.000  O
  O13      1.0000 0.88960  0.98240  0.07775  Biso   1.000  O
  O14      1.0000 0.87650  0.12690  0.02135  Biso   1.000  O
  O15      1.0000 0.50560  0.35250  0.13861  Biso   1.000  O
  O16      1.0000 0.61300  0.38740  0.06648  Biso   1.000  O
  O17      1.0000 0.48980  0.69360  0.36325  Biso   1.000  O
  O18      1.0000 0.44430  0.81430  0.40367  Biso   1.000  O
  O19      1.0000 0.59680  0.57210  0.95425  Biso   1.000  O
  O20      1.0000 0.61120  0.60720  0.02515  Biso   1.000  O
  O21      1.0000 0.90060  0.96930  0.96644  Biso   1.000  O
  O22      1.0000 0.89420  0.82730  0.02492  Biso   1.000  O
  O23      1.0000 0.77900  0.93440  0.63488  Biso   1.000  O
  O24      1.0000 0.91240  0.01850  0.63769  Biso   1.000  O
  O25      1.0000 0.69140  0.05910  0.55550  Biso   1.000  O
  O26      1.0000 0.85500  0.18770  0.56806  Biso   1.000  O
  O27      1.0000 0.42590  0.46100  0.35617  Biso   1.000  O
  O28      1.0000 0.39000  0.64210  0.47191  Biso   1.000  O
  O29      1.0000 0.28600  0.58110  0.40725  Biso   1.000  O
  O30      1.0000 0.05880  0.69960  0.06280  Biso   1.000  O
  O31      1.0000 0.21160  0.83250  0.07364  Biso   1.000  O
  O32      1.0000 0.37560  0.47420  0.86830  Biso   1.000  O
  O33      1.0000 0.53540  0.32200  0.89019  Biso   1.000  O
  O34      1.0000 0.61780  0.36250  0.96992  Biso   1.000  O
  C1       1.0000 0.82560  0.82320  0.45700  Biso   1.000  C
  C2       1.0000 0.75030  0.75300  0.48110  Biso   1.000  C
  H1       1.0000 0.72310  0.74650  0.51480  Biso   1.000  H
  C3       1.0000 0.71540  0.69210  0.45460  Biso   1.000  C
  C4       1.0000 0.75240  0.70520  0.40420  Biso   1.000  C
  H2       1.0000 0.72660  0.66640  0.38640  Biso   1.000  H
  C5       1.0000 0.82910  0.77670  0.37870  Biso   1.000  C
  C6       1.0000 0.86600  0.83390  0.40620  Biso   1.000  C
  H3       1.0000 0.91820  0.87960  0.39060  Biso   1.000  H
  C7       1.0000 0.86600  0.78830  0.32410  Biso   1.000  C
  C8       1.0000 0.96280  0.83190  0.30110  Biso   1.000  C
  H4       1.0000 0.00500  0.85210  0.32020  Biso   1.000  H
  C9       1.0000 0.99580  0.84490  0.24930  Biso   1.000  C
  H5       1.0000 0.05940  0.87500  0.23430  Biso   1.000  H
  C10      1.0000 0.93710  0.81450  0.22060  Biso   1.000  C
  C11      1.0000 0.84710  0.76250  0.24360  Biso   1.000  C
  H6       1.0000 0.80940  0.73560  0.22500  Biso   1.000  H
  C12      1.0000 0.81350  0.75070  0.29460  Biso   1.000  C
  H7       1.0000 0.75270  0.71570  0.30950  Biso   1.000  H
  C13      1.0000 0.86070  0.88880  0.48610  Biso   1.000  C
  C14      1.0000 0.63950  0.61190  0.48150  Biso   1.000  C
  C15      1.0000 0.97370  0.83030  0.16490  Biso   1.000  C
  C16      1.0000 0.76500  0.38320  0.37420  Biso   1.000  C
  C17      1.0000 0.79590  0.29830  0.40780  Biso   1.000  C
  H8       1.0000 0.75050  0.27240  0.43750  Biso   1.000  H
  C18      1.0000 0.89370  0.25160  0.39770  Biso   1.000  C
  C19      1.0000 0.96120  0.29250  0.35360  Biso   1.000  C
  H9       1.0000 0.02670  0.26180  0.34650  Biso   1.000  H
  C20      1.0000 0.93270  0.37900  0.31960  Biso   1.000  C
  C21      1.0000 0.83510  0.42250  0.33110  Biso   1.000  C
  H10      1.0000 0.81560  0.48040  0.30910  Biso   1.000  H
  C22      1.0000 0.01070  0.42610  0.27520  Biso   1.000  C
  C23      1.0000 0.01690  0.52930  0.25980  Biso   1.000  C
  H11      1.0000 0.96830  0.56920  0.27580  Biso   1.000  H
  C24      1.0000 0.09450  0.57410  0.22100  Biso   1.000  C
  H12      1.0000 0.09690  0.64350  0.21130  Biso   1.000  H
  C25      1.0000 0.16810  0.51690  0.19670  Biso   1.000  C
  C26      1.0000 0.16030  0.41440  0.21070  Biso   1.000  C
  H13      1.0000 0.20720  0.37470  0.19380  Biso   1.000  H
  C27      1.0000 0.08280  0.36960  0.24980  Biso   1.000  C
  H14      1.0000 0.07960  0.30030  0.25900  Biso   1.000  H
  C28      1.0000 0.65990  0.43270  0.38540  Biso   1.000  C
  C29      1.0000 0.93040  0.16240  0.43510  Biso   1.000  C
  C30      1.0000 0.25690  0.56530  0.15840  Biso   1.000  C
  C31      1.0000 0.76250  0.10250  0.10010  Biso   1.000  C
  C32      1.0000 0.71510  0.19730  0.08780  Biso   1.000  C
  H15      1.0000 0.73850  0.24070  0.05710  Biso   1.000  H
  C33      1.0000 0.63360  0.22690  0.12100  Biso   1.000  C
  C34      1.0000 0.59920  0.16230  0.16690  Biso   1.000  C
  H16      1.0000 0.54490  0.18300  0.18930  Biso   1.000  H
  C35      1.0000 0.64430  0.06740  0.17990  Biso   1.000  C
  C36      1.0000 0.72670  0.03790  0.14610  Biso   1.000  C
  H17      1.0000 0.75790  0.97450  0.15440  Biso   1.000  H
  C37      1.0000 0.60140  0.99610  0.22780  Biso   1.000  C
  C38      1.0000 0.59940  0.89570  0.22980  Biso   1.000  C
  H18      1.0000 0.62530  0.87260  0.20120  Biso   1.000  H
  C39      1.0000 0.55910  0.82790  0.27430  Biso   1.000  C
  H19      1.0000 0.55820  0.76030  0.27490  Biso   1.000  H
  C40      1.0000 0.52050  0.86020  0.31760  Biso   1.000  C
  C41      1.0000 0.52250  0.96060  0.31530  Biso   1.000  C
  H20      1.0000 0.49640  0.98370  0.34390  Biso   1.000  H
  C42      1.0000 0.56220  0.02800  0.27170  Biso   1.000  C
  H21      1.0000 0.56290  0.09540  0.27130  Biso   1.000  H
  C43      1.0000 0.84970  0.06840  0.06390  Biso   1.000  C
  C44      1.0000 0.58130  0.32780  0.10800  Biso   1.000  C
  C45      1.0000 0.48070  0.78380  0.36520  Biso   1.000  C
  C46      1.0000 0.69910  0.70780  0.95180  Biso   1.000  C
  C47      1.0000 0.75200  0.75340  0.97880  Biso   1.000  C
  H22      1.0000 0.74580  0.72930  0.01330  Biso   1.000  H
  C48      1.0000 0.81420  0.83490  0.95470  Biso   1.000  C
  C49      1.0000 0.82290  0.87050  0.90360  Biso   1.000  C
  H23      1.0000 0.86170  0.92700  0.88770  Biso   1.000  H
  C50      1.0000 0.77480  0.82360  0.87500  Biso   1.000  C
  C51      1.0000 0.71240  0.74270  0.89950  Biso   1.000  C
  H24      1.0000 0.67910  0.71110  0.88100  Biso   1.000  H
  C52      1.0000 0.78950  0.85860  0.81940  Biso   1.000  C
  C53      1.0000 0.71320  0.85170  0.79270  Biso   1.000  C
  H25      1.0000 0.64940  0.82460  0.80980  Biso   1.000  H
  C54      1.0000 0.72770  0.88340  0.74160  Biso   1.000  C
  H26      1.0000 0.67390  0.87760  0.72460  Biso   1.000  H
  C55      1.0000 0.82200  0.92400  0.71480  Biso   1.000  C
  C56      1.0000 0.89940  0.93130  0.74080  Biso   1.000  C
  H27      1.0000 0.96360  0.95750  0.72350  Biso   1.000  H
  C57      1.0000 0.88380  0.90030  0.79260  Biso   1.000  C
  H28      1.0000 0.93690  0.90730  0.80970  Biso   1.000  H
  C58      1.0000 0.63030  0.62300  0.97870  Biso   1.000  C
  C59      1.0000 0.87370  0.88090  0.98450  Biso   1.000  C
  C60      1.0000 0.83920  0.96150  0.65860  Biso   1.000  C
  N1       1.0000 0.37960  0.37330  0.30710  Biso   1.000  N
  N2       1.0000 0.10850  0.56690  0.02710  Biso   1.000  N
  C61      1.0000 0.44060  0.43230  0.32210  Biso   1.000  C
  H29      1.0000 0.50350  0.45090  0.30060  Biso   1.000  H
  C62      1.0000 0.29470  0.31960  0.33700  Biso   1.000  C
  H30      1.0000 0.26470  0.28440  0.31750  Biso   1.000  H
  H31      1.0000 0.24270  0.36480  0.34940  Biso   1.000  H
  H32      1.0000 0.31820  0.27260  0.36460  Biso   1.000  H
  C63      1.0000 0.42860  0.35360  0.25700  Biso   1.000  C
  H33      1.0000 0.38380  0.31210  0.24740  Biso   1.000  H
  H34      1.0000 0.49590  0.32040  0.25940  Biso   1.000  H
  H35      1.0000 0.43730  0.41590  0.23230  Biso   1.000  H
  C64      1.0000 0.07690  0.66210  0.02490  Biso   1.000  C
  H36      1.0000 0.06780  0.70290  0.99400  Biso   1.000  H
  C65      1.0000 0.13860  0.53240  0.98060  Biso   1.000  C
  H37      1.0000 0.15950  0.46290  0.98850  Biso   1.000  H
  H38      1.0000 0.19610  0.57050  0.95960  Biso   1.000  H
  H39      1.0000 0.07980  0.54120  0.96330  Biso   1.000  H
  C66      1.0000 0.11780  0.50140  0.07560  Biso   1.000  C
  H40      1.0000 0.14190  0.43610  0.07140  Biso   1.000  H
  H41      1.0000 0.05040  0.49690  0.09710  Biso   1.000  H
  H42      1.0000 0.16710  0.52800  0.09040  Biso   1.000  H
  H43      1.0000 0.63600  0.01300  0.55100  Biso   1.000  H
  H44      1.0000 0.64600  0.10900  0.57200  Biso   1.000  H
  H45      1.0000 0.79400  0.21700  0.59000  Biso   1.000  H
  H46      1.0000 0.91000  0.24200  0.56300  Biso   1.000  H
  H47      1.0000 0.34900  0.61600  0.50500  Biso   1.000  H
  H48      1.0000 0.37700  0.71500  0.46100  Biso   1.000  H
  H49      1.0000 0.23600  0.62600  0.42500  Biso   1.000  H
  H50      1.0000 0.25000  0.57800  0.37900  Biso   1.000  H
  H51      1.0000 0.27920  0.86400  0.05200  Biso   1.000  H
  H52      1.0000 0.24000  0.76900  0.09500  Biso   1.000  H
  H53      1.0000 0.30100  0.49300  0.87800  Biso   1.000  H
  H54      1.0000 0.38000  0.43600  0.84200  Biso   1.000  H
  H55      1.0000 0.60500  0.28400  0.88600  Biso   1.000  H
  H56      1.0000 0.49700  0.30600  0.86500  Biso   1.000  H
  H57      1.0000 0.65300  0.37500  0.99700  Biso   1.000  H
  H58      1.0000 0.62000  0.28640  0.97800  Biso   1.000  H
  Tb1      1.0000 0.12009  0.97876  0.44616  Biso   1.000  Tb
  Tb2      1.0000 0.52891  0.46245  0.58508  Biso   1.000  Tb
  Tb3      1.0000 0.96900  0.12507  0.93966  Biso   1.000  Tb
  Tb4      1.0000 0.48374  0.51934  0.08580  Biso   1.000  Tb
  O35      1.0000 0.05320  0.06900  0.52833  Biso   1.000  O
  O36      1.0000 0.20040  0.10030  0.47452  Biso   1.000  O
  O37      1.0000 0.40070  0.43260  0.54412  Biso   1.000  O
  O38      1.0000 0.37620  0.40990  0.47165  Biso   1.000  O
  O39      1.0000 0.95430  0.11120  0.85593  Biso   1.000  O
  O40      1.0000 0.06840  0.21520  0.85977  Biso   1.000  O
  O41      1.0000 0.36170  0.48380  0.64225  Biso   1.000  O
  O42      1.0000 0.40530  0.60840  0.57669  Biso   1.000  O
  O43      1.0000 0.13180  0.86570  0.52418  Biso   1.000  O
  O44      1.0000 0.98090  0.87420  0.57748  Biso   1.000  O
  O45      1.0000 0.73960  0.34070  0.85326  Biso   1.000  O
  O46      1.0000 0.67340  0.49230  0.85865  Biso   1.000  O
  O47      1.0000 0.11040  0.01760  0.92225  Biso   1.000  O
  O48      1.0000 0.12350  0.87310  0.97865  Biso   1.000  O
  O49      1.0000 0.49440  0.64750  0.86139  Biso   1.000  O
  O50      1.0000 0.38700  0.61260  0.93352  Biso   1.000  O
  O51      1.0000 0.51020  0.30640  0.63675  Biso   1.000  O
  O52      1.0000 0.55570  0.18570  0.59633  Biso   1.000  O
  O53      1.0000 0.40320  0.42790  0.04575  Biso   1.000  O
  O54      1.0000 0.38880  0.39280  0.97485  Biso   1.000  O
  O55      1.0000 0.09940  0.03070  0.03356  Biso   1.000  O
  O56      1.0000 0.10580  0.17270  0.97508  Biso   1.000  O
  O57      1.0000 0.22100  0.06560  0.36512  Biso   1.000  O
  O58      1.0000 0.08760  0.98150  0.36231  Biso   1.000  O
  O59      1.0000 0.30860  0.94090  0.44450  Biso   1.000  O
  O60      1.0000 0.14500  0.81230  0.43194  Biso   1.000  O
  O61      1.0000 0.57410  0.53900  0.64383  Biso   1.000  O
  O62      1.0000 0.61000  0.35790  0.52809  Biso   1.000  O
  O63      1.0000 0.71400  0.41890  0.59275  Biso   1.000  O
  O64      1.0000 0.94120  0.30040  0.93720  Biso   1.000  O
  O65      1.0000 0.78840  0.16750  0.92636  Biso   1.000  O
  O66      1.0000 0.62440  0.52580  0.13170  Biso   1.000  O
  O67      1.0000 0.46460  0.67800  0.10981  Biso   1.000  O
  O68      1.0000 0.38220  0.63750  0.03008  Biso   1.000  O
  C67      1.0000 0.17440  0.17680  0.54300  Biso   1.000  C
  C68      1.0000 0.24970  0.24700  0.51890  Biso   1.000  C
  H59      1.0000 0.27690  0.25350  0.48520  Biso   1.000  H
  C69      1.0000 0.28460  0.30790  0.54540  Biso   1.000  C
  C70      1.0000 0.24760  0.29480  0.59580  Biso   1.000  C
  H60      1.0000 0.27340  0.33360  0.61360  Biso   1.000  H
  C71      1.0000 0.17090  0.22330  0.62130  Biso   1.000  C
  C72      1.0000 0.13400  0.16610  0.59380  Biso   1.000  C
  H61      1.0000 0.08180  0.12040  0.60940  Biso   1.000  H
  C73      1.0000 0.13400  0.21170  0.67590  Biso   1.000  C
  C74      1.0000 0.03720  0.16810  0.69890  Biso   1.000  C
  H62      1.0000 0.99500  0.14790  0.67980  Biso   1.000  H
  C75      1.0000 0.00420  0.15510  0.75070  Biso   1.000  C
  H63      1.0000 0.94060  0.12500  0.76570  Biso   1.000  H
  C76      1.0000 0.06290  0.18550  0.77940  Biso   1.000  C
  C77      1.0000 0.15290  0.23750  0.75640  Biso   1.000  C
  H64      1.0000 0.19060  0.26440  0.77500  Biso   1.000  H
  C78      1.0000 0.18650  0.24930  0.70540  Biso   1.000  C
  H65      1.0000 0.24730  0.28430  0.69050  Biso   1.000  H
  C79      1.0000 0.13930  0.11120  0.51390  Biso   1.000  C
  C80      1.0000 0.36050  0.38810  0.51850  Biso   1.000  C
  C81      1.0000 0.02630  0.16970  0.83510  Biso   1.000  C
  C82      1.0000 0.23500  0.61680  0.62580  Biso   1.000  C
  C83      1.0000 0.20410  0.70170  0.59220  Biso   1.000  C
  H66      1.0000 0.24950  0.72760  0.56250  Biso   1.000  H
  C84      1.0000 0.10630  0.74840  0.60230  Biso   1.000  C
  C85      1.0000 0.03880  0.70750  0.64640  Biso   1.000  C
  H67      1.0000 0.97330  0.73820  0.65350  Biso   1.000  H
  C86      1.0000 0.06730  0.62100  0.68040  Biso   1.000  C
  C87      1.0000 0.16490  0.57750  0.66890  Biso   1.000  C
  H68      1.0000 0.18440  0.51960  0.69090  Biso   1.000  H
  C88      1.0000 0.98930  0.57390  0.72480  Biso   1.000  C
  C89      1.0000 0.98310  0.47070  0.74020  Biso   1.000  C
  H69      1.0000 0.03170  0.43080  0.72420  Biso   1.000  H
  C90      1.0000 0.90550  0.42590  0.77900  Biso   1.000  C
  H70      1.0000 0.90310  0.35650  0.78870  Biso   1.000  H
  C91      1.0000 0.83190  0.48310  0.80330  Biso   1.000  C
  C92      1.0000 0.83970  0.58560  0.78930  Biso   1.000  C
  H71      1.0000 0.79280  0.62530  0.80620  Biso   1.000  H
  C93      1.0000 0.91720  0.63040  0.75020  Biso   1.000  C
  H72      1.0000 0.92040  0.69970  0.74100  Biso   1.000  H
  C94      1.0000 0.34010  0.56730  0.61460  Biso   1.000  C
  C95      1.0000 0.06960  0.83760  0.56490  Biso   1.000  C
  C96      1.0000 0.74310  0.43470  0.84160  Biso   1.000  C
  C97      1.0000 0.23750  0.89750  0.89990  Biso   1.000  C
  C98      1.0000 0.28490  0.80270  0.91220  Biso   1.000  C
  H73      1.0000 0.26150  0.75930  0.94290  Biso   1.000  H
  C99      1.0000 0.36640  0.77310  0.87900  Biso   1.000  C
  C100     1.0000 0.40080  0.83770  0.83310  Biso   1.000  C
  H74      1.0000 0.45510  0.81700  0.81070  Biso   1.000  H
  C101     1.0000 0.35570  0.93260  0.82010  Biso   1.000  C
  C102     1.0000 0.27330  0.96210  0.85390  Biso   1.000  C
  H75      1.0000 0.24210  0.02550  0.84560  Biso   1.000  H
  C103     1.0000 0.39860  0.00390  0.77220  Biso   1.000  C
  C104     1.0000 0.40060  0.10430  0.77020  Biso   1.000  C
  H76      1.0000 0.37470  0.12740  0.79880  Biso   1.000  H
  C105     1.0000 0.44090  0.17210  0.72570  Biso   1.000  C
  H77      1.0000 0.44180  0.23970  0.72510  Biso   1.000  H
  C106     1.0000 0.47950  0.13980  0.68240  Biso   1.000  C
  C107     1.0000 0.47750  0.03940  0.68470  Biso   1.000  C
  H78      1.0000 0.50360  0.01630  0.65610  Biso   1.000  H
  C108     1.0000 0.43780  0.97200  0.72830  Biso   1.000  C
  H79      1.0000 0.43710  0.90460  0.72870  Biso   1.000  H
  C109     1.0000 0.15030  0.93160  0.93610  Biso   1.000  C
  C110     1.0000 0.41870  0.67220  0.89200  Biso   1.000  C
  C111     1.0000 0.51930  0.21620  0.63480  Biso   1.000  C
  C112     1.0000 0.30090  0.29220  0.04820  Biso   1.000  C
  C113     1.0000 0.24800  0.24660  0.02120  Biso   1.000  C
  H80      1.0000 0.25420  0.27070  0.98670  Biso   1.000  H
  C114     1.0000 0.18580  0.16510  0.04530  Biso   1.000  C
  C115     1.0000 0.17710  0.12950  0.09640  Biso   1.000  C
  H81      1.0000 0.13830  0.07300  0.11230  Biso   1.000  H
  C116     1.0000 0.22520  0.17640  0.12500  Biso   1.000  C
  C117     1.0000 0.28760  0.25730  0.10050  Biso   1.000  C
  H82      1.0000 0.32090  0.28890  0.11900  Biso   1.000  H
  C118     1.0000 0.21050  0.14140  0.18060  Biso   1.000  C
  C119     1.0000 0.28680  0.14830  0.20730  Biso   1.000  C
  H83      1.0000 0.35060  0.17540  0.19020  Biso   1.000  H
  C120     1.0000 0.27230  0.11660  0.25840  Biso   1.000  C
  H84      1.0000 0.32610  0.12240  0.27540  Biso   1.000  H
  C121     1.0000 0.17800  0.07600  0.28520  Biso   1.000  C
  C122     1.0000 0.10060  0.06870  0.25920  Biso   1.000  C
  H85      1.0000 0.03640  0.04250  0.27650  Biso   1.000  H
  C123     1.0000 0.11620  0.09970  0.20740  Biso   1.000  C
  H86      1.0000 0.06310  0.09270  0.19030  Biso   1.000  H
  C124     1.0000 0.36970  0.37700  0.02130  Biso   1.000  C
  C125     1.0000 0.12630  0.11910  0.01550  Biso   1.000  C
  C126     1.0000 0.16080  0.03850  0.34140  Biso   1.000  C
  N3       1.0000 0.62040  0.62670  0.69290  Biso   1.000  N
  N4       1.0000 0.89150  0.43310  0.97290  Biso   1.000  N
  C127     1.0000 0.55940  0.56770  0.67790  Biso   1.000  C
  H87      1.0000 0.49650  0.54910  0.69940  Biso   1.000  H
  C128     1.0000 0.70530  0.68040  0.66300  Biso   1.000  C
  H88      1.0000 0.73530  0.71560  0.68250  Biso   1.000  H
  H89      1.0000 0.75730  0.63520  0.65060  Biso   1.000  H
  H90      1.0000 0.68180  0.72740  0.63540  Biso   1.000  H
  C129     1.0000 0.57140  0.64640  0.74300  Biso   1.000  C
  H91      1.0000 0.61620  0.68790  0.75260  Biso   1.000  H
  H92      1.0000 0.50410  0.67960  0.74060  Biso   1.000  H
  H93      1.0000 0.56270  0.58410  0.76770  Biso   1.000  H
  C130     1.0000 0.92310  0.33790  0.97510  Biso   1.000  C
  H94      1.0000 0.93220  0.29710  0.00600  Biso   1.000  H
  C131     1.0000 0.86140  0.46760  0.01940  Biso   1.000  C
  H95      1.0000 0.84050  0.53710  0.01150  Biso   1.000  H
  H96      1.0000 0.80390  0.42950  0.04040  Biso   1.000  H
  H97      1.0000 0.92020  0.45880  0.03670  Biso   1.000  H
  C132     1.0000 0.88220  0.49860  0.92440  Biso   1.000  C
  H98      1.0000 0.85810  0.56390  0.92860  Biso   1.000  H
  H99      1.0000 0.94960  0.50310  0.90290  Biso   1.000  H
  H100     1.0000 0.83290  0.47200  0.90960  Biso   1.000  H
  H101     1.0000 0.36400  0.98700  0.44900  Biso   1.000  H
  H102     1.0000 0.35400  0.89100  0.42800  Biso   1.000  H
  H103     1.0000 0.20600  0.78300  0.41000  Biso   1.000  H
  H104     1.0000 0.09000  0.75800  0.43700  Biso   1.000  H
  H105     1.0000 0.65100  0.38400  0.49500  Biso   1.000  H
  H106     1.0000 0.62300  0.28500  0.53900  Biso   1.000  H
  H107     1.0000 0.76400  0.37400  0.57500  Biso   1.000  H
  H108     1.0000 0.75000  0.42200  0.62100  Biso   1.000  H
  H109     1.0000 0.72080  0.13600  0.94800  Biso   1.000  H
  H110     1.0000 0.76000  0.23100  0.90500  Biso   1.000  H
  H111     1.0000 0.69900  0.50700  0.12200  Biso   1.000  H
  H112     1.0000 0.62000  0.56400  0.15800  Biso   1.000  H
  H113     1.0000 0.39500  0.71600  0.11400  Biso   1.000  H
  H114     1.0000 0.50300  0.69400  0.13500  Biso   1.000  H
  H115     1.0000 0.34700  0.62500  0.00300  Biso   1.000  H
  H116     1.0000 0.38000  0.71360  0.02200  Biso   1.000  H
