data_image0
_cell_length_a       19.619
_cell_length_b       15.5116
_cell_length_c       13.2862
_cell_angle_alpha    90
_cell_angle_beta     94.343
_cell_angle_gamma    90

_symmetry_space_group_name_H-M    "P 1"
_symmetry_int_tables_number       1

loop_
  _symmetry_equiv_pos_as_xyz
  'x, y, z'

loop_
  _atom_site_label
  _atom_site_occupancy
  _atom_site_fract_x
  _atom_site_fract_y
  _atom_site_fract_z
  _atom_site_thermal_displace_type
  _atom_site_B_iso_or_equiv
  _atom_site_type_symbol
  Zn1      1.0000 0.26816  0.04166  0.66058  Biso   1.000  Zn
  O1       1.0000 0.33060  0.95170  0.70710  Biso   1.000  O
  O2       1.0000 0.24900  0.90360  0.79800  Biso   1.000  O
  O3       1.0000 0.32520  0.98230  0.97640  Biso   1.000  O
  O4       1.0000 0.31160  0.87260  0.07750  Biso   1.000  O
  O5       1.0000 0.54650  0.62550  0.81910  Biso   1.000  O
  N1       1.0000 0.17210  0.01840  0.59950  Biso   1.000  N
  N2       1.0000 0.25830  0.11900  0.78540  Biso   1.000  N
  C1       1.0000 0.30940  0.90430  0.77580  Biso   1.000  C
  C2       1.0000 0.36210  0.84870  0.82910  Biso   1.000  C
  C3       1.0000 0.40230  0.79420  0.77430  Biso   1.000  C
  H1       1.0000 0.39570  0.79290  0.70430  Biso   1.000  H
  C4       1.0000 0.45160  0.74250  0.82270  Biso   1.000  C
  C5       1.0000 0.46270  0.74320  0.92460  Biso   1.000  C
  H2       1.0000 0.49680  0.70910  0.95650  Biso   1.000  H
  C6       1.0000 0.42270  0.79520  0.98050  Biso   1.000  C
  H3       1.0000 0.42990  0.79510  0.05050  Biso   1.000  H
  C7       1.0000 0.37240  0.84710  0.93530  Biso   1.000  C
  C8       1.0000 0.33300  0.90650  0.99860  Biso   1.000  C
  C9       1.0000 0.12690  0.97260  0.64550  Biso   1.000  C
  H4       1.0000 0.14130  0.94490  0.70540  Biso   1.000  H
  C10      1.0000 0.05920  0.96350  0.60930  Biso   1.000  C
  H5       1.0000 0.02900  0.93120  0.64480  Biso   1.000  H
  C11      1.0000 0.03750  0.00280  0.52080  Biso   1.000  C
  C12      1.0000 0.08410  0.05000  0.47210  Biso   1.000  C
  H6       1.0000 0.07120  0.07660  0.41090  Biso   1.000  H
  C13      1.0000 0.14970  0.05780  0.51380  Biso   1.000  C
  H7       1.0000 0.18010  0.09200  0.48110  Biso   1.000  H
  C14      1.0000 0.20860  0.11560  0.84270  Biso   1.000  C
  H8       1.0000 0.17310  0.07760  0.82450  Biso   1.000  H
  C15      1.0000 0.20330  0.16290  0.92740  Biso   1.000  C
  H9       1.0000 0.16640  0.15480  0.96620  Biso   1.000  H
  C16      1.0000 0.25190  0.22190  0.95550  Biso   1.000  C
  C17      1.0000 0.28510  0.25560  0.87040  Biso   1.000  C
  C18      1.0000 0.28850  0.19820  0.78840  Biso   1.000  C
  C19      1.0000 0.32030  0.20030  0.91540  Biso   1.000  C
  C20      1.0000 0.31980  0.14680  0.83080  Biso   1.000  C
  Zn2      1.0000 0.76816  0.54166  0.66058  Biso   1.000  Zn
  O6       1.0000 0.83060  0.45170  0.70710  Biso   1.000  O
  O7       1.0000 0.74900  0.40360  0.79800  Biso   1.000  O
  O8       1.0000 0.82520  0.48230  0.97640  Biso   1.000  O
  O9       1.0000 0.81160  0.37260  0.07750  Biso   1.000  O
  O10      1.0000 0.04650  0.12550  0.81910  Biso   1.000  O
  N3       1.0000 0.67210  0.51840  0.59950  Biso   1.000  N
  N4       1.0000 0.75830  0.61900  0.78540  Biso   1.000  N
  C21      1.0000 0.80940  0.40430  0.77580  Biso   1.000  C
  C22      1.0000 0.86210  0.34870  0.82910  Biso   1.000  C
  C23      1.0000 0.90230  0.29420  0.77430  Biso   1.000  C
  H10      1.0000 0.89570  0.29290  0.70430  Biso   1.000  H
  C24      1.0000 0.95160  0.24250  0.82270  Biso   1.000  C
  C25      1.0000 0.96270  0.24320  0.92460  Biso   1.000  C
  H11      1.0000 0.99680  0.20910  0.95650  Biso   1.000  H
  C26      1.0000 0.92270  0.29520  0.98050  Biso   1.000  C
  H12      1.0000 0.92990  0.29510  0.05050  Biso   1.000  H
  C27      1.0000 0.87240  0.34710  0.93530  Biso   1.000  C
  C28      1.0000 0.83300  0.40650  0.99860  Biso   1.000  C
  C29      1.0000 0.62690  0.47260  0.64550  Biso   1.000  C
  H13      1.0000 0.64130  0.44490  0.70540  Biso   1.000  H
  C30      1.0000 0.55920  0.46350  0.60930  Biso   1.000  C
  H14      1.0000 0.52900  0.43120  0.64480  Biso   1.000  H
  C31      1.0000 0.53750  0.50280  0.52080  Biso   1.000  C
  C32      1.0000 0.58410  0.55000  0.47210  Biso   1.000  C
  H15      1.0000 0.57120  0.57660  0.41090  Biso   1.000  H
  C33      1.0000 0.64970  0.55780  0.51380  Biso   1.000  C
  H16      1.0000 0.68010  0.59200  0.48110  Biso   1.000  H
  C34      1.0000 0.70860  0.61560  0.84270  Biso   1.000  C
  H17      1.0000 0.67310  0.57760  0.82450  Biso   1.000  H
  C35      1.0000 0.70330  0.66290  0.92740  Biso   1.000  C
  H18      1.0000 0.66640  0.65480  0.96620  Biso   1.000  H
  C36      1.0000 0.75190  0.72190  0.95550  Biso   1.000  C
  C37      1.0000 0.78510  0.75560  0.87040  Biso   1.000  C
  C38      1.0000 0.78850  0.69820  0.78840  Biso   1.000  C
  C39      1.0000 0.82030  0.70030  0.91540  Biso   1.000  C
  C40      1.0000 0.81980  0.64680  0.83080  Biso   1.000  C
  Zn3      1.0000 0.73184  0.04166  0.83942  Biso   1.000  Zn
  O11      1.0000 0.66940  0.95170  0.79290  Biso   1.000  O
  O12      1.0000 0.75100  0.90360  0.70200  Biso   1.000  O
  O13      1.0000 0.67480  0.98230  0.52360  Biso   1.000  O
  O14      1.0000 0.68840  0.87260  0.42250  Biso   1.000  O
  O15      1.0000 0.45350  0.62550  0.68090  Biso   1.000  O
  N5       1.0000 0.82790  0.01840  0.90050  Biso   1.000  N
  N6       1.0000 0.74170  0.11900  0.71460  Biso   1.000  N
  C41      1.0000 0.69060  0.90430  0.72420  Biso   1.000  C
  C42      1.0000 0.63790  0.84870  0.67090  Biso   1.000  C
  C43      1.0000 0.59770  0.79420  0.72570  Biso   1.000  C
  H19      1.0000 0.60430  0.79290  0.79570  Biso   1.000  H
  C44      1.0000 0.54840  0.74250  0.67730  Biso   1.000  C
  C45      1.0000 0.53730  0.74320  0.57540  Biso   1.000  C
  H20      1.0000 0.50320  0.70910  0.54350  Biso   1.000  H
  C46      1.0000 0.57730  0.79520  0.51950  Biso   1.000  C
  H21      1.0000 0.57010  0.79510  0.44950  Biso   1.000  H
  C47      1.0000 0.62760  0.84710  0.56470  Biso   1.000  C
  C48      1.0000 0.66700  0.90650  0.50140  Biso   1.000  C
  C49      1.0000 0.87310  0.97260  0.85450  Biso   1.000  C
  H22      1.0000 0.85870  0.94490  0.79460  Biso   1.000  H
  C50      1.0000 0.94080  0.96350  0.89070  Biso   1.000  C
  H23      1.0000 0.97100  0.93120  0.85520  Biso   1.000  H
  C51      1.0000 0.96250  0.00280  0.97920  Biso   1.000  C
  C52      1.0000 0.91590  0.05000  0.02790  Biso   1.000  C
  H24      1.0000 0.92880  0.07660  0.08910  Biso   1.000  H
  C53      1.0000 0.85030  0.05780  0.98620  Biso   1.000  C
  H25      1.0000 0.81990  0.09200  0.01890  Biso   1.000  H
  C54      1.0000 0.79140  0.11560  0.65730  Biso   1.000  C
  H26      1.0000 0.82690  0.07760  0.67550  Biso   1.000  H
  C55      1.0000 0.79670  0.16290  0.57260  Biso   1.000  C
  H27      1.0000 0.83360  0.15480  0.53380  Biso   1.000  H
  C56      1.0000 0.74810  0.22190  0.54450  Biso   1.000  C
  C57      1.0000 0.71490  0.25560  0.62960  Biso   1.000  C
  C58      1.0000 0.71150  0.19820  0.71160  Biso   1.000  C
  C59      1.0000 0.67970  0.20030  0.58460  Biso   1.000  C
  C60      1.0000 0.68020  0.14680  0.66920  Biso   1.000  C
  Zn4      1.0000 0.23184  0.54166  0.83942  Biso   1.000  Zn
  O16      1.0000 0.16940  0.45170  0.79290  Biso   1.000  O
  O17      1.0000 0.25100  0.40360  0.70200  Biso   1.000  O
  O18      1.0000 0.17480  0.48230  0.52360  Biso   1.000  O
  O19      1.0000 0.18840  0.37260  0.42250  Biso   1.000  O
  O20      1.0000 0.95350  0.12550  0.68090  Biso   1.000  O
  N7       1.0000 0.32790  0.51840  0.90050  Biso   1.000  N
  N8       1.0000 0.24170  0.61900  0.71460  Biso   1.000  N
  C61      1.0000 0.19060  0.40430  0.72420  Biso   1.000  C
  C62      1.0000 0.13790  0.34870  0.67090  Biso   1.000  C
  C63      1.0000 0.09770  0.29420  0.72570  Biso   1.000  C
  H28      1.0000 0.10430  0.29290  0.79570  Biso   1.000  H
  C64      1.0000 0.04840  0.24250  0.67730  Biso   1.000  C
  C65      1.0000 0.03730  0.24320  0.57540  Biso   1.000  C
  H29      1.0000 0.00320  0.20910  0.54350  Biso   1.000  H
  C66      1.0000 0.07730  0.29520  0.51950  Biso   1.000  C
  H30      1.0000 0.07010  0.29510  0.44950  Biso   1.000  H
  C67      1.0000 0.12760  0.34710  0.56470  Biso   1.000  C
  C68      1.0000 0.16700  0.40650  0.50140  Biso   1.000  C
  C69      1.0000 0.37310  0.47260  0.85450  Biso   1.000  C
  H31      1.0000 0.35870  0.44490  0.79460  Biso   1.000  H
  C70      1.0000 0.44080  0.46350  0.89070  Biso   1.000  C
  H32      1.0000 0.47100  0.43120  0.85520  Biso   1.000  H
  C71      1.0000 0.46250  0.50280  0.97920  Biso   1.000  C
  C72      1.0000 0.41590  0.55000  0.02790  Biso   1.000  C
  H33      1.0000 0.42880  0.57660  0.08910  Biso   1.000  H
  C73      1.0000 0.35030  0.55780  0.98620  Biso   1.000  C
  H34      1.0000 0.31990  0.59200  0.01890  Biso   1.000  H
  C74      1.0000 0.29140  0.61560  0.65730  Biso   1.000  C
  H35      1.0000 0.32690  0.57760  0.67550  Biso   1.000  H
  C75      1.0000 0.29670  0.66290  0.57260  Biso   1.000  C
  H36      1.0000 0.33360  0.65480  0.53380  Biso   1.000  H
  C76      1.0000 0.24810  0.72190  0.54450  Biso   1.000  C
  C77      1.0000 0.21490  0.75560  0.62960  Biso   1.000  C
  C78      1.0000 0.21150  0.69820  0.71160  Biso   1.000  C
  C79      1.0000 0.17970  0.70030  0.58460  Biso   1.000  C
  C80      1.0000 0.18020  0.64680  0.66920  Biso   1.000  C
  Zn5      1.0000 0.73184  0.95834  0.33942  Biso   1.000  Zn
  O21      1.0000 0.66940  0.04830  0.29290  Biso   1.000  O
  O22      1.0000 0.75100  0.09640  0.20200  Biso   1.000  O
  O23      1.0000 0.67480  0.01770  0.02360  Biso   1.000  O
  O24      1.0000 0.68840  0.12740  0.92250  Biso   1.000  O
  O25      1.0000 0.45350  0.37450  0.18090  Biso   1.000  O
  N9       1.0000 0.82790  0.98160  0.40050  Biso   1.000  N
  N10      1.0000 0.74170  0.88100  0.21460  Biso   1.000  N
  C81      1.0000 0.69060  0.09570  0.22420  Biso   1.000  C
  C82      1.0000 0.63790  0.15130  0.17090  Biso   1.000  C
  C83      1.0000 0.59770  0.20580  0.22570  Biso   1.000  C
  H37      1.0000 0.60430  0.20710  0.29570  Biso   1.000  H
  C84      1.0000 0.54840  0.25750  0.17730  Biso   1.000  C
  C85      1.0000 0.53730  0.25680  0.07540  Biso   1.000  C
  H38      1.0000 0.50320  0.29090  0.04350  Biso   1.000  H
  C86      1.0000 0.57730  0.20480  0.01950  Biso   1.000  C
  H39      1.0000 0.57010  0.20490  0.94950  Biso   1.000  H
  C87      1.0000 0.62760  0.15290  0.06470  Biso   1.000  C
  C88      1.0000 0.66700  0.09350  0.00140  Biso   1.000  C
  C89      1.0000 0.87310  0.02740  0.35450  Biso   1.000  C
  H40      1.0000 0.85870  0.05510  0.29460  Biso   1.000  H
  C90      1.0000 0.94080  0.03650  0.39070  Biso   1.000  C
  H41      1.0000 0.97100  0.06880  0.35520  Biso   1.000  H
  C91      1.0000 0.96250  0.99720  0.47920  Biso   1.000  C
  C92      1.0000 0.91590  0.95000  0.52790  Biso   1.000  C
  H42      1.0000 0.92880  0.92340  0.58910  Biso   1.000  H
  C93      1.0000 0.85030  0.94220  0.48620  Biso   1.000  C
  H43      1.0000 0.81990  0.90800  0.51890  Biso   1.000  H
  C94      1.0000 0.79140  0.88440  0.15730  Biso   1.000  C
  H44      1.0000 0.82690  0.92240  0.17550  Biso   1.000  H
  C95      1.0000 0.79670  0.83710  0.07260  Biso   1.000  C
  H45      1.0000 0.83360  0.84520  0.03380  Biso   1.000  H
  C96      1.0000 0.74810  0.77810  0.04450  Biso   1.000  C
  C97      1.0000 0.71490  0.74440  0.12960  Biso   1.000  C
  C98      1.0000 0.71150  0.80180  0.21160  Biso   1.000  C
  C99      1.0000 0.67970  0.79970  0.08460  Biso   1.000  C
  C100     1.0000 0.68020  0.85320  0.16920  Biso   1.000  C
  Zn6      1.0000 0.23184  0.45834  0.33942  Biso   1.000  Zn
  O26      1.0000 0.16940  0.54830  0.29290  Biso   1.000  O
  O27      1.0000 0.25100  0.59640  0.20200  Biso   1.000  O
  O28      1.0000 0.17480  0.51770  0.02360  Biso   1.000  O
  O29      1.0000 0.18840  0.62740  0.92250  Biso   1.000  O
  O30      1.0000 0.95350  0.87450  0.18090  Biso   1.000  O
  N11      1.0000 0.32790  0.48160  0.40050  Biso   1.000  N
  N12      1.0000 0.24170  0.38100  0.21460  Biso   1.000  N
  C101     1.0000 0.19060  0.59570  0.22420  Biso   1.000  C
  C102     1.0000 0.13790  0.65130  0.17090  Biso   1.000  C
  C103     1.0000 0.09770  0.70580  0.22570  Biso   1.000  C
  H46      1.0000 0.10430  0.70710  0.29570  Biso   1.000  H
  C104     1.0000 0.04840  0.75750  0.17730  Biso   1.000  C
  C105     1.0000 0.03730  0.75680  0.07540  Biso   1.000  C
  H47      1.0000 0.00320  0.79090  0.04350  Biso   1.000  H
  C106     1.0000 0.07730  0.70480  0.01950  Biso   1.000  C
  H48      1.0000 0.07010  0.70490  0.94950  Biso   1.000  H
  C107     1.0000 0.12760  0.65290  0.06470  Biso   1.000  C
  C108     1.0000 0.16700  0.59350  0.00140  Biso   1.000  C
  C109     1.0000 0.37310  0.52740  0.35450  Biso   1.000  C
  H49      1.0000 0.35870  0.55510  0.29460  Biso   1.000  H
  C110     1.0000 0.44080  0.53650  0.39070  Biso   1.000  C
  H50      1.0000 0.47100  0.56880  0.35520  Biso   1.000  H
  C111     1.0000 0.46250  0.49720  0.47920  Biso   1.000  C
  C112     1.0000 0.41590  0.45000  0.52790  Biso   1.000  C
  H51      1.0000 0.42880  0.42340  0.58910  Biso   1.000  H
  C113     1.0000 0.35030  0.44220  0.48620  Biso   1.000  C
  H52      1.0000 0.31990  0.40800  0.51890  Biso   1.000  H
  C114     1.0000 0.29140  0.38440  0.15730  Biso   1.000  C
  H53      1.0000 0.32690  0.42240  0.17550  Biso   1.000  H
  C115     1.0000 0.29670  0.33710  0.07260  Biso   1.000  C
  H54      1.0000 0.33360  0.34520  0.03380  Biso   1.000  H
  C116     1.0000 0.24810  0.27810  0.04450  Biso   1.000  C
  C117     1.0000 0.21490  0.24440  0.12960  Biso   1.000  C
  C118     1.0000 0.21150  0.30180  0.21160  Biso   1.000  C
  C119     1.0000 0.17970  0.29970  0.08460  Biso   1.000  C
  C120     1.0000 0.18020  0.35320  0.16920  Biso   1.000  C
  Zn7      1.0000 0.26816  0.95834  0.16058  Biso   1.000  Zn
  O31      1.0000 0.33060  0.04830  0.20710  Biso   1.000  O
  O32      1.0000 0.24900  0.09640  0.29800  Biso   1.000  O
  O33      1.0000 0.32520  0.01770  0.47640  Biso   1.000  O
  O34      1.0000 0.31160  0.12740  0.57750  Biso   1.000  O
  O35      1.0000 0.54650  0.37450  0.31910  Biso   1.000  O
  N13      1.0000 0.17210  0.98160  0.09950  Biso   1.000  N
  N14      1.0000 0.25830  0.88100  0.28540  Biso   1.000  N
  C121     1.0000 0.30940  0.09570  0.27580  Biso   1.000  C
  C122     1.0000 0.36210  0.15130  0.32910  Biso   1.000  C
  C123     1.0000 0.40230  0.20580  0.27430  Biso   1.000  C
  H55      1.0000 0.39570  0.20710  0.20430  Biso   1.000  H
  C124     1.0000 0.45160  0.25750  0.32270  Biso   1.000  C
  C125     1.0000 0.46270  0.25680  0.42460  Biso   1.000  C
  H56      1.0000 0.49680  0.29090  0.45650  Biso   1.000  H
  C126     1.0000 0.42270  0.20480  0.48050  Biso   1.000  C
  H57      1.0000 0.42990  0.20490  0.55050  Biso   1.000  H
  C127     1.0000 0.37240  0.15290  0.43530  Biso   1.000  C
  C128     1.0000 0.33300  0.09350  0.49860  Biso   1.000  C
  C129     1.0000 0.12690  0.02740  0.14550  Biso   1.000  C
  H58      1.0000 0.14130  0.05510  0.20540  Biso   1.000  H
  C130     1.0000 0.05920  0.03650  0.10930  Biso   1.000  C
  H59      1.0000 0.02900  0.06880  0.14480  Biso   1.000  H
  C131     1.0000 0.03750  0.99720  0.02080  Biso   1.000  C
  C132     1.0000 0.08410  0.95000  0.97210  Biso   1.000  C
  H60      1.0000 0.07120  0.92340  0.91090  Biso   1.000  H
  C133     1.0000 0.14970  0.94220  0.01380  Biso   1.000  C
  H61      1.0000 0.18010  0.90800  0.98110  Biso   1.000  H
  C134     1.0000 0.20860  0.88440  0.34270  Biso   1.000  C
  H62      1.0000 0.17310  0.92240  0.32450  Biso   1.000  H
  C135     1.0000 0.20330  0.83710  0.42740  Biso   1.000  C
  H63      1.0000 0.16640  0.84520  0.46620  Biso   1.000  H
  C136     1.0000 0.25190  0.77810  0.45550  Biso   1.000  C
  C137     1.0000 0.28510  0.74440  0.37040  Biso   1.000  C
  C138     1.0000 0.28850  0.80180  0.28840  Biso   1.000  C
  C139     1.0000 0.32030  0.79970  0.41540  Biso   1.000  C
  C140     1.0000 0.31980  0.85320  0.33080  Biso   1.000  C
  Zn8      1.0000 0.76816  0.45834  0.16058  Biso   1.000  Zn
  O36      1.0000 0.83060  0.54830  0.20710  Biso   1.000  O
  O37      1.0000 0.74900  0.59640  0.29800  Biso   1.000  O
  O38      1.0000 0.82520  0.51770  0.47640  Biso   1.000  O
  O39      1.0000 0.81160  0.62740  0.57750  Biso   1.000  O
  O40      1.0000 0.04650  0.87450  0.31910  Biso   1.000  O
  N15      1.0000 0.67210  0.48160  0.09950  Biso   1.000  N
  N16      1.0000 0.75830  0.38100  0.28540  Biso   1.000  N
  C141     1.0000 0.80940  0.59570  0.27580  Biso   1.000  C
  C142     1.0000 0.86210  0.65130  0.32910  Biso   1.000  C
  C143     1.0000 0.90230  0.70580  0.27430  Biso   1.000  C
  H64      1.0000 0.89570  0.70710  0.20430  Biso   1.000  H
  C144     1.0000 0.95160  0.75750  0.32270  Biso   1.000  C
  C145     1.0000 0.96270  0.75680  0.42460  Biso   1.000  C
  H65      1.0000 0.99680  0.79090  0.45650  Biso   1.000  H
  C146     1.0000 0.92270  0.70480  0.48050  Biso   1.000  C
  H66      1.0000 0.92990  0.70490  0.55050  Biso   1.000  H
  C147     1.0000 0.87240  0.65290  0.43530  Biso   1.000  C
  C148     1.0000 0.83300  0.59350  0.49860  Biso   1.000  C
  C149     1.0000 0.62690  0.52740  0.14550  Biso   1.000  C
  H67      1.0000 0.64130  0.55510  0.20540  Biso   1.000  H
  C150     1.0000 0.55920  0.53650  0.10930  Biso   1.000  C
  H68      1.0000 0.52900  0.56880  0.14480  Biso   1.000  H
  C151     1.0000 0.53750  0.49720  0.02080  Biso   1.000  C
  C152     1.0000 0.58410  0.45000  0.97210  Biso   1.000  C
  H69      1.0000 0.57120  0.42340  0.91090  Biso   1.000  H
  C153     1.0000 0.64970  0.44220  0.01380  Biso   1.000  C
  H70      1.0000 0.68010  0.40800  0.98110  Biso   1.000  H
  C154     1.0000 0.70860  0.38440  0.34270  Biso   1.000  C
  H71      1.0000 0.67310  0.42240  0.32450  Biso   1.000  H
  C155     1.0000 0.70330  0.33710  0.42740  Biso   1.000  C
  H72      1.0000 0.66640  0.34520  0.46620  Biso   1.000  H
  C156     1.0000 0.75190  0.27810  0.45550  Biso   1.000  C
  C157     1.0000 0.78510  0.24440  0.37040  Biso   1.000  C
  C158     1.0000 0.78850  0.30180  0.28840  Biso   1.000  C
  C159     1.0000 0.82030  0.29970  0.41540  Biso   1.000  C
  C160     1.0000 0.81980  0.35320  0.33080  Biso   1.000  C
  S1       1.0000 0.50000  0.67290  0.75000  Biso   1.000  S
  S2       1.0000 0.00000  0.17290  0.75000  Biso   1.000  S
  S3       1.0000 0.50000  0.32710  0.25000  Biso   1.000  S
  S4       1.0000 0.00000  0.82710  0.25000  Biso   1.000  S
