data_image0
_cell_length_a       13.838
_cell_length_b       26.893
_cell_length_c       7.543
_cell_angle_alpha    90
_cell_angle_beta     90
_cell_angle_gamma    90.92

_symmetry_space_group_name_H-M    "P 1"
_symmetry_int_tables_number       1

loop_
  _symmetry_equiv_pos_as_xyz
  'x, y, z'

loop_
  _atom_site_label
  _atom_site_occupancy
  _atom_site_fract_x
  _atom_site_fract_y
  _atom_site_fract_z
  _atom_site_thermal_displace_type
  _atom_site_B_iso_or_equiv
  _atom_site_type_symbol
  Cd1      1.0000 0.26592  0.36960  0.37952  Biso   1.000  Cd
  Cd2      1.0000 0.19154  0.63703  0.37937  Biso   1.000  Cd
  Ni1      1.0000 0.19669  0.50006  0.87230  Biso   1.000  Ni
  Ni2      1.0000 0.99590  0.23606  0.26040  Biso   1.000  Ni
  N1       1.0000 0.22200  0.42150  0.14800  Biso   1.000  N
  N2       1.0000 0.20970  0.42270  0.58700  Biso   1.000  N
  N3       1.0000 0.13020  0.31840  0.37200  Biso   1.000  N
  N4       1.0000 0.33420  0.31620  0.60200  Biso   1.000  N
  N5       1.0000 0.32660  0.31390  0.15700  Biso   1.000  N
  N6       1.0000 0.42880  0.39243  0.33800  Biso   1.000  N
  N7       1.0000 0.20520  0.57570  0.16300  Biso   1.000  N
  N8       1.0000 0.18610  0.58210  0.60400  Biso   1.000  N
  N9       1.0000 0.85340  0.15790  0.13000  Biso   1.000  N
  N10      1.0000 0.83210  0.29300  0.42000  Biso   1.000  N
  N11      1.0000 0.16870  0.69440  0.14400  Biso   1.000  N
  N12      1.0000 0.02380  0.63460  0.32600  Biso   1.000  N
  C1       1.0000 0.21160  0.45060  0.04400  Biso   1.000  C
  C2       1.0000 0.20100  0.45190  0.69400  Biso   1.000  C
  C3       1.0000 0.07890  0.28690  0.33300  Biso   1.000  C
  C4       1.0000 0.39920  0.29690  0.66400  Biso   1.000  C
  C5       1.0000 0.20060  0.54770  0.05100  Biso   1.000  C
  C6       1.0000 0.18830  0.55100  0.70400  Biso   1.000  C
  C7       1.0000 0.90970  0.18680  0.18100  Biso   1.000  C
  C8       1.0000 0.89400  0.27090  0.35800  Biso   1.000  C
  C9       1.0000 0.42900  0.32120  0.14800  Biso   1.000  C
  C10      1.0000 0.47000  0.36680  0.18900  Biso   1.000  C
  C11      1.0000 0.58000  0.37300  0.16700  Biso   1.000  C
  C12      1.0000 0.06800  0.69710  0.11400  Biso   1.000  C
  C13      1.0000 0.99910  0.66980  0.18700  Biso   1.000  C
  C14      1.0000 0.89440  0.67610  0.14700  Biso   1.000  C
  Cd3      1.0000 0.23408  0.13040  0.87952  Biso   1.000  Cd
  Cd4      1.0000 0.30846  0.86297  0.87937  Biso   1.000  Cd
  Ni3      1.0000 0.30331  0.99994  0.37230  Biso   1.000  Ni
  Ni4      1.0000 0.50410  0.26394  0.76040  Biso   1.000  Ni
  N13      1.0000 0.27800  0.07850  0.64800  Biso   1.000  N
  N14      1.0000 0.29030  0.07730  0.08700  Biso   1.000  N
  N15      1.0000 0.36980  0.18160  0.87200  Biso   1.000  N
  N16      1.0000 0.16580  0.18380  0.10200  Biso   1.000  N
  N17      1.0000 0.17340  0.18610  0.65700  Biso   1.000  N
  N18      1.0000 0.07120  0.10757  0.83800  Biso   1.000  N
  N19      1.0000 0.29480  0.92430  0.66300  Biso   1.000  N
  N20      1.0000 0.31390  0.91790  0.10400  Biso   1.000  N
  N21      1.0000 0.64660  0.34210  0.63000  Biso   1.000  N
  N22      1.0000 0.66790  0.20700  0.92000  Biso   1.000  N
  N23      1.0000 0.33130  0.80560  0.64400  Biso   1.000  N
  N24      1.0000 0.47620  0.86540  0.82600  Biso   1.000  N
  C15      1.0000 0.28840  0.04940  0.54400  Biso   1.000  C
  C16      1.0000 0.29900  0.04810  0.19400  Biso   1.000  C
  C17      1.0000 0.42110  0.21310  0.83300  Biso   1.000  C
  C18      1.0000 0.10080  0.20310  0.16400  Biso   1.000  C
  C19      1.0000 0.29940  0.95230  0.55100  Biso   1.000  C
  C20      1.0000 0.31170  0.94900  0.20400  Biso   1.000  C
  C21      1.0000 0.59030  0.31320  0.68100  Biso   1.000  C
  C22      1.0000 0.60600  0.22910  0.85800  Biso   1.000  C
  C23      1.0000 0.07100  0.17880  0.64800  Biso   1.000  C
  C24      1.0000 0.03000  0.13320  0.68900  Biso   1.000  C
  C25      1.0000 0.92000  0.12700  0.66700  Biso   1.000  C
  C26      1.0000 0.43200  0.80290  0.61400  Biso   1.000  C
  C27      1.0000 0.50090  0.83020  0.68700  Biso   1.000  C
  C28      1.0000 0.60560  0.82390  0.64700  Biso   1.000  C
  Cd5      1.0000 0.73408  0.63040  0.62048  Biso   1.000  Cd
  Cd6      1.0000 0.80846  0.36297  0.62063  Biso   1.000  Cd
  Ni5      1.0000 0.80331  0.49994  0.12770  Biso   1.000  Ni
  Ni6      1.0000 0.00410  0.76394  0.73960  Biso   1.000  Ni
  N25      1.0000 0.77800  0.57850  0.85200  Biso   1.000  N
  N26      1.0000 0.79030  0.57730  0.41300  Biso   1.000  N
  N27      1.0000 0.86980  0.68160  0.62800  Biso   1.000  N
  N28      1.0000 0.66580  0.68380  0.39800  Biso   1.000  N
  N29      1.0000 0.67340  0.68610  0.84300  Biso   1.000  N
  N30      1.0000 0.57120  0.60757  0.66200  Biso   1.000  N
  N31      1.0000 0.79480  0.42430  0.83700  Biso   1.000  N
  N32      1.0000 0.81390  0.41790  0.39600  Biso   1.000  N
  N33      1.0000 0.14660  0.84210  0.87000  Biso   1.000  N
  N34      1.0000 0.16790  0.70700  0.58000  Biso   1.000  N
  N35      1.0000 0.83130  0.30560  0.85600  Biso   1.000  N
  N36      1.0000 0.97620  0.36540  0.67400  Biso   1.000  N
  C29      1.0000 0.78840  0.54940  0.95600  Biso   1.000  C
  C30      1.0000 0.79900  0.54810  0.30600  Biso   1.000  C
  C31      1.0000 0.92110  0.71310  0.66700  Biso   1.000  C
  C32      1.0000 0.60080  0.70310  0.33600  Biso   1.000  C
  C33      1.0000 0.79940  0.45230  0.94900  Biso   1.000  C
  C34      1.0000 0.81170  0.44900  0.29600  Biso   1.000  C
  C35      1.0000 0.09030  0.81320  0.81900  Biso   1.000  C
  C36      1.0000 0.10600  0.72910  0.64200  Biso   1.000  C
  C37      1.0000 0.57100  0.67880  0.85200  Biso   1.000  C
  C38      1.0000 0.53000  0.63320  0.81100  Biso   1.000  C
  C39      1.0000 0.42000  0.62700  0.83300  Biso   1.000  C
  C40      1.0000 0.93200  0.30290  0.88600  Biso   1.000  C
  C41      1.0000 0.00090  0.33020  0.81300  Biso   1.000  C
  C42      1.0000 0.10560  0.32390  0.85300  Biso   1.000  C
  Cd7      1.0000 0.76592  0.86960  0.12048  Biso   1.000  Cd
  Cd8      1.0000 0.69154  0.13703  0.12063  Biso   1.000  Cd
  Ni7      1.0000 0.69669  0.00006  0.62770  Biso   1.000  Ni
  Ni8      1.0000 0.49590  0.73606  0.23960  Biso   1.000  Ni
  N37      1.0000 0.72200  0.92150  0.35200  Biso   1.000  N
  N38      1.0000 0.70970  0.92270  0.91300  Biso   1.000  N
  N39      1.0000 0.63020  0.81840  0.12800  Biso   1.000  N
  N40      1.0000 0.83420  0.81620  0.89800  Biso   1.000  N
  N41      1.0000 0.82660  0.81390  0.34300  Biso   1.000  N
  N42      1.0000 0.92880  0.89243  0.16200  Biso   1.000  N
  N43      1.0000 0.70520  0.07570  0.33700  Biso   1.000  N
  N44      1.0000 0.68610  0.08210  0.89600  Biso   1.000  N
  N45      1.0000 0.35340  0.65790  0.37000  Biso   1.000  N
  N46      1.0000 0.33210  0.79300  0.08000  Biso   1.000  N
  N47      1.0000 0.66870  0.19440  0.35600  Biso   1.000  N
  N48      1.0000 0.52380  0.13460  0.17400  Biso   1.000  N
  C43      1.0000 0.71160  0.95060  0.45600  Biso   1.000  C
  C44      1.0000 0.70100  0.95190  0.80600  Biso   1.000  C
  C45      1.0000 0.57890  0.78690  0.16700  Biso   1.000  C
  C46      1.0000 0.89920  0.79690  0.83600  Biso   1.000  C
  C47      1.0000 0.70060  0.04770  0.44900  Biso   1.000  C
  C48      1.0000 0.68830  0.05100  0.79600  Biso   1.000  C
  C49      1.0000 0.40970  0.68680  0.31900  Biso   1.000  C
  C50      1.0000 0.39400  0.77090  0.14200  Biso   1.000  C
  C51      1.0000 0.92900  0.82120  0.35200  Biso   1.000  C
  C52      1.0000 0.97000  0.86680  0.31100  Biso   1.000  C
  C53      1.0000 0.08000  0.87300  0.33300  Biso   1.000  C
  C54      1.0000 0.56800  0.19710  0.38600  Biso   1.000  C
  C55      1.0000 0.49910  0.16980  0.31300  Biso   1.000  C
  C56      1.0000 0.39440  0.17610  0.35300  Biso   1.000  C
