data_image0
_cell_length_a       15.9981
_cell_length_b       15.9981
_cell_length_c       16.5761
_cell_angle_alpha    74.5333
_cell_angle_beta     74.533
_cell_angle_gamma    116.575

_symmetry_space_group_name_H-M    P 1
_symmetry_int_tables_number       1

loop_
  _symmetry_equiv_pos_as_xyz
  'x, y, z'

loop_
  _atom_site_label
  _atom_site_occupancy
  _atom_site_fract_x
  _atom_site_fract_y
  _atom_site_fract_z
  _atom_site_thermal_displace_type
  _atom_site_B_iso_or_equiv
  _atom_site_type_symbol
  Ni1      1.0000 0.50000  0.00000  0.00000  Biso   1.000  Ni
  Ni2      1.0000 0.50000  0.50000  0.50000  Biso   1.000  Ni
  Ni3      1.0000 0.50000  0.00000  0.50000  Biso   1.000  Ni
  Ni4      1.0000 0.00000  0.00000  0.00000  Biso   1.000  Ni
  Mo1      1.0000 0.37500  0.12500  0.75000  Biso   1.000  Mo
  Mo2      1.0000 0.62500  0.87500  0.25000  Biso   1.000  Mo
  H1       1.0000 0.69630  0.21610  0.95600  Biso   1.000  H
  H2       1.0000 0.81790  0.33050  0.81240  Biso   1.000  H
  H3       1.0000 0.73730  0.33670  0.77860  Biso   1.000  H
  H4       1.0000 0.81650  0.48450  0.79820  Biso   1.000  H
  H5       1.0000 0.80790  0.42310  0.89420  Biso   1.000  H
  H6       1.0000 0.64760  0.43100  0.86300  Biso   1.000  H
  H7       1.0000 0.69120  0.46480  0.93120  Biso   1.000  H
  H8       1.0000 0.52740  0.30220  0.00820  Biso   1.000  H
  H9       1.0000 0.61260  0.29900  0.03540  Biso   1.000  H
  H10      1.0000 0.54310  0.22530  0.91960  Biso   1.000  H
  H11      1.0000 0.64120  0.14500  0.83720  Biso   1.000  H
  H12      1.0000 0.69470  0.12110  0.88900  Biso   1.000  H
  H13      1.0000 0.50400  0.10800  0.08980  Biso   1.000  H
  H14      1.0000 0.43010  0.10210  0.05220  Biso   1.000  H
  H15      1.0000 0.67210  0.65230  0.54400  Biso   1.000  H
  H16      1.0000 0.64290  0.63030  0.68760  Biso   1.000  H
  H17      1.0000 0.61530  0.51590  0.72140  Biso   1.000  H
  H18      1.0000 0.78270  0.61470  0.70180  Biso   1.000  H
  H19      1.0000 0.81730  0.70210  0.60580  Biso   1.000  H
  H20      1.0000 0.79400  0.51060  0.63700  Biso   1.000  H
  H21      1.0000 0.89600  0.62240  0.56880  Biso   1.000  H
  H22      1.0000 0.81040  0.53560  0.49180  Biso   1.000  H
  H23      1.0000 0.83440  0.64800  0.46460  Biso   1.000  H
  H24      1.0000 0.64490  0.46270  0.58040  Biso   1.000  H
  H25      1.0000 0.48220  0.47840  0.66280  Biso   1.000  H
  H26      1.0000 0.51010  0.58370  0.61100  Biso   1.000  H
  H27      1.0000 0.69780  0.59380  0.41020  Biso   1.000  H
  H28      1.0000 0.65430  0.48230  0.44780  Biso   1.000  H
  H29      1.0000 0.28390  0.80370  0.54400  Biso   1.000  H
  H30      1.0000 0.16950  0.68210  0.68760  Biso   1.000  H
  H31      1.0000 0.16330  0.76270  0.72140  Biso   1.000  H
  H32      1.0000 0.01550  0.68350  0.70180  Biso   1.000  H
  H33      1.0000 0.07690  0.69210  0.60580  Biso   1.000  H
  H34      1.0000 0.06900  0.85240  0.63700  Biso   1.000  H
  H35      1.0000 0.03520  0.80880  0.56880  Biso   1.000  H
  H36      1.0000 0.19780  0.97260  0.49180  Biso   1.000  H
  H37      1.0000 0.20100  0.88740  0.46460  Biso   1.000  H
  H38      1.0000 0.27470  0.95690  0.58040  Biso   1.000  H
  H39      1.0000 0.35500  0.85880  0.66280  Biso   1.000  H
  H40      1.0000 0.37890  0.80530  0.61100  Biso   1.000  H
  H41      1.0000 0.39200  0.99600  0.41020  Biso   1.000  H
  H42      1.0000 0.39790  0.06990  0.44780  Biso   1.000  H
  H43      1.0000 0.84770  0.82790  0.95600  Biso   1.000  H
  H44      1.0000 0.86970  0.85710  0.81240  Biso   1.000  H
  H45      1.0000 0.98410  0.88470  0.77860  Biso   1.000  H
  H46      1.0000 0.88530  0.71730  0.79820  Biso   1.000  H
  H47      1.0000 0.79790  0.68270  0.89420  Biso   1.000  H
  H48      1.0000 0.98940  0.70600  0.86300  Biso   1.000  H
  H49      1.0000 0.87760  0.60400  0.93120  Biso   1.000  H
  H50      1.0000 0.96440  0.68960  0.00820  Biso   1.000  H
  H51      1.0000 0.85200  0.66560  0.03540  Biso   1.000  H
  H52      1.0000 0.03730  0.85510  0.91960  Biso   1.000  H
  H53      1.0000 0.02160  0.01780  0.83720  Biso   1.000  H
  H54      1.0000 0.91630  0.98990  0.88900  Biso   1.000  H
  H55      1.0000 0.90620  0.80220  0.08980  Biso   1.000  H
  H56      1.0000 0.01770  0.84570  0.05220  Biso   1.000  H
  H57      1.0000 0.30370  0.78390  0.04400  Biso   1.000  H
  H58      1.0000 0.18210  0.66950  0.18760  Biso   1.000  H
  H59      1.0000 0.26270  0.66330  0.22140  Biso   1.000  H
  H60      1.0000 0.18350  0.51550  0.20180  Biso   1.000  H
  H61      1.0000 0.19210  0.57690  0.10580  Biso   1.000  H
  H62      1.0000 0.35240  0.56900  0.13700  Biso   1.000  H
  H63      1.0000 0.30880  0.53520  0.06880  Biso   1.000  H
  H64      1.0000 0.47260  0.69780  0.99180  Biso   1.000  H
  H65      1.0000 0.38740  0.70100  0.96460  Biso   1.000  H
  H66      1.0000 0.45690  0.77470  0.08040  Biso   1.000  H
  H67      1.0000 0.35880  0.85500  0.16280  Biso   1.000  H
  H68      1.0000 0.30530  0.87890  0.11100  Biso   1.000  H
  H69      1.0000 0.49600  0.89200  0.91020  Biso   1.000  H
  H70      1.0000 0.56990  0.89790  0.94780  Biso   1.000  H
  H71      1.0000 0.32790  0.34770  0.45600  Biso   1.000  H
  H72      1.0000 0.35710  0.36970  0.31240  Biso   1.000  H
  H73      1.0000 0.38470  0.48410  0.27860  Biso   1.000  H
  H74      1.0000 0.21730  0.38530  0.29820  Biso   1.000  H
  H75      1.0000 0.18270  0.29790  0.39420  Biso   1.000  H
  H76      1.0000 0.20600  0.48940  0.36300  Biso   1.000  H
  H77      1.0000 0.10400  0.37760  0.43120  Biso   1.000  H
  H78      1.0000 0.18960  0.46440  0.50820  Biso   1.000  H
  H79      1.0000 0.16560  0.35200  0.53540  Biso   1.000  H
  H80      1.0000 0.35510  0.53730  0.41960  Biso   1.000  H
  H81      1.0000 0.51780  0.52160  0.33720  Biso   1.000  H
  H82      1.0000 0.48990  0.41630  0.38900  Biso   1.000  H
  H83      1.0000 0.30220  0.40620  0.58980  Biso   1.000  H
  H84      1.0000 0.34570  0.51770  0.55220  Biso   1.000  H
  H85      1.0000 0.71610  0.19630  0.45600  Biso   1.000  H
  H86      1.0000 0.83050  0.31790  0.31240  Biso   1.000  H
  H87      1.0000 0.83670  0.23730  0.27860  Biso   1.000  H
  H88      1.0000 0.98450  0.31650  0.29820  Biso   1.000  H
  H89      1.0000 0.92310  0.30790  0.39420  Biso   1.000  H
  H90      1.0000 0.93100  0.14760  0.36300  Biso   1.000  H
  H91      1.0000 0.96480  0.19120  0.43120  Biso   1.000  H
  H92      1.0000 0.80220  0.02740  0.50820  Biso   1.000  H
  H93      1.0000 0.79900  0.11260  0.53540  Biso   1.000  H
  H94      1.0000 0.72530  0.04310  0.41960  Biso   1.000  H
  H95      1.0000 0.64500  0.14120  0.33720  Biso   1.000  H
  H96      1.0000 0.62110  0.19470  0.38900  Biso   1.000  H
  H97      1.0000 0.60800  0.00400  0.58980  Biso   1.000  H
  H98      1.0000 0.60210  0.93010  0.55220  Biso   1.000  H
  H99      1.0000 0.15230  0.17210  0.04400  Biso   1.000  H
  H100     1.0000 0.13030  0.14290  0.18760  Biso   1.000  H
  H101     1.0000 0.01590  0.11530  0.22140  Biso   1.000  H
  H102     1.0000 0.11470  0.28270  0.20180  Biso   1.000  H
  H103     1.0000 0.20210  0.31730  0.10580  Biso   1.000  H
  H104     1.0000 0.01060  0.29400  0.13700  Biso   1.000  H
  H105     1.0000 0.12240  0.39600  0.06880  Biso   1.000  H
  H106     1.0000 0.03560  0.31040  0.99180  Biso   1.000  H
  H107     1.0000 0.14800  0.33440  0.96460  Biso   1.000  H
  H108     1.0000 0.96270  0.14490  0.08040  Biso   1.000  H
  H109     1.0000 0.97840  0.98220  0.16280  Biso   1.000  H
  H110     1.0000 0.08370  0.01010  0.11100  Biso   1.000  H
  H111     1.0000 0.09380  0.19780  0.91020  Biso   1.000  H
  H112     1.0000 0.98230  0.15430  0.94780  Biso   1.000  H
  C1       1.0000 0.40757  0.05821  0.85772  Biso   1.000  C
  C2       1.0000 0.27968  0.95548  0.80800  Biso   1.000  C
  C3       1.0000 0.66780  0.22394  0.91106  Biso   1.000  C
  C4       1.0000 0.75375  0.32807  0.83124  Biso   1.000  C
  C5       1.0000 0.77127  0.41985  0.85588  Biso   1.000  C
  C6       1.0000 0.67434  0.41406  0.90640  Biso   1.000  C
  C7       1.0000 0.59253  0.30675  0.98492  Biso   1.000  C
  C8       1.0000 0.57233  0.21823  0.96404  Biso   1.000  C
  C9       1.0000 0.41593  0.26529  0.64228  Biso   1.000  C
  C10      1.0000 0.26348  0.08768  0.69200  Biso   1.000  C
  C11      1.0000 0.63500  0.57886  0.58894  Biso   1.000  C
  C12      1.0000 0.65931  0.58499  0.66876  Biso   1.000  C
  C13      1.0000 0.77573  0.62715  0.64412  Biso   1.000  C
  C14      1.0000 0.82046  0.58074  0.59360  Biso   1.000  C
  C15      1.0000 0.79167  0.57745  0.51508  Biso   1.000  C
  C16      1.0000 0.68227  0.53637  0.53596  Biso   1.000  C
  C17      1.0000 0.44179  0.09243  0.64228  Biso   1.000  C
  C18      1.0000 0.54452  0.22032  0.69200  Biso   1.000  C
  C19      1.0000 0.27606  0.83220  0.58894  Biso   1.000  C
  C20      1.0000 0.17193  0.74625  0.66876  Biso   1.000  C
  C21      1.0000 0.08015  0.72873  0.64412  Biso   1.000  C
  C22      1.0000 0.08594  0.82566  0.59360  Biso   1.000  C
  C23      1.0000 0.19325  0.90747  0.51508  Biso   1.000  C
  C24      1.0000 0.28177  0.92767  0.53596  Biso   1.000  C
  C25      1.0000 0.23471  0.08407  0.85772  Biso   1.000  C
  C26      1.0000 0.41232  0.23652  0.80800  Biso   1.000  C
  C27      1.0000 0.92114  0.86500  0.91106  Biso   1.000  C
  C28      1.0000 0.91501  0.84069  0.83124  Biso   1.000  C
  C29      1.0000 0.87285  0.72427  0.85588  Biso   1.000  C
  C30      1.0000 0.91926  0.67954  0.90640  Biso   1.000  C
  C31      1.0000 0.92255  0.70833  0.98492  Biso   1.000  C
  C32      1.0000 0.96363  0.81773  0.96404  Biso   1.000  C
  C33      1.0000 0.59243  0.94179  0.14228  Biso   1.000  C
  C34      1.0000 0.72032  0.04452  0.19200  Biso   1.000  C
  C35      1.0000 0.33220  0.77606  0.08894  Biso   1.000  C
  C36      1.0000 0.24625  0.67193  0.16876  Biso   1.000  C
  C37      1.0000 0.22873  0.58015  0.14412  Biso   1.000  C
  C38      1.0000 0.32566  0.58594  0.09360  Biso   1.000  C
  C39      1.0000 0.40747  0.69325  0.01508  Biso   1.000  C
  C40      1.0000 0.42767  0.78177  0.03596  Biso   1.000  C
  C41      1.0000 0.58407  0.73471  0.35772  Biso   1.000  C
  C42      1.0000 0.73652  0.91232  0.30800  Biso   1.000  C
  C43      1.0000 0.36500  0.42114  0.41106  Biso   1.000  C
  C44      1.0000 0.34069  0.41501  0.33124  Biso   1.000  C
  C45      1.0000 0.22427  0.37285  0.35588  Biso   1.000  C
  C46      1.0000 0.17954  0.41926  0.40640  Biso   1.000  C
  C47      1.0000 0.20833  0.42255  0.48492  Biso   1.000  C
  C48      1.0000 0.31773  0.46363  0.46404  Biso   1.000  C
  C49      1.0000 0.55821  0.90757  0.35772  Biso   1.000  C
  C50      1.0000 0.45548  0.77968  0.30800  Biso   1.000  C
  C51      1.0000 0.72394  0.16780  0.41106  Biso   1.000  C
  C52      1.0000 0.82807  0.25375  0.33124  Biso   1.000  C
  C53      1.0000 0.91985  0.27127  0.35588  Biso   1.000  C
  C54      1.0000 0.91406  0.17434  0.40640  Biso   1.000  C
  C55      1.0000 0.80675  0.09253  0.48492  Biso   1.000  C
  C56      1.0000 0.71823  0.07233  0.46404  Biso   1.000  C
  C57      1.0000 0.76529  0.91593  0.14228  Biso   1.000  C
  C58      1.0000 0.58768  0.76348  0.19200  Biso   1.000  C
  C59      1.0000 0.07886  0.13500  0.08894  Biso   1.000  C
  C60      1.0000 0.08499  0.15931  0.16876  Biso   1.000  C
  C61      1.0000 0.12715  0.27573  0.14412  Biso   1.000  C
  C62      1.0000 0.08074  0.32046  0.09360  Biso   1.000  C
  C63      1.0000 0.07745  0.29167  0.01508  Biso   1.000  C
  C64      1.0000 0.03637  0.18227  0.03596  Biso   1.000  C
  N1       1.0000 0.42839  0.02577  0.91384  Biso   1.000  N
  N2       1.0000 0.23562  0.86892  0.83868  Biso   1.000  N
  N3       1.0000 0.64398  0.13246  0.89232  Biso   1.000  N
  N4       1.0000 0.49396  0.11374  0.03828  Biso   1.000  N
  N5       1.0000 0.43961  0.34223  0.58616  Biso   1.000  N
  N6       1.0000 0.20760  0.07430  0.66132  Biso   1.000  N
  N7       1.0000 0.52478  0.53630  0.60768  Biso   1.000  N
  N8       1.0000 0.65202  0.53224  0.46172  Biso   1.000  N
  N9       1.0000 0.47423  0.07161  0.58616  Biso   1.000  N
  N10      1.0000 0.63108  0.26438  0.66132  Biso   1.000  N
  N11      1.0000 0.36754  0.85602  0.60768  Biso   1.000  N
  N12      1.0000 0.38626  0.00604  0.46172  Biso   1.000  N
  N13      1.0000 0.15777  0.06039  0.91384  Biso   1.000  N
  N14      1.0000 0.42570  0.29240  0.83868  Biso   1.000  N
  N15      1.0000 0.96370  0.97522  0.89232  Biso   1.000  N
  N16      1.0000 0.96776  0.84798  0.03828  Biso   1.000  N
  N17      1.0000 0.57161  0.97423  0.08616  Biso   1.000  N
  N18      1.0000 0.76438  0.13108  0.16132  Biso   1.000  N
  N19      1.0000 0.35602  0.86754  0.10768  Biso   1.000  N
  N20      1.0000 0.50604  0.88626  0.96172  Biso   1.000  N
  N21      1.0000 0.56039  0.65777  0.41384  Biso   1.000  N
  N22      1.0000 0.79240  0.92570  0.33868  Biso   1.000  N
  N23      1.0000 0.47522  0.46370  0.39232  Biso   1.000  N
  N24      1.0000 0.34798  0.46776  0.53828  Biso   1.000  N
  N25      1.0000 0.52577  0.92839  0.41384  Biso   1.000  N
  N26      1.0000 0.36892  0.73562  0.33868  Biso   1.000  N
  N27      1.0000 0.63246  0.14398  0.39232  Biso   1.000  N
  N28      1.0000 0.61374  0.99396  0.53828  Biso   1.000  N
  N29      1.0000 0.84223  0.93961  0.08616  Biso   1.000  N
  N30      1.0000 0.57430  0.70760  0.16132  Biso   1.000  N
  N31      1.0000 0.03630  0.02478  0.10768  Biso   1.000  N
  N32      1.0000 0.03224  0.15202  0.96172  Biso   1.000  N
