data_image0
_cell_length_a       24.365
_cell_length_b       8.6123
_cell_length_c       36.092
_cell_angle_alpha    90
_cell_angle_beta     90
_cell_angle_gamma    90

_symmetry_space_group_name_H-M    "P 1"
_symmetry_int_tables_number       1

loop_
  _symmetry_equiv_pos_as_xyz
  'x, y, z'

loop_
  _atom_site_label
  _atom_site_occupancy
  _atom_site_fract_x
  _atom_site_fract_y
  _atom_site_fract_z
  _atom_site_thermal_displace_type
  _atom_site_B_iso_or_equiv
  _atom_site_type_symbol
  N1       1.0000 0.67499  0.82870  0.01329  Biso   1.000  N
  N2       1.0000 0.81494  0.06090  0.92893  Biso   1.000  N
  H1       1.0000 0.79250  0.01600  0.91390  Biso   1.000  H
  C1       1.0000 0.66380  0.88510  0.97964  Biso   1.000  C
  H2       1.0000 0.63190  0.85170  0.96800  Biso   1.000  H
  C2       1.0000 0.69660  0.98940  0.96113  Biso   1.000  C
  H3       1.0000 0.68650  0.02540  0.93780  Biso   1.000  H
  C3       1.0000 0.74422  0.03990  0.97737  Biso   1.000  C
  C4       1.0000 0.75570  0.98450  0.01227  Biso   1.000  C
  H4       1.0000 0.78740  0.01710  0.02440  Biso   1.000  H
  C5       1.0000 0.72080  0.88110  0.02932  Biso   1.000  C
  H5       1.0000 0.72950  0.84630  0.05300  Biso   1.000  H
  C6       1.0000 0.78230  0.14850  0.95673  Biso   1.000  C
  H6       1.0000 0.76100  0.22830  0.94440  Biso   1.000  H
  H7       1.0000 0.80680  0.19900  0.97410  Biso   1.000  H
  C7       1.0000 0.84570  0.16650  0.90431  Biso   1.000  C
  H8       1.0000 0.87220  0.22530  0.91870  Biso   1.000  H
  H9       1.0000 0.82070  0.23930  0.89270  Biso   1.000  H
  H10      1.0000 0.84850  0.00820  0.86310  Biso   1.000  H
  N3       1.0000 0.67499  0.32870  0.51329  Biso   1.000  N
  N4       1.0000 0.81494  0.56090  0.42893  Biso   1.000  N
  H11      1.0000 0.79250  0.51600  0.41390  Biso   1.000  H
  C8       1.0000 0.66380  0.38510  0.47964  Biso   1.000  C
  H12      1.0000 0.63190  0.35170  0.46800  Biso   1.000  H
  C9       1.0000 0.69660  0.48940  0.46113  Biso   1.000  C
  H13      1.0000 0.68650  0.52540  0.43780  Biso   1.000  H
  C10      1.0000 0.74422  0.53990  0.47737  Biso   1.000  C
  C11      1.0000 0.75570  0.48450  0.51227  Biso   1.000  C
  H14      1.0000 0.78740  0.51710  0.52440  Biso   1.000  H
  C12      1.0000 0.72080  0.38110  0.52932  Biso   1.000  C
  H15      1.0000 0.72950  0.34630  0.55300  Biso   1.000  H
  C13      1.0000 0.78230  0.64850  0.45673  Biso   1.000  C
  H16      1.0000 0.76100  0.72830  0.44440  Biso   1.000  H
  H17      1.0000 0.80680  0.69900  0.47410  Biso   1.000  H
  C14      1.0000 0.84570  0.66650  0.40431  Biso   1.000  C
  H18      1.0000 0.87220  0.72530  0.41870  Biso   1.000  H
  H19      1.0000 0.82070  0.73930  0.39270  Biso   1.000  H
  H20      1.0000 0.84850  0.50820  0.36310  Biso   1.000  H
  N5       1.0000 0.17499  0.82870  0.51329  Biso   1.000  N
  N6       1.0000 0.31494  0.06090  0.42893  Biso   1.000  N
  H21      1.0000 0.29250  0.01600  0.41390  Biso   1.000  H
  C15      1.0000 0.16380  0.88510  0.47964  Biso   1.000  C
  H22      1.0000 0.13190  0.85170  0.46800  Biso   1.000  H
  C16      1.0000 0.19660  0.98940  0.46113  Biso   1.000  C
  H23      1.0000 0.18650  0.02540  0.43780  Biso   1.000  H
  C17      1.0000 0.24422  0.03990  0.47737  Biso   1.000  C
  C18      1.0000 0.25570  0.98450  0.51227  Biso   1.000  C
  H24      1.0000 0.28740  0.01710  0.52440  Biso   1.000  H
  C19      1.0000 0.22080  0.88110  0.52932  Biso   1.000  C
  H25      1.0000 0.22950  0.84630  0.55300  Biso   1.000  H
  C20      1.0000 0.28230  0.14850  0.45673  Biso   1.000  C
  H26      1.0000 0.26100  0.22830  0.44440  Biso   1.000  H
  H27      1.0000 0.30680  0.19900  0.47410  Biso   1.000  H
  C21      1.0000 0.34570  0.16650  0.40431  Biso   1.000  C
  H28      1.0000 0.37220  0.22530  0.41870  Biso   1.000  H
  H29      1.0000 0.32070  0.23930  0.39270  Biso   1.000  H
  H30      1.0000 0.34850  0.00820  0.36310  Biso   1.000  H
  N7       1.0000 0.17499  0.32870  0.01329  Biso   1.000  N
  N8       1.0000 0.31494  0.56090  0.92893  Biso   1.000  N
  H31      1.0000 0.29250  0.51600  0.91390  Biso   1.000  H
  C22      1.0000 0.16380  0.38510  0.97964  Biso   1.000  C
  H32      1.0000 0.13190  0.35170  0.96800  Biso   1.000  H
  C23      1.0000 0.19660  0.48940  0.96113  Biso   1.000  C
  H33      1.0000 0.18650  0.52540  0.93780  Biso   1.000  H
  C24      1.0000 0.24422  0.53990  0.97737  Biso   1.000  C
  C25      1.0000 0.25570  0.48450  0.01227  Biso   1.000  C
  H34      1.0000 0.28740  0.51710  0.02440  Biso   1.000  H
  C26      1.0000 0.22080  0.38110  0.02932  Biso   1.000  C
  H35      1.0000 0.22950  0.34630  0.05300  Biso   1.000  H
  C27      1.0000 0.28230  0.64850  0.95673  Biso   1.000  C
  H36      1.0000 0.26100  0.72830  0.94440  Biso   1.000  H
  H37      1.0000 0.30680  0.69900  0.97410  Biso   1.000  H
  C28      1.0000 0.34570  0.66650  0.90431  Biso   1.000  C
  H38      1.0000 0.37220  0.72530  0.91870  Biso   1.000  H
  H39      1.0000 0.32070  0.73930  0.89270  Biso   1.000  H
  H40      1.0000 0.34850  0.50820  0.86310  Biso   1.000  H
  N9       1.0000 0.07501  0.92130  0.01329  Biso   1.000  N
  N10      1.0000 0.93506  0.68910  0.92893  Biso   1.000  N
  H41      1.0000 0.95750  0.73400  0.91390  Biso   1.000  H
  C29      1.0000 0.08620  0.86490  0.97964  Biso   1.000  C
  H42      1.0000 0.11810  0.89830  0.96800  Biso   1.000  H
  C30      1.0000 0.05340  0.76060  0.96113  Biso   1.000  C
  H43      1.0000 0.06350  0.72460  0.93780  Biso   1.000  H
  C31      1.0000 0.00578  0.71010  0.97737  Biso   1.000  C
  C32      1.0000 0.99430  0.76550  0.01227  Biso   1.000  C
  H44      1.0000 0.96260  0.73290  0.02440  Biso   1.000  H
  C33      1.0000 0.02920  0.86890  0.02932  Biso   1.000  C
  H45      1.0000 0.02050  0.90370  0.05300  Biso   1.000  H
  C34      1.0000 0.96770  0.60150  0.95673  Biso   1.000  C
  H46      1.0000 0.98900  0.52170  0.94440  Biso   1.000  H
  H47      1.0000 0.94320  0.55100  0.97410  Biso   1.000  H
  C35      1.0000 0.90430  0.58350  0.90431  Biso   1.000  C
  H48      1.0000 0.87780  0.52470  0.91870  Biso   1.000  H
  H49      1.0000 0.92930  0.51070  0.89270  Biso   1.000  H
  H50      1.0000 0.90150  0.74180  0.86310  Biso   1.000  H
  N11      1.0000 0.07501  0.42130  0.51329  Biso   1.000  N
  N12      1.0000 0.93506  0.18910  0.42893  Biso   1.000  N
  H51      1.0000 0.95750  0.23400  0.41390  Biso   1.000  H
  C36      1.0000 0.08620  0.36490  0.47964  Biso   1.000  C
  H52      1.0000 0.11810  0.39830  0.46800  Biso   1.000  H
  C37      1.0000 0.05340  0.26060  0.46113  Biso   1.000  C
  H53      1.0000 0.06350  0.22460  0.43780  Biso   1.000  H
  C38      1.0000 0.00578  0.21010  0.47737  Biso   1.000  C
  C39      1.0000 0.99430  0.26550  0.51227  Biso   1.000  C
  H54      1.0000 0.96260  0.23290  0.52440  Biso   1.000  H
  C40      1.0000 0.02920  0.36890  0.52932  Biso   1.000  C
  H55      1.0000 0.02050  0.40370  0.55300  Biso   1.000  H
  C41      1.0000 0.96770  0.10150  0.45673  Biso   1.000  C
  H56      1.0000 0.98900  0.02170  0.44440  Biso   1.000  H
  H57      1.0000 0.94320  0.05100  0.47410  Biso   1.000  H
  C42      1.0000 0.90430  0.08350  0.40431  Biso   1.000  C
  H58      1.0000 0.87780  0.02470  0.41870  Biso   1.000  H
  H59      1.0000 0.92930  0.01070  0.39270  Biso   1.000  H
  H60      1.0000 0.90150  0.24180  0.36310  Biso   1.000  H
  N13      1.0000 0.57501  0.92130  0.51329  Biso   1.000  N
  N14      1.0000 0.43506  0.68910  0.42893  Biso   1.000  N
  H61      1.0000 0.45750  0.73400  0.41390  Biso   1.000  H
  C43      1.0000 0.58620  0.86490  0.47964  Biso   1.000  C
  H62      1.0000 0.61810  0.89830  0.46800  Biso   1.000  H
  C44      1.0000 0.55340  0.76060  0.46113  Biso   1.000  C
  H63      1.0000 0.56350  0.72460  0.43780  Biso   1.000  H
  C45      1.0000 0.50578  0.71010  0.47737  Biso   1.000  C
  C46      1.0000 0.49430  0.76550  0.51227  Biso   1.000  C
  H64      1.0000 0.46260  0.73290  0.52440  Biso   1.000  H
  C47      1.0000 0.52920  0.86890  0.52932  Biso   1.000  C
  H65      1.0000 0.52050  0.90370  0.55300  Biso   1.000  H
  C48      1.0000 0.46770  0.60150  0.45673  Biso   1.000  C
  H66      1.0000 0.48900  0.52170  0.44440  Biso   1.000  H
  H67      1.0000 0.44320  0.55100  0.47410  Biso   1.000  H
  C49      1.0000 0.40430  0.58350  0.40431  Biso   1.000  C
  H68      1.0000 0.37780  0.52470  0.41870  Biso   1.000  H
  H69      1.0000 0.42930  0.51070  0.39270  Biso   1.000  H
  H70      1.0000 0.40150  0.74180  0.36310  Biso   1.000  H
  N15      1.0000 0.57501  0.42130  0.01329  Biso   1.000  N
  N16      1.0000 0.43506  0.18910  0.92893  Biso   1.000  N
  H71      1.0000 0.45750  0.23400  0.91390  Biso   1.000  H
  C50      1.0000 0.58620  0.36490  0.97964  Biso   1.000  C
  H72      1.0000 0.61810  0.39830  0.96800  Biso   1.000  H
  C51      1.0000 0.55340  0.26060  0.96113  Biso   1.000  C
  H73      1.0000 0.56350  0.22460  0.93780  Biso   1.000  H
  C52      1.0000 0.50578  0.21010  0.97737  Biso   1.000  C
  C53      1.0000 0.49430  0.26550  0.01227  Biso   1.000  C
  H74      1.0000 0.46260  0.23290  0.02440  Biso   1.000  H
  C54      1.0000 0.52920  0.36890  0.02932  Biso   1.000  C
  H75      1.0000 0.52050  0.40370  0.05300  Biso   1.000  H
  C55      1.0000 0.46770  0.10150  0.95673  Biso   1.000  C
  H76      1.0000 0.48900  0.02170  0.94440  Biso   1.000  H
  H77      1.0000 0.44320  0.05100  0.97410  Biso   1.000  H
  C56      1.0000 0.40430  0.08350  0.90431  Biso   1.000  C
  H78      1.0000 0.37780  0.02470  0.91870  Biso   1.000  H
  H79      1.0000 0.42930  0.01070  0.89270  Biso   1.000  H
  H80      1.0000 0.40150  0.24180  0.86310  Biso   1.000  H
  N17      1.0000 0.07501  0.82870  0.73671  Biso   1.000  N
  N18      1.0000 0.93506  0.06090  0.82107  Biso   1.000  N
  H81      1.0000 0.95750  0.01600  0.83610  Biso   1.000  H
  C57      1.0000 0.08620  0.88510  0.77036  Biso   1.000  C
  H82      1.0000 0.11810  0.85170  0.78200  Biso   1.000  H
  C58      1.0000 0.05340  0.98940  0.78887  Biso   1.000  C
  H83      1.0000 0.06350  0.02540  0.81220  Biso   1.000  H
  C59      1.0000 0.00578  0.03990  0.77263  Biso   1.000  C
  C60      1.0000 0.99430  0.98450  0.73773  Biso   1.000  C
  H84      1.0000 0.96260  0.01710  0.72560  Biso   1.000  H
  C61      1.0000 0.02920  0.88110  0.72068  Biso   1.000  C
  H85      1.0000 0.02050  0.84630  0.69700  Biso   1.000  H
  C62      1.0000 0.96770  0.14850  0.79327  Biso   1.000  C
  H86      1.0000 0.98900  0.22830  0.80560  Biso   1.000  H
  H87      1.0000 0.94320  0.19900  0.77590  Biso   1.000  H
  C63      1.0000 0.90430  0.16650  0.84569  Biso   1.000  C
  H88      1.0000 0.87780  0.22530  0.83130  Biso   1.000  H
  H89      1.0000 0.92930  0.23930  0.85730  Biso   1.000  H
  H90      1.0000 0.90150  0.00820  0.88690  Biso   1.000  H
  N19      1.0000 0.07501  0.32870  0.23671  Biso   1.000  N
  N20      1.0000 0.93506  0.56090  0.32107  Biso   1.000  N
  H91      1.0000 0.95750  0.51600  0.33610  Biso   1.000  H
  C64      1.0000 0.08620  0.38510  0.27036  Biso   1.000  C
  H92      1.0000 0.11810  0.35170  0.28200  Biso   1.000  H
  C65      1.0000 0.05340  0.48940  0.28887  Biso   1.000  C
  H93      1.0000 0.06350  0.52540  0.31220  Biso   1.000  H
  C66      1.0000 0.00578  0.53990  0.27263  Biso   1.000  C
  C67      1.0000 0.99430  0.48450  0.23773  Biso   1.000  C
  H94      1.0000 0.96260  0.51710  0.22560  Biso   1.000  H
  C68      1.0000 0.02920  0.38110  0.22068  Biso   1.000  C
  H95      1.0000 0.02050  0.34630  0.19700  Biso   1.000  H
  C69      1.0000 0.96770  0.64850  0.29327  Biso   1.000  C
  H96      1.0000 0.98900  0.72830  0.30560  Biso   1.000  H
  H97      1.0000 0.94320  0.69900  0.27590  Biso   1.000  H
  C70      1.0000 0.90430  0.66650  0.34569  Biso   1.000  C
  H98      1.0000 0.87780  0.72530  0.33130  Biso   1.000  H
  H99      1.0000 0.92930  0.73930  0.35730  Biso   1.000  H
  H100     1.0000 0.90150  0.50820  0.38690  Biso   1.000  H
  N21      1.0000 0.57501  0.82870  0.23671  Biso   1.000  N
  N22      1.0000 0.43506  0.06090  0.32107  Biso   1.000  N
  H101     1.0000 0.45750  0.01600  0.33610  Biso   1.000  H
  C71      1.0000 0.58620  0.88510  0.27036  Biso   1.000  C
  H102     1.0000 0.61810  0.85170  0.28200  Biso   1.000  H
  C72      1.0000 0.55340  0.98940  0.28887  Biso   1.000  C
  H103     1.0000 0.56350  0.02540  0.31220  Biso   1.000  H
  C73      1.0000 0.50578  0.03990  0.27263  Biso   1.000  C
  C74      1.0000 0.49430  0.98450  0.23773  Biso   1.000  C
  H104     1.0000 0.46260  0.01710  0.22560  Biso   1.000  H
  C75      1.0000 0.52920  0.88110  0.22068  Biso   1.000  C
  H105     1.0000 0.52050  0.84630  0.19700  Biso   1.000  H
  C76      1.0000 0.46770  0.14850  0.29327  Biso   1.000  C
  H106     1.0000 0.48900  0.22830  0.30560  Biso   1.000  H
  H107     1.0000 0.44320  0.19900  0.27590  Biso   1.000  H
  C77      1.0000 0.40430  0.16650  0.34569  Biso   1.000  C
  H108     1.0000 0.37780  0.22530  0.33130  Biso   1.000  H
  H109     1.0000 0.42930  0.23930  0.35730  Biso   1.000  H
  H110     1.0000 0.40150  0.00820  0.38690  Biso   1.000  H
  N23      1.0000 0.57501  0.32870  0.73671  Biso   1.000  N
  N24      1.0000 0.43506  0.56090  0.82107  Biso   1.000  N
  H111     1.0000 0.45750  0.51600  0.83610  Biso   1.000  H
  C78      1.0000 0.58620  0.38510  0.77036  Biso   1.000  C
  H112     1.0000 0.61810  0.35170  0.78200  Biso   1.000  H
  C79      1.0000 0.55340  0.48940  0.78887  Biso   1.000  C
  H113     1.0000 0.56350  0.52540  0.81220  Biso   1.000  H
  C80      1.0000 0.50578  0.53990  0.77263  Biso   1.000  C
  C81      1.0000 0.49430  0.48450  0.73773  Biso   1.000  C
  H114     1.0000 0.46260  0.51710  0.72560  Biso   1.000  H
  C82      1.0000 0.52920  0.38110  0.72068  Biso   1.000  C
  H115     1.0000 0.52050  0.34630  0.69700  Biso   1.000  H
  C83      1.0000 0.46770  0.64850  0.79327  Biso   1.000  C
  H116     1.0000 0.48900  0.72830  0.80560  Biso   1.000  H
  H117     1.0000 0.44320  0.69900  0.77590  Biso   1.000  H
  C84      1.0000 0.40430  0.66650  0.84569  Biso   1.000  C
  H118     1.0000 0.37780  0.72530  0.83130  Biso   1.000  H
  H119     1.0000 0.42930  0.73930  0.85730  Biso   1.000  H
  H120     1.0000 0.40150  0.50820  0.88690  Biso   1.000  H
  N25      1.0000 0.67499  0.92130  0.73671  Biso   1.000  N
  N26      1.0000 0.81494  0.68910  0.82107  Biso   1.000  N
  H121     1.0000 0.79250  0.73400  0.83610  Biso   1.000  H
  C85      1.0000 0.66380  0.86490  0.77036  Biso   1.000  C
  H122     1.0000 0.63190  0.89830  0.78200  Biso   1.000  H
  C86      1.0000 0.69660  0.76060  0.78887  Biso   1.000  C
  H123     1.0000 0.68650  0.72460  0.81220  Biso   1.000  H
  C87      1.0000 0.74422  0.71010  0.77263  Biso   1.000  C
  C88      1.0000 0.75570  0.76550  0.73773  Biso   1.000  C
  H124     1.0000 0.78740  0.73290  0.72560  Biso   1.000  H
  C89      1.0000 0.72080  0.86890  0.72068  Biso   1.000  C
  H125     1.0000 0.72950  0.90370  0.69700  Biso   1.000  H
  C90      1.0000 0.78230  0.60150  0.79327  Biso   1.000  C
  H126     1.0000 0.76100  0.52170  0.80560  Biso   1.000  H
  H127     1.0000 0.80680  0.55100  0.77590  Biso   1.000  H
  C91      1.0000 0.84570  0.58350  0.84569  Biso   1.000  C
  H128     1.0000 0.87220  0.52470  0.83130  Biso   1.000  H
  H129     1.0000 0.82070  0.51070  0.85730  Biso   1.000  H
  H130     1.0000 0.84850  0.74180  0.88690  Biso   1.000  H
  N27      1.0000 0.67499  0.42130  0.23671  Biso   1.000  N
  N28      1.0000 0.81494  0.18910  0.32107  Biso   1.000  N
  H131     1.0000 0.79250  0.23400  0.33610  Biso   1.000  H
  C92      1.0000 0.66380  0.36490  0.27036  Biso   1.000  C
  H132     1.0000 0.63190  0.39830  0.28200  Biso   1.000  H
  C93      1.0000 0.69660  0.26060  0.28887  Biso   1.000  C
  H133     1.0000 0.68650  0.22460  0.31220  Biso   1.000  H
  C94      1.0000 0.74422  0.21010  0.27263  Biso   1.000  C
  C95      1.0000 0.75570  0.26550  0.23773  Biso   1.000  C
  H134     1.0000 0.78740  0.23290  0.22560  Biso   1.000  H
  C96      1.0000 0.72080  0.36890  0.22068  Biso   1.000  C
  H135     1.0000 0.72950  0.40370  0.19700  Biso   1.000  H
  C97      1.0000 0.78230  0.10150  0.29327  Biso   1.000  C
  H136     1.0000 0.76100  0.02170  0.30560  Biso   1.000  H
  H137     1.0000 0.80680  0.05100  0.27590  Biso   1.000  H
  C98      1.0000 0.84570  0.08350  0.34569  Biso   1.000  C
  H138     1.0000 0.87220  0.02470  0.33130  Biso   1.000  H
  H139     1.0000 0.82070  0.01070  0.35730  Biso   1.000  H
  H140     1.0000 0.84850  0.24180  0.38690  Biso   1.000  H
  N29      1.0000 0.17499  0.92130  0.23671  Biso   1.000  N
  N30      1.0000 0.31494  0.68910  0.32107  Biso   1.000  N
  H141     1.0000 0.29250  0.73400  0.33610  Biso   1.000  H
  C99      1.0000 0.16380  0.86490  0.27036  Biso   1.000  C
  H142     1.0000 0.13190  0.89830  0.28200  Biso   1.000  H
  C100     1.0000 0.19660  0.76060  0.28887  Biso   1.000  C
  H143     1.0000 0.18650  0.72460  0.31220  Biso   1.000  H
  C101     1.0000 0.24422  0.71010  0.27263  Biso   1.000  C
  C102     1.0000 0.25570  0.76550  0.23773  Biso   1.000  C
  H144     1.0000 0.28740  0.73290  0.22560  Biso   1.000  H
  C103     1.0000 0.22080  0.86890  0.22068  Biso   1.000  C
  H145     1.0000 0.22950  0.90370  0.19700  Biso   1.000  H
  C104     1.0000 0.28230  0.60150  0.29327  Biso   1.000  C
  H146     1.0000 0.26100  0.52170  0.30560  Biso   1.000  H
  H147     1.0000 0.30680  0.55100  0.27590  Biso   1.000  H
  C105     1.0000 0.34570  0.58350  0.34569  Biso   1.000  C
  H148     1.0000 0.37220  0.52470  0.33130  Biso   1.000  H
  H149     1.0000 0.32070  0.51070  0.35730  Biso   1.000  H
  H150     1.0000 0.34850  0.74180  0.38690  Biso   1.000  H
  N31      1.0000 0.17499  0.42130  0.73671  Biso   1.000  N
  N32      1.0000 0.31494  0.18910  0.82107  Biso   1.000  N
  H151     1.0000 0.29250  0.23400  0.83610  Biso   1.000  H
  C106     1.0000 0.16380  0.36490  0.77036  Biso   1.000  C
  H152     1.0000 0.13190  0.39830  0.78200  Biso   1.000  H
  C107     1.0000 0.19660  0.26060  0.78887  Biso   1.000  C
  H153     1.0000 0.18650  0.22460  0.81220  Biso   1.000  H
  C108     1.0000 0.24422  0.21010  0.77263  Biso   1.000  C
  C109     1.0000 0.25570  0.26550  0.73773  Biso   1.000  C
  H154     1.0000 0.28740  0.23290  0.72560  Biso   1.000  H
  C110     1.0000 0.22080  0.36890  0.72068  Biso   1.000  C
  H155     1.0000 0.22950  0.40370  0.69700  Biso   1.000  H
  C111     1.0000 0.28230  0.10150  0.79327  Biso   1.000  C
  H156     1.0000 0.26100  0.02170  0.80560  Biso   1.000  H
  H157     1.0000 0.30680  0.05100  0.77590  Biso   1.000  H
  C112     1.0000 0.34570  0.08350  0.84569  Biso   1.000  C
  H158     1.0000 0.37220  0.02470  0.83130  Biso   1.000  H
  H159     1.0000 0.32070  0.01070  0.85730  Biso   1.000  H
  H160     1.0000 0.34850  0.24180  0.88690  Biso   1.000  H
  N33      1.0000 0.32501  0.17130  0.98671  Biso   1.000  N
  N34      1.0000 0.18506  0.93910  0.07107  Biso   1.000  N
  H161     1.0000 0.20750  0.98400  0.08610  Biso   1.000  H
  C113     1.0000 0.33620  0.11490  0.02036  Biso   1.000  C
  H162     1.0000 0.36810  0.14830  0.03200  Biso   1.000  H
  C114     1.0000 0.30340  0.01060  0.03887  Biso   1.000  C
  H163     1.0000 0.31350  0.97460  0.06220  Biso   1.000  H
  C115     1.0000 0.25578  0.96010  0.02263  Biso   1.000  C
  C116     1.0000 0.24430  0.01550  0.98773  Biso   1.000  C
  H164     1.0000 0.21260  0.98290  0.97560  Biso   1.000  H
  C117     1.0000 0.27920  0.11890  0.97068  Biso   1.000  C
  H165     1.0000 0.27050  0.15370  0.94700  Biso   1.000  H
  C118     1.0000 0.21770  0.85150  0.04327  Biso   1.000  C
  H166     1.0000 0.23900  0.77170  0.05560  Biso   1.000  H
  H167     1.0000 0.19320  0.80100  0.02590  Biso   1.000  H
  C119     1.0000 0.15430  0.83350  0.09569  Biso   1.000  C
  H168     1.0000 0.12780  0.77470  0.08130  Biso   1.000  H
  H169     1.0000 0.17930  0.76070  0.10730  Biso   1.000  H
  H170     1.0000 0.15150  0.99180  0.13690  Biso   1.000  H
  N35      1.0000 0.32501  0.67130  0.48671  Biso   1.000  N
  N36      1.0000 0.18506  0.43910  0.57107  Biso   1.000  N
  H171     1.0000 0.20750  0.48400  0.58610  Biso   1.000  H
  C120     1.0000 0.33620  0.61490  0.52036  Biso   1.000  C
  H172     1.0000 0.36810  0.64830  0.53200  Biso   1.000  H
  C121     1.0000 0.30340  0.51060  0.53887  Biso   1.000  C
  H173     1.0000 0.31350  0.47460  0.56220  Biso   1.000  H
  C122     1.0000 0.25578  0.46010  0.52263  Biso   1.000  C
  C123     1.0000 0.24430  0.51550  0.48773  Biso   1.000  C
  H174     1.0000 0.21260  0.48290  0.47560  Biso   1.000  H
  C124     1.0000 0.27920  0.61890  0.47068  Biso   1.000  C
  H175     1.0000 0.27050  0.65370  0.44700  Biso   1.000  H
  C125     1.0000 0.21770  0.35150  0.54327  Biso   1.000  C
  H176     1.0000 0.23900  0.27170  0.55560  Biso   1.000  H
  H177     1.0000 0.19320  0.30100  0.52590  Biso   1.000  H
  C126     1.0000 0.15430  0.33350  0.59569  Biso   1.000  C
  H178     1.0000 0.12780  0.27470  0.58130  Biso   1.000  H
  H179     1.0000 0.17930  0.26070  0.60730  Biso   1.000  H
  H180     1.0000 0.15150  0.49180  0.63690  Biso   1.000  H
  N37      1.0000 0.82501  0.17130  0.48671  Biso   1.000  N
  N38      1.0000 0.68506  0.93910  0.57107  Biso   1.000  N
  H181     1.0000 0.70750  0.98400  0.58610  Biso   1.000  H
  C127     1.0000 0.83620  0.11490  0.52036  Biso   1.000  C
  H182     1.0000 0.86810  0.14830  0.53200  Biso   1.000  H
  C128     1.0000 0.80340  0.01060  0.53887  Biso   1.000  C
  H183     1.0000 0.81350  0.97460  0.56220  Biso   1.000  H
  C129     1.0000 0.75578  0.96010  0.52263  Biso   1.000  C
  C130     1.0000 0.74430  0.01550  0.48773  Biso   1.000  C
  H184     1.0000 0.71260  0.98290  0.47560  Biso   1.000  H
  C131     1.0000 0.77920  0.11890  0.47068  Biso   1.000  C
  H185     1.0000 0.77050  0.15370  0.44700  Biso   1.000  H
  C132     1.0000 0.71770  0.85150  0.54327  Biso   1.000  C
  H186     1.0000 0.73900  0.77170  0.55560  Biso   1.000  H
  H187     1.0000 0.69320  0.80100  0.52590  Biso   1.000  H
  C133     1.0000 0.65430  0.83350  0.59569  Biso   1.000  C
  H188     1.0000 0.62780  0.77470  0.58130  Biso   1.000  H
  H189     1.0000 0.67930  0.76070  0.60730  Biso   1.000  H
  H190     1.0000 0.65150  0.99180  0.63690  Biso   1.000  H
  N39      1.0000 0.82501  0.67130  0.98671  Biso   1.000  N
  N40      1.0000 0.68506  0.43910  0.07107  Biso   1.000  N
  H191     1.0000 0.70750  0.48400  0.08610  Biso   1.000  H
  C134     1.0000 0.83620  0.61490  0.02036  Biso   1.000  C
  H192     1.0000 0.86810  0.64830  0.03200  Biso   1.000  H
  C135     1.0000 0.80340  0.51060  0.03887  Biso   1.000  C
  H193     1.0000 0.81350  0.47460  0.06220  Biso   1.000  H
  C136     1.0000 0.75578  0.46010  0.02263  Biso   1.000  C
  C137     1.0000 0.74430  0.51550  0.98773  Biso   1.000  C
  H194     1.0000 0.71260  0.48290  0.97560  Biso   1.000  H
  C138     1.0000 0.77920  0.61890  0.97068  Biso   1.000  C
  H195     1.0000 0.77050  0.65370  0.94700  Biso   1.000  H
  C139     1.0000 0.71770  0.35150  0.04327  Biso   1.000  C
  H196     1.0000 0.73900  0.27170  0.05560  Biso   1.000  H
  H197     1.0000 0.69320  0.30100  0.02590  Biso   1.000  H
  C140     1.0000 0.65430  0.33350  0.09569  Biso   1.000  C
  H198     1.0000 0.62780  0.27470  0.08130  Biso   1.000  H
  H199     1.0000 0.67930  0.26070  0.10730  Biso   1.000  H
  H200     1.0000 0.65150  0.49180  0.13690  Biso   1.000  H
  N41      1.0000 0.92499  0.07870  0.98671  Biso   1.000  N
  N42      1.0000 0.06494  0.31090  0.07107  Biso   1.000  N
  H201     1.0000 0.04250  0.26600  0.08610  Biso   1.000  H
  C141     1.0000 0.91380  0.13510  0.02036  Biso   1.000  C
  H202     1.0000 0.88190  0.10170  0.03200  Biso   1.000  H
  C142     1.0000 0.94660  0.23940  0.03887  Biso   1.000  C
  H203     1.0000 0.93650  0.27540  0.06220  Biso   1.000  H
  C143     1.0000 0.99422  0.28990  0.02263  Biso   1.000  C
  C144     1.0000 0.00570  0.23450  0.98773  Biso   1.000  C
  H204     1.0000 0.03740  0.26710  0.97560  Biso   1.000  H
  C145     1.0000 0.97080  0.13110  0.97068  Biso   1.000  C
  H205     1.0000 0.97950  0.09630  0.94700  Biso   1.000  H
  C146     1.0000 0.03230  0.39850  0.04327  Biso   1.000  C
  H206     1.0000 0.01100  0.47830  0.05560  Biso   1.000  H
  H207     1.0000 0.05680  0.44900  0.02590  Biso   1.000  H
  C147     1.0000 0.09570  0.41650  0.09569  Biso   1.000  C
  H208     1.0000 0.12220  0.47530  0.08130  Biso   1.000  H
  H209     1.0000 0.07070  0.48930  0.10730  Biso   1.000  H
  H210     1.0000 0.09850  0.25820  0.13690  Biso   1.000  H
  N43      1.0000 0.92499  0.57870  0.48671  Biso   1.000  N
  N44      1.0000 0.06494  0.81090  0.57107  Biso   1.000  N
  H211     1.0000 0.04250  0.76600  0.58610  Biso   1.000  H
  C148     1.0000 0.91380  0.63510  0.52036  Biso   1.000  C
  H212     1.0000 0.88190  0.60170  0.53200  Biso   1.000  H
  C149     1.0000 0.94660  0.73940  0.53887  Biso   1.000  C
  H213     1.0000 0.93650  0.77540  0.56220  Biso   1.000  H
  C150     1.0000 0.99422  0.78990  0.52263  Biso   1.000  C
  C151     1.0000 0.00570  0.73450  0.48773  Biso   1.000  C
  H214     1.0000 0.03740  0.76710  0.47560  Biso   1.000  H
  C152     1.0000 0.97080  0.63110  0.47068  Biso   1.000  C
  H215     1.0000 0.97950  0.59630  0.44700  Biso   1.000  H
  C153     1.0000 0.03230  0.89850  0.54327  Biso   1.000  C
  H216     1.0000 0.01100  0.97830  0.55560  Biso   1.000  H
  H217     1.0000 0.05680  0.94900  0.52590  Biso   1.000  H
  C154     1.0000 0.09570  0.91650  0.59569  Biso   1.000  C
  H218     1.0000 0.12220  0.97530  0.58130  Biso   1.000  H
  H219     1.0000 0.07070  0.98930  0.60730  Biso   1.000  H
  H220     1.0000 0.09850  0.75820  0.63690  Biso   1.000  H
  N45      1.0000 0.42499  0.07870  0.48671  Biso   1.000  N
  N46      1.0000 0.56494  0.31090  0.57107  Biso   1.000  N
  H221     1.0000 0.54250  0.26600  0.58610  Biso   1.000  H
  C155     1.0000 0.41380  0.13510  0.52036  Biso   1.000  C
  H222     1.0000 0.38190  0.10170  0.53200  Biso   1.000  H
  C156     1.0000 0.44660  0.23940  0.53887  Biso   1.000  C
  H223     1.0000 0.43650  0.27540  0.56220  Biso   1.000  H
  C157     1.0000 0.49422  0.28990  0.52263  Biso   1.000  C
  C158     1.0000 0.50570  0.23450  0.48773  Biso   1.000  C
  H224     1.0000 0.53740  0.26710  0.47560  Biso   1.000  H
  C159     1.0000 0.47080  0.13110  0.47068  Biso   1.000  C
  H225     1.0000 0.47950  0.09630  0.44700  Biso   1.000  H
  C160     1.0000 0.53230  0.39850  0.54327  Biso   1.000  C
  H226     1.0000 0.51100  0.47830  0.55560  Biso   1.000  H
  H227     1.0000 0.55680  0.44900  0.52590  Biso   1.000  H
  C161     1.0000 0.59570  0.41650  0.59569  Biso   1.000  C
  H228     1.0000 0.62220  0.47530  0.58130  Biso   1.000  H
  H229     1.0000 0.57070  0.48930  0.60730  Biso   1.000  H
  H230     1.0000 0.59850  0.25820  0.63690  Biso   1.000  H
  N47      1.0000 0.42499  0.57870  0.98671  Biso   1.000  N
  N48      1.0000 0.56494  0.81090  0.07107  Biso   1.000  N
  H231     1.0000 0.54250  0.76600  0.08610  Biso   1.000  H
  C162     1.0000 0.41380  0.63510  0.02036  Biso   1.000  C
  H232     1.0000 0.38190  0.60170  0.03200  Biso   1.000  H
  C163     1.0000 0.44660  0.73940  0.03887  Biso   1.000  C
  H233     1.0000 0.43650  0.77540  0.06220  Biso   1.000  H
  C164     1.0000 0.49422  0.78990  0.02263  Biso   1.000  C
  C165     1.0000 0.50570  0.73450  0.98773  Biso   1.000  C
  H234     1.0000 0.53740  0.76710  0.97560  Biso   1.000  H
  C166     1.0000 0.47080  0.63110  0.97068  Biso   1.000  C
  H235     1.0000 0.47950  0.59630  0.94700  Biso   1.000  H
  C167     1.0000 0.53230  0.89850  0.04327  Biso   1.000  C
  H236     1.0000 0.51100  0.97830  0.05560  Biso   1.000  H
  H237     1.0000 0.55680  0.94900  0.02590  Biso   1.000  H
  C168     1.0000 0.59570  0.91650  0.09569  Biso   1.000  C
  H238     1.0000 0.62220  0.97530  0.08130  Biso   1.000  H
  H239     1.0000 0.57070  0.98930  0.10730  Biso   1.000  H
  H240     1.0000 0.59850  0.75820  0.13690  Biso   1.000  H
  N49      1.0000 0.92499  0.17130  0.26329  Biso   1.000  N
  N50      1.0000 0.06494  0.93910  0.17893  Biso   1.000  N
  H241     1.0000 0.04250  0.98400  0.16390  Biso   1.000  H
  C169     1.0000 0.91380  0.11490  0.22964  Biso   1.000  C
  H242     1.0000 0.88190  0.14830  0.21800  Biso   1.000  H
  C170     1.0000 0.94660  0.01060  0.21113  Biso   1.000  C
  H243     1.0000 0.93650  0.97460  0.18780  Biso   1.000  H
  C171     1.0000 0.99422  0.96010  0.22737  Biso   1.000  C
  C172     1.0000 0.00570  0.01550  0.26227  Biso   1.000  C
  H244     1.0000 0.03740  0.98290  0.27440  Biso   1.000  H
  C173     1.0000 0.97080  0.11890  0.27932  Biso   1.000  C
  H245     1.0000 0.97950  0.15370  0.30300  Biso   1.000  H
  C174     1.0000 0.03230  0.85150  0.20673  Biso   1.000  C
  H246     1.0000 0.01100  0.77170  0.19440  Biso   1.000  H
  H247     1.0000 0.05680  0.80100  0.22410  Biso   1.000  H
  C175     1.0000 0.09570  0.83350  0.15431  Biso   1.000  C
  H248     1.0000 0.12220  0.77470  0.16870  Biso   1.000  H
  H249     1.0000 0.07070  0.76070  0.14270  Biso   1.000  H
  H250     1.0000 0.09850  0.99180  0.11310  Biso   1.000  H
  N51      1.0000 0.92499  0.67130  0.76329  Biso   1.000  N
  N52      1.0000 0.06494  0.43910  0.67893  Biso   1.000  N
  H251     1.0000 0.04250  0.48400  0.66390  Biso   1.000  H
  C176     1.0000 0.91380  0.61490  0.72964  Biso   1.000  C
  H252     1.0000 0.88190  0.64830  0.71800  Biso   1.000  H
  C177     1.0000 0.94660  0.51060  0.71113  Biso   1.000  C
  H253     1.0000 0.93650  0.47460  0.68780  Biso   1.000  H
  C178     1.0000 0.99422  0.46010  0.72737  Biso   1.000  C
  C179     1.0000 0.00570  0.51550  0.76227  Biso   1.000  C
  H254     1.0000 0.03740  0.48290  0.77440  Biso   1.000  H
  C180     1.0000 0.97080  0.61890  0.77932  Biso   1.000  C
  H255     1.0000 0.97950  0.65370  0.80300  Biso   1.000  H
  C181     1.0000 0.03230  0.35150  0.70673  Biso   1.000  C
  H256     1.0000 0.01100  0.27170  0.69440  Biso   1.000  H
  H257     1.0000 0.05680  0.30100  0.72410  Biso   1.000  H
  C182     1.0000 0.09570  0.33350  0.65431  Biso   1.000  C
  H258     1.0000 0.12220  0.27470  0.66870  Biso   1.000  H
  H259     1.0000 0.07070  0.26070  0.64270  Biso   1.000  H
  H260     1.0000 0.09850  0.49180  0.61310  Biso   1.000  H
  N53      1.0000 0.42499  0.17130  0.76329  Biso   1.000  N
  N54      1.0000 0.56494  0.93910  0.67893  Biso   1.000  N
  H261     1.0000 0.54250  0.98400  0.66390  Biso   1.000  H
  C183     1.0000 0.41380  0.11490  0.72964  Biso   1.000  C
  H262     1.0000 0.38190  0.14830  0.71800  Biso   1.000  H
  C184     1.0000 0.44660  0.01060  0.71113  Biso   1.000  C
  H263     1.0000 0.43650  0.97460  0.68780  Biso   1.000  H
  C185     1.0000 0.49422  0.96010  0.72737  Biso   1.000  C
  C186     1.0000 0.50570  0.01550  0.76227  Biso   1.000  C
  H264     1.0000 0.53740  0.98290  0.77440  Biso   1.000  H
  C187     1.0000 0.47080  0.11890  0.77932  Biso   1.000  C
  H265     1.0000 0.47950  0.15370  0.80300  Biso   1.000  H
  C188     1.0000 0.53230  0.85150  0.70673  Biso   1.000  C
  H266     1.0000 0.51100  0.77170  0.69440  Biso   1.000  H
  H267     1.0000 0.55680  0.80100  0.72410  Biso   1.000  H
  C189     1.0000 0.59570  0.83350  0.65431  Biso   1.000  C
  H268     1.0000 0.62220  0.77470  0.66870  Biso   1.000  H
  H269     1.0000 0.57070  0.76070  0.64270  Biso   1.000  H
  H270     1.0000 0.59850  0.99180  0.61310  Biso   1.000  H
  N55      1.0000 0.42499  0.67130  0.26329  Biso   1.000  N
  N56      1.0000 0.56494  0.43910  0.17893  Biso   1.000  N
  H271     1.0000 0.54250  0.48400  0.16390  Biso   1.000  H
  C190     1.0000 0.41380  0.61490  0.22964  Biso   1.000  C
  H272     1.0000 0.38190  0.64830  0.21800  Biso   1.000  H
  C191     1.0000 0.44660  0.51060  0.21113  Biso   1.000  C
  H273     1.0000 0.43650  0.47460  0.18780  Biso   1.000  H
  C192     1.0000 0.49422  0.46010  0.22737  Biso   1.000  C
  C193     1.0000 0.50570  0.51550  0.26227  Biso   1.000  C
  H274     1.0000 0.53740  0.48290  0.27440  Biso   1.000  H
  C194     1.0000 0.47080  0.61890  0.27932  Biso   1.000  C
  H275     1.0000 0.47950  0.65370  0.30300  Biso   1.000  H
  C195     1.0000 0.53230  0.35150  0.20673  Biso   1.000  C
  H276     1.0000 0.51100  0.27170  0.19440  Biso   1.000  H
  H277     1.0000 0.55680  0.30100  0.22410  Biso   1.000  H
  C196     1.0000 0.59570  0.33350  0.15431  Biso   1.000  C
  H278     1.0000 0.62220  0.27470  0.16870  Biso   1.000  H
  H279     1.0000 0.57070  0.26070  0.14270  Biso   1.000  H
  H280     1.0000 0.59850  0.49180  0.11310  Biso   1.000  H
  N57      1.0000 0.32501  0.07870  0.26329  Biso   1.000  N
  N58      1.0000 0.18506  0.31090  0.17893  Biso   1.000  N
  H281     1.0000 0.20750  0.26600  0.16390  Biso   1.000  H
  C197     1.0000 0.33620  0.13510  0.22964  Biso   1.000  C
  H282     1.0000 0.36810  0.10170  0.21800  Biso   1.000  H
  C198     1.0000 0.30340  0.23940  0.21113  Biso   1.000  C
  H283     1.0000 0.31350  0.27540  0.18780  Biso   1.000  H
  C199     1.0000 0.25578  0.28990  0.22737  Biso   1.000  C
  C200     1.0000 0.24430  0.23450  0.26227  Biso   1.000  C
  H284     1.0000 0.21260  0.26710  0.27440  Biso   1.000  H
  C201     1.0000 0.27920  0.13110  0.27932  Biso   1.000  C
  H285     1.0000 0.27050  0.09630  0.30300  Biso   1.000  H
  C202     1.0000 0.21770  0.39850  0.20673  Biso   1.000  C
  H286     1.0000 0.23900  0.47830  0.19440  Biso   1.000  H
  H287     1.0000 0.19320  0.44900  0.22410  Biso   1.000  H
  C203     1.0000 0.15430  0.41650  0.15431  Biso   1.000  C
  H288     1.0000 0.12780  0.47530  0.16870  Biso   1.000  H
  H289     1.0000 0.17930  0.48930  0.14270  Biso   1.000  H
  H290     1.0000 0.15150  0.25820  0.11310  Biso   1.000  H
  N59      1.0000 0.32501  0.57870  0.76329  Biso   1.000  N
  N60      1.0000 0.18506  0.81090  0.67893  Biso   1.000  N
  H291     1.0000 0.20750  0.76600  0.66390  Biso   1.000  H
  C204     1.0000 0.33620  0.63510  0.72964  Biso   1.000  C
  H292     1.0000 0.36810  0.60170  0.71800  Biso   1.000  H
  C205     1.0000 0.30340  0.73940  0.71113  Biso   1.000  C
  H293     1.0000 0.31350  0.77540  0.68780  Biso   1.000  H
  C206     1.0000 0.25578  0.78990  0.72737  Biso   1.000  C
  C207     1.0000 0.24430  0.73450  0.76227  Biso   1.000  C
  H294     1.0000 0.21260  0.76710  0.77440  Biso   1.000  H
  C208     1.0000 0.27920  0.63110  0.77932  Biso   1.000  C
  H295     1.0000 0.27050  0.59630  0.80300  Biso   1.000  H
  C209     1.0000 0.21770  0.89850  0.70673  Biso   1.000  C
  H296     1.0000 0.23900  0.97830  0.69440  Biso   1.000  H
  H297     1.0000 0.19320  0.94900  0.72410  Biso   1.000  H
  C210     1.0000 0.15430  0.91650  0.65431  Biso   1.000  C
  H298     1.0000 0.12780  0.97530  0.66870  Biso   1.000  H
  H299     1.0000 0.17930  0.98930  0.64270  Biso   1.000  H
  H300     1.0000 0.15150  0.75820  0.61310  Biso   1.000  H
  N61      1.0000 0.82501  0.07870  0.76329  Biso   1.000  N
  N62      1.0000 0.68506  0.31090  0.67893  Biso   1.000  N
  H301     1.0000 0.70750  0.26600  0.66390  Biso   1.000  H
  C211     1.0000 0.83620  0.13510  0.72964  Biso   1.000  C
  H302     1.0000 0.86810  0.10170  0.71800  Biso   1.000  H
  C212     1.0000 0.80340  0.23940  0.71113  Biso   1.000  C
  H303     1.0000 0.81350  0.27540  0.68780  Biso   1.000  H
  C213     1.0000 0.75578  0.28990  0.72737  Biso   1.000  C
  C214     1.0000 0.74430  0.23450  0.76227  Biso   1.000  C
  H304     1.0000 0.71260  0.26710  0.77440  Biso   1.000  H
  C215     1.0000 0.77920  0.13110  0.77932  Biso   1.000  C
  H305     1.0000 0.77050  0.09630  0.80300  Biso   1.000  H
  C216     1.0000 0.71770  0.39850  0.70673  Biso   1.000  C
  H306     1.0000 0.73900  0.47830  0.69440  Biso   1.000  H
  H307     1.0000 0.69320  0.44900  0.72410  Biso   1.000  H
  C217     1.0000 0.65430  0.41650  0.65431  Biso   1.000  C
  H308     1.0000 0.62780  0.47530  0.66870  Biso   1.000  H
  H309     1.0000 0.67930  0.48930  0.64270  Biso   1.000  H
  H310     1.0000 0.65150  0.25820  0.61310  Biso   1.000  H
  N63      1.0000 0.82501  0.57870  0.26329  Biso   1.000  N
  N64      1.0000 0.68506  0.81090  0.17893  Biso   1.000  N
  H311     1.0000 0.70750  0.76600  0.16390  Biso   1.000  H
  C218     1.0000 0.83620  0.63510  0.22964  Biso   1.000  C
  H312     1.0000 0.86810  0.60170  0.21800  Biso   1.000  H
  C219     1.0000 0.80340  0.73940  0.21113  Biso   1.000  C
  H313     1.0000 0.81350  0.77540  0.18780  Biso   1.000  H
  C220     1.0000 0.75578  0.78990  0.22737  Biso   1.000  C
  C221     1.0000 0.74430  0.73450  0.26227  Biso   1.000  C
  H314     1.0000 0.71260  0.76710  0.27440  Biso   1.000  H
  C222     1.0000 0.77920  0.63110  0.27932  Biso   1.000  C
  H315     1.0000 0.77050  0.59630  0.30300  Biso   1.000  H
  C223     1.0000 0.71770  0.89850  0.20673  Biso   1.000  C
  H316     1.0000 0.73900  0.97830  0.19440  Biso   1.000  H
  H317     1.0000 0.69320  0.94900  0.22410  Biso   1.000  H
  C224     1.0000 0.65430  0.91650  0.15431  Biso   1.000  C
  H318     1.0000 0.62780  0.97530  0.16870  Biso   1.000  H
  H319     1.0000 0.67930  0.98930  0.14270  Biso   1.000  H
  H320     1.0000 0.65150  0.75820  0.11310  Biso   1.000  H
  Ag1      1.0000 0.62500  0.62500  0.04263  Biso   1.000  Ag
  Ag2      1.0000 0.62500  0.12500  0.54263  Biso   1.000  Ag
  Ag3      1.0000 0.12500  0.12500  0.04263  Biso   1.000  Ag
  Ag4      1.0000 0.12500  0.62500  0.54263  Biso   1.000  Ag
  Ag5      1.0000 0.12500  0.62500  0.70737  Biso   1.000  Ag
  Ag6      1.0000 0.12500  0.12500  0.20737  Biso   1.000  Ag
  Ag7      1.0000 0.62500  0.12500  0.70737  Biso   1.000  Ag
  Ag8      1.0000 0.62500  0.62500  0.20737  Biso   1.000  Ag
  Ag9      1.0000 0.37500  0.37500  0.95737  Biso   1.000  Ag
  Ag10     1.0000 0.37500  0.87500  0.45737  Biso   1.000  Ag
  Ag11     1.0000 0.87500  0.87500  0.95737  Biso   1.000  Ag
  Ag12     1.0000 0.87500  0.37500  0.45737  Biso   1.000  Ag
  Ag13     1.0000 0.87500  0.37500  0.29263  Biso   1.000  Ag
  Ag14     1.0000 0.87500  0.87500  0.79263  Biso   1.000  Ag
  Ag15     1.0000 0.37500  0.37500  0.79263  Biso   1.000  Ag
  Ag16     1.0000 0.37500  0.87500  0.29263  Biso   1.000  Ag
  C225     1.0000 0.87500  0.07410  0.87500  Biso   1.000  C
  C226     1.0000 0.87500  0.57410  0.37500  Biso   1.000  C
  C227     1.0000 0.37500  0.07410  0.37500  Biso   1.000  C
  C228     1.0000 0.37500  0.57410  0.87500  Biso   1.000  C
  C229     1.0000 0.87500  0.67590  0.87500  Biso   1.000  C
  C230     1.0000 0.87500  0.17590  0.37500  Biso   1.000  C
  C231     1.0000 0.37500  0.67590  0.37500  Biso   1.000  C
  C232     1.0000 0.37500  0.17590  0.87500  Biso   1.000  C
  C233     1.0000 0.12500  0.92590  0.12500  Biso   1.000  C
  C234     1.0000 0.12500  0.42590  0.62500  Biso   1.000  C
  C235     1.0000 0.62500  0.92590  0.62500  Biso   1.000  C
  C236     1.0000 0.62500  0.42590  0.12500  Biso   1.000  C
  C237     1.0000 0.12500  0.32410  0.12500  Biso   1.000  C
  C238     1.0000 0.12500  0.82410  0.62500  Biso   1.000  C
  C239     1.0000 0.62500  0.32410  0.62500  Biso   1.000  C
  C240     1.0000 0.62500  0.82410  0.12500  Biso   1.000  C
