data_image0
_cell_length_a       13.4418
_cell_length_b       13.4418
_cell_length_c       13.4418
_cell_angle_alpha    94.7747
_cell_angle_beta     117.283
_cell_angle_gamma    117.283

_symmetry_space_group_name_H-M    P 1
_symmetry_int_tables_number       1

loop_
  _symmetry_equiv_pos_as_xyz
  'x, y, z'

loop_
  _atom_site_label
  _atom_site_occupancy
  _atom_site_fract_x
  _atom_site_fract_y
  _atom_site_fract_z
  _atom_site_thermal_displace_type
  _atom_site_B_iso_or_equiv
  _atom_site_type_symbol
  La1      1.0000 0.73600  0.87500  0.11100  Biso   1.000  La
  La2      1.0000 0.26400  0.37500  0.13900  Biso   1.000  La
  La3      1.0000 0.76400  0.88900  0.62500  Biso   1.000  La
  La4      1.0000 0.23600  0.86100  0.12500  Biso   1.000  La
  H1       1.0000 0.11490  0.93280  0.35910  Biso   1.000  H
  H2       1.0000 0.10390  0.00210  0.44980  Biso   1.000  H
  H3       1.0000 0.54770  0.96960  0.81250  Biso   1.000  H
  H4       1.0000 0.47590  0.83170  0.74480  Biso   1.000  H
  H5       1.0000 0.88510  0.24420  0.81790  Biso   1.000  H
  H6       1.0000 0.89610  0.34590  0.89820  Biso   1.000  H
  H7       1.0000 0.45230  0.26480  0.42190  Biso   1.000  H
  H8       1.0000 0.52410  0.26890  0.35580  Biso   1.000  H
  H9       1.0000 0.57370  0.64090  0.75580  Biso   1.000  H
  H10      1.0000 0.55230  0.55020  0.65410  Biso   1.000  H
  H11      1.0000 0.15710  0.18750  0.73520  Biso   1.000  H
  H12      1.0000 0.08690  0.25520  0.73110  Biso   1.000  H
  H13      1.0000 0.42630  0.18210  0.06720  Biso   1.000  H
  H14      1.0000 0.44770  0.10180  0.99790  Biso   1.000  H
  H15      1.0000 0.84290  0.57810  0.03040  Biso   1.000  H
  H16      1.0000 0.91310  0.64420  0.16830  Biso   1.000  H
  H17      1.0000 0.07370  0.50580  0.89090  Biso   1.000  H
  H18      1.0000 0.05230  0.40410  0.80020  Biso   1.000  H
  H19      1.0000 0.65710  0.48520  0.43750  Biso   1.000  H
  H20      1.0000 0.58690  0.48110  0.50520  Biso   1.000  H
  H21      1.0000 0.92630  0.81720  0.43210  Biso   1.000  H
  H22      1.0000 0.94770  0.74790  0.35180  Biso   1.000  H
  H23      1.0000 0.34290  0.78040  0.82810  Biso   1.000  H
  H24      1.0000 0.41310  0.91830  0.89420  Biso   1.000  H
  H25      1.0000 0.38510  0.56790  0.49420  Biso   1.000  H
  H26      1.0000 0.39610  0.64820  0.59590  Biso   1.000  H
  H27      1.0000 0.95230  0.17190  0.51480  Biso   1.000  H
  H28      1.0000 0.02410  0.10580  0.51890  Biso   1.000  H
  H29      1.0000 0.61490  0.10910  0.18280  Biso   1.000  H
  H30      1.0000 0.60390  0.19980  0.25210  Biso   1.000  H
  H31      1.0000 0.04770  0.56250  0.21960  Biso   1.000  H
  H32      1.0000 0.97590  0.49480  0.08170  Biso   1.000  H
  C1       1.0000 0.08310  0.06180  0.30970  Biso   1.000  C
  C2       1.0000 0.06690  0.96660  0.36530  Biso   1.000  C
  C3       1.0000 0.68330  0.92450  0.84260  Biso   1.000  C
  C4       1.0000 0.55110  0.89990  0.81980  Biso   1.000  C
  C5       1.0000 0.91690  0.22660  0.97870  Biso   1.000  C
  C6       1.0000 0.93310  0.29840  0.89970  Biso   1.000  C
  C7       1.0000 0.31670  0.15930  0.24120  Biso   1.000  C
  C8       1.0000 0.44890  0.26870  0.34880  Biso   1.000  C
  C9       1.0000 0.75210  0.69030  0.77340  Biso   1.000  C
  C10      1.0000 0.60130  0.63470  0.70160  Biso   1.000  C
  C11      1.0000 0.08190  0.15740  0.84070  Biso   1.000  C
  C12      1.0000 0.08010  0.18020  0.73130  Biso   1.000  C
  C13      1.0000 0.24790  0.02130  0.93820  Biso   1.000  C
  C14      1.0000 0.39870  0.10030  0.03340  Biso   1.000  C
  C15      1.0000 0.91810  0.75880  0.07550  Biso   1.000  C
  C16      1.0000 0.91990  0.65120  0.10010  Biso   1.000  C
  C17      1.0000 0.25210  0.52340  0.94030  Biso   1.000  C
  C18      1.0000 0.10130  0.45160  0.88470  Biso   1.000  C
  C19      1.0000 0.58190  0.59070  0.40740  Biso   1.000  C
  C20      1.0000 0.58010  0.48130  0.43020  Biso   1.000  C
  C21      1.0000 0.74790  0.68820  0.27130  Biso   1.000  C
  C22      1.0000 0.89870  0.78340  0.35030  Biso   1.000  C
  C23      1.0000 0.41810  0.82550  0.00880  Biso   1.000  C
  C24      1.0000 0.41990  0.85010  0.90120  Biso   1.000  C
  C25      1.0000 0.41690  0.72870  0.47660  Biso   1.000  C
  C26      1.0000 0.43310  0.64970  0.54840  Biso   1.000  C
  C27      1.0000 0.81670  0.99120  0.40930  Biso   1.000  C
  C28      1.0000 0.94890  0.09880  0.51870  Biso   1.000  C
  C29      1.0000 0.58310  0.05970  0.31180  Biso   1.000  C
  C30      1.0000 0.56690  0.11530  0.21660  Biso   1.000  C
  C31      1.0000 0.18330  0.59260  0.17450  Biso   1.000  C
  C32      1.0000 0.05110  0.56980  0.14990  Biso   1.000  C
  O1       1.0000 0.19070  0.16110  0.37200  Biso   1.000  O
  O2       1.0000 0.98740  0.02990  0.20290  Biso   1.000  O
  O3       1.0000 0.75930  0.92130  0.94020  Biso   1.000  O
  O4       1.0000 0.70390  0.94460  0.76430  Biso   1.000  O
  O5       1.0000 0.54630  0.66330  0.94240  Biso   1.000  O
  O6       1.0000 0.80930  0.18130  0.97040  Biso   1.000  O
  O7       1.0000 0.01260  0.21550  0.04250  Biso   1.000  O
  O8       1.0000 0.24070  0.18090  0.16200  Biso   1.000  O
  O9       1.0000 0.29610  0.06040  0.24070  Biso   1.000  O
  O10      1.0000 0.45370  0.39610  0.11700  Biso   1.000  O
  O11      1.0000 0.78910  0.62800  0.81870  Biso   1.000  O
  O12      1.0000 0.82700  0.79710  0.78450  Biso   1.000  O
  O13      1.0000 0.98110  0.05980  0.81910  Biso   1.000  O
  O14      1.0000 0.18030  0.23570  0.93960  Biso   1.000  O
  O15      1.0000 0.72090  0.05760  0.60390  Biso   1.000  O
  O16      1.0000 0.21090  0.02960  0.83890  Biso   1.000  O
  O17      1.0000 0.17300  0.95750  0.97010  Biso   1.000  O
  O18      1.0000 0.01890  0.83800  0.07870  Biso   1.000  O
  O19      1.0000 0.81970  0.75930  0.05540  Biso   1.000  O
  O20      1.0000 0.27910  0.88300  0.33670  Biso   1.000  O
  O21      1.0000 0.28910  0.56870  0.87800  Biso   1.000  O
  O22      1.0000 0.32700  0.53450  0.04710  Biso   1.000  O
  O23      1.0000 0.48110  0.56910  0.30980  Biso   1.000  O
  O24      1.0000 0.68030  0.68960  0.48570  Biso   1.000  O
  O25      1.0000 0.22090  0.35390  0.30760  Biso   1.000  O
  O26      1.0000 0.71090  0.58890  0.27960  Biso   1.000  O
  O27      1.0000 0.67300  0.72010  0.20750  Biso   1.000  O
  O28      1.0000 0.51890  0.82870  0.08800  Biso   1.000  O
  O29      1.0000 0.31970  0.80540  0.00930  Biso   1.000  O
  O30      1.0000 0.77910  0.08670  0.13300  Biso   1.000  O
  O31      1.0000 0.30930  0.72040  0.43130  Biso   1.000  O
  O32      1.0000 0.51260  0.79250  0.46550  Biso   1.000  O
  O33      1.0000 0.74070  0.91200  0.43090  Biso   1.000  O
  O34      1.0000 0.79610  0.99070  0.31040  Biso   1.000  O
  O35      1.0000 0.95370  0.86700  0.64610  Biso   1.000  O
  O36      1.0000 0.69070  0.12200  0.41110  Biso   1.000  O
  O37      1.0000 0.48740  0.95290  0.27990  Biso   1.000  O
  O38      1.0000 0.25930  0.69020  0.17130  Biso   1.000  O
  O39      1.0000 0.20390  0.51430  0.19460  Biso   1.000  O
  O40      1.0000 0.04630  0.69240  0.91330  Biso   1.000  O
  O41      1.0000 0.92790  0.87500  0.30290  Biso   1.000  O
  O42      1.0000 0.54020  0.87500  0.91520  Biso   1.000  O
  O43      1.0000 0.07210  0.37500  0.94710  Biso   1.000  O
  O44      1.0000 0.45980  0.37500  0.33480  Biso   1.000  O
  O45      1.0000 0.57210  0.69710  0.62500  Biso   1.000  O
  O46      1.0000 0.95980  0.08480  0.62500  Biso   1.000  O
  O47      1.0000 0.42790  0.05290  0.12500  Biso   1.000  O
  O48      1.0000 0.04020  0.66520  0.12500  Biso   1.000  O
