data_image0
_cell_length_a       11.2149
_cell_length_b       17.0025
_cell_length_c       20.3176
_cell_angle_alpha    65.2652
_cell_angle_beta     87.9489
_cell_angle_gamma    85.093

_symmetry_space_group_name_H-M    P 1
_symmetry_int_tables_number       1

loop_
  _symmetry_equiv_pos_as_xyz
  'x, y, z'

loop_
  _atom_site_label
  _atom_site_occupancy
  _atom_site_fract_x
  _atom_site_fract_y
  _atom_site_fract_z
  _atom_site_thermal_displace_type
  _atom_site_B_iso_or_equiv
  _atom_site_type_symbol
  Ni1      1.0000 0.09149  0.22184  0.95052  Biso   1.000  Ni
  Ni2      1.0000 0.40851  0.82764  0.95052  Biso   1.000  Ni
  Ni3      1.0000 0.90851  0.77816  0.04948  Biso   1.000  Ni
  Ni4      1.0000 0.59149  0.17236  0.04948  Biso   1.000  Ni
  Ni5      1.0000 0.25000  0.76073  0.47854  Biso   1.000  Ni
  Ni6      1.0000 0.75000  0.23927  0.52146  Biso   1.000  Ni
  H1       1.0000 0.48990  0.35570  0.81180  Biso   1.000  H
  H2       1.0000 0.52630  0.42530  0.68980  Biso   1.000  H
  H3       1.0000 0.71580  0.41670  0.64520  Biso   1.000  H
  H4       1.0000 0.02960  0.36300  0.60240  Biso   1.000  H
  H5       1.0000 0.13160  0.48550  0.53400  Biso   1.000  H
  H6       1.0000 0.01470  0.59210  0.66800  Biso   1.000  H
  H7       1.0000 0.92060  0.46770  0.73840  Biso   1.000  H
  H8       1.0000 0.16890  0.77020  0.33440  Biso   1.000  H
  H9       1.0000 0.03640  0.84990  0.24320  Biso   1.000  H
  H10      1.0000 0.89170  0.95970  0.37060  Biso   1.000  H
  H11      1.0000 0.03250  0.88040  0.45640  Biso   1.000  H
  H12      1.0000 0.83430  0.07310  0.06440  Biso   1.000  H
  H13      1.0000 0.96610  0.98160  0.15060  Biso   1.000  H
  H14      1.0000 0.72490  0.97900  0.30120  Biso   1.000  H
  H15      1.0000 0.59920  0.06890  0.21060  Biso   1.000  H
  H16      1.0000 0.31870  0.30530  0.94360  Biso   1.000  H
  H17      1.0000 0.38750  0.42980  0.93720  Biso   1.000  H
  H18      1.0000 0.05330  0.54040  0.89620  Biso   1.000  H
  H19      1.0000 0.99390  0.41180  0.90400  Biso   1.000  H
  H20      1.0000 0.09860  0.05940  0.99240  Biso   1.000  H
  H21      1.0000 0.00440  0.10220  0.94480  Biso   1.000  H
  H22      1.0000 0.01010  0.83250  0.81180  Biso   1.000  H
  H23      1.0000 0.97370  0.88490  0.68980  Biso   1.000  H
  H24      1.0000 0.78420  0.93810  0.64520  Biso   1.000  H
  H25      1.0000 0.47040  0.03460  0.60240  Biso   1.000  H
  H26      1.0000 0.36840  0.98050  0.53400  Biso   1.000  H
  H27      1.0000 0.48530  0.73990  0.66800  Biso   1.000  H
  H28      1.0000 0.57940  0.79390  0.73840  Biso   1.000  H
  H29      1.0000 0.33110  0.89540  0.33440  Biso   1.000  H
  H30      1.0000 0.46360  0.90690  0.24320  Biso   1.000  H
  H31      1.0000 0.60830  0.66970  0.37060  Biso   1.000  H
  H32      1.0000 0.46750  0.66320  0.45640  Biso   1.000  H
  H33      1.0000 0.66570  0.86250  0.06440  Biso   1.000  H
  H34      1.0000 0.53390  0.86780  0.15060  Biso   1.000  H
  H35      1.0000 0.77510  0.71980  0.30120  Biso   1.000  H
  H36      1.0000 0.90080  0.72050  0.21060  Biso   1.000  H
  H37      1.0000 0.18130  0.75110  0.94360  Biso   1.000  H
  H38      1.0000 0.11250  0.63300  0.93720  Biso   1.000  H
  H39      1.0000 0.44670  0.56340  0.89620  Biso   1.000  H
  H40      1.0000 0.50610  0.68420  0.90400  Biso   1.000  H
  H41      1.0000 0.40140  0.94820  0.99240  Biso   1.000  H
  H42      1.0000 0.49560  0.95300  0.94480  Biso   1.000  H
  H43      1.0000 0.51010  0.64430  0.18820  Biso   1.000  H
  H44      1.0000 0.47370  0.57470  0.31020  Biso   1.000  H
  H45      1.0000 0.28420  0.58330  0.35480  Biso   1.000  H
  H46      1.0000 0.97040  0.63700  0.39760  Biso   1.000  H
  H47      1.0000 0.86840  0.51450  0.46600  Biso   1.000  H
  H48      1.0000 0.98530  0.40790  0.33200  Biso   1.000  H
  H49      1.0000 0.07940  0.53230  0.26160  Biso   1.000  H
  H50      1.0000 0.83110  0.22980  0.66560  Biso   1.000  H
  H51      1.0000 0.96360  0.15010  0.75680  Biso   1.000  H
  H52      1.0000 0.10830  0.04030  0.62940  Biso   1.000  H
  H53      1.0000 0.96750  0.11960  0.54360  Biso   1.000  H
  H54      1.0000 0.16570  0.92690  0.93560  Biso   1.000  H
  H55      1.0000 0.03390  0.01840  0.84940  Biso   1.000  H
  H56      1.0000 0.27510  0.02100  0.69880  Biso   1.000  H
  H57      1.0000 0.40080  0.93110  0.78940  Biso   1.000  H
  H58      1.0000 0.68130  0.69470  0.05640  Biso   1.000  H
  H59      1.0000 0.61250  0.57020  0.06280  Biso   1.000  H
  H60      1.0000 0.94670  0.45960  0.10380  Biso   1.000  H
  H61      1.0000 0.00610  0.58820  0.09600  Biso   1.000  H
  H62      1.0000 0.90140  0.94060  0.00760  Biso   1.000  H
  H63      1.0000 0.99560  0.89780  0.05520  Biso   1.000  H
  H64      1.0000 0.98990  0.16750  0.18820  Biso   1.000  H
  H65      1.0000 0.02630  0.11510  0.31020  Biso   1.000  H
  H66      1.0000 0.21580  0.06190  0.35480  Biso   1.000  H
  H67      1.0000 0.52960  0.96540  0.39760  Biso   1.000  H
  H68      1.0000 0.63160  0.01950  0.46600  Biso   1.000  H
  H69      1.0000 0.51470  0.26010  0.33200  Biso   1.000  H
  H70      1.0000 0.42060  0.20610  0.26160  Biso   1.000  H
  H71      1.0000 0.66890  0.10460  0.66560  Biso   1.000  H
  H72      1.0000 0.53640  0.09310  0.75680  Biso   1.000  H
  H73      1.0000 0.39170  0.33030  0.62940  Biso   1.000  H
  H74      1.0000 0.53250  0.33680  0.54360  Biso   1.000  H
  H75      1.0000 0.33430  0.13750  0.93560  Biso   1.000  H
  H76      1.0000 0.46610  0.13220  0.84940  Biso   1.000  H
  H77      1.0000 0.22490  0.28020  0.69880  Biso   1.000  H
  H78      1.0000 0.09920  0.27950  0.78940  Biso   1.000  H
  H79      1.0000 0.81870  0.24890  0.05640  Biso   1.000  H
  H80      1.0000 0.88750  0.36700  0.06280  Biso   1.000  H
  H81      1.0000 0.55330  0.43660  0.10380  Biso   1.000  H
  H82      1.0000 0.49390  0.31580  0.09600  Biso   1.000  H
  H83      1.0000 0.59860  0.05180  0.00760  Biso   1.000  H
  H84      1.0000 0.50440  0.04700  0.05520  Biso   1.000  H
  C1       1.0000 0.63090  0.25506  0.92108  Biso   1.000  C
  C2       1.0000 0.87840  0.23851  0.86192  Biso   1.000  C
  C3       1.0000 0.65820  0.30089  0.84182  Biso   1.000  C
  C4       1.0000 0.56650  0.35087  0.79406  Biso   1.000  C
  C5       1.0000 0.58840  0.39309  0.72122  Biso   1.000  C
  C6       1.0000 0.70110  0.38803  0.69454  Biso   1.000  C
  C7       1.0000 0.79360  0.33977  0.74166  Biso   1.000  C
  C8       1.0000 0.77450  0.29401  0.81544  Biso   1.000  C
  C9       1.0000 0.96260  0.40640  0.67420  Biso   1.000  C
  C10      1.0000 0.02630  0.40949  0.61542  Biso   1.000  C
  C11      1.0000 0.08730  0.48330  0.57420  Biso   1.000  C
  C12      1.0000 0.08190  0.55229  0.59302  Biso   1.000  C
  C13      1.0000 0.01850  0.54612  0.65436  Biso   1.000  C
  C14      1.0000 0.96040  0.47224  0.69612  Biso   1.000  C
  C15      1.0000 0.14360  0.63217  0.54866  Biso   1.000  C
  C16      1.0000 0.11380  0.81031  0.34098  Biso   1.000  C
  C17      1.0000 0.03350  0.85728  0.28604  Biso   1.000  C
  C18      1.0000 0.94870  0.91562  0.29556  Biso   1.000  C
  C19      1.0000 0.94880  0.92257  0.36146  Biso   1.000  C
  C20      1.0000 0.03340  0.87434  0.41292  Biso   1.000  C
  C21      1.0000 0.81220  0.05393  0.11294  Biso   1.000  C
  C22      1.0000 0.89220  0.99933  0.16434  Biso   1.000  C
  C23      1.0000 0.86210  0.97045  0.23750  Biso   1.000  C
  C24      1.0000 0.74980  0.99756  0.25328  Biso   1.000  C
  C25      1.0000 0.67460  0.05188  0.19824  Biso   1.000  C
  C26      1.0000 0.26410  0.35277  0.93546  Biso   1.000  C
  C27      1.0000 0.30620  0.42768  0.93124  Biso   1.000  C
  C28      1.0000 0.22900  0.50045  0.91810  Biso   1.000  C
  C29      1.0000 0.10900  0.49301  0.90698  Biso   1.000  C
  C30      1.0000 0.07400  0.41510  0.91220  Biso   1.000  C
  C31      1.0000 0.86910  0.82386  0.92108  Biso   1.000  C
  C32      1.0000 0.62160  0.89957  0.86192  Biso   1.000  C
  C33      1.0000 0.84180  0.85729  0.84182  Biso   1.000  C
  C34      1.0000 0.93350  0.85507  0.79406  Biso   1.000  C
  C35      1.0000 0.91160  0.88569  0.72122  Biso   1.000  C
  C36      1.0000 0.79890  0.91743  0.69454  Biso   1.000  C
  C37      1.0000 0.70640  0.91857  0.74166  Biso   1.000  C
  C38      1.0000 0.72550  0.89055  0.81544  Biso   1.000  C
  C39      1.0000 0.53740  0.91940  0.67420  Biso   1.000  C
  C40      1.0000 0.47370  0.97509  0.61542  Biso   1.000  C
  C41      1.0000 0.41270  0.94250  0.57420  Biso   1.000  C
  C42      1.0000 0.41810  0.85469  0.59302  Biso   1.000  C
  C43      1.0000 0.48150  0.79952  0.65436  Biso   1.000  C
  C44      1.0000 0.53960  0.83164  0.69612  Biso   1.000  C
  C45      1.0000 0.35640  0.81917  0.54866  Biso   1.000  C
  C46      1.0000 0.38620  0.84871  0.34098  Biso   1.000  C
  C47      1.0000 0.46650  0.85668  0.28604  Biso   1.000  C
  C48      1.0000 0.55130  0.78882  0.29556  Biso   1.000  C
  C49      1.0000 0.55120  0.71597  0.36146  Biso   1.000  C
  C50      1.0000 0.46660  0.71274  0.41292  Biso   1.000  C
  C51      1.0000 0.68780  0.83313  0.11294  Biso   1.000  C
  C52      1.0000 0.60780  0.83633  0.16434  Biso   1.000  C
  C53      1.0000 0.63790  0.79205  0.23750  Biso   1.000  C
  C54      1.0000 0.75020  0.74916  0.25328  Biso   1.000  C
  C55      1.0000 0.82540  0.74988  0.19824  Biso   1.000  C
  C56      1.0000 0.23590  0.71177  0.93546  Biso   1.000  C
  C57      1.0000 0.19380  0.64108  0.93124  Biso   1.000  C
  C58      1.0000 0.27100  0.58145  0.91810  Biso   1.000  C
  C59      1.0000 0.39100  0.60001  0.90698  Biso   1.000  C
  C60      1.0000 0.42600  0.67270  0.91220  Biso   1.000  C
  C61      1.0000 0.36910  0.74494  0.07892  Biso   1.000  C
  C62      1.0000 0.12160  0.76149  0.13808  Biso   1.000  C
  C63      1.0000 0.34180  0.69911  0.15818  Biso   1.000  C
  C64      1.0000 0.43350  0.64913  0.20594  Biso   1.000  C
  C65      1.0000 0.41160  0.60691  0.27878  Biso   1.000  C
  C66      1.0000 0.29890  0.61197  0.30546  Biso   1.000  C
  C67      1.0000 0.20640  0.66023  0.25834  Biso   1.000  C
  C68      1.0000 0.22550  0.70599  0.18456  Biso   1.000  C
  C69      1.0000 0.03740  0.59360  0.32580  Biso   1.000  C
  C70      1.0000 0.97370  0.59051  0.38458  Biso   1.000  C
  C71      1.0000 0.91270  0.51670  0.42580  Biso   1.000  C
  C72      1.0000 0.91810  0.44771  0.40698  Biso   1.000  C
  C73      1.0000 0.98150  0.45388  0.34564  Biso   1.000  C
  C74      1.0000 0.03960  0.52776  0.30388  Biso   1.000  C
  C75      1.0000 0.85640  0.36783  0.45134  Biso   1.000  C
  C76      1.0000 0.88620  0.18969  0.65902  Biso   1.000  C
  C77      1.0000 0.96650  0.14272  0.71396  Biso   1.000  C
  C78      1.0000 0.05130  0.08438  0.70444  Biso   1.000  C
  C79      1.0000 0.05120  0.07743  0.63854  Biso   1.000  C
  C80      1.0000 0.96660  0.12566  0.58708  Biso   1.000  C
  C81      1.0000 0.18780  0.94607  0.88706  Biso   1.000  C
  C82      1.0000 0.10780  0.00067  0.83566  Biso   1.000  C
  C83      1.0000 0.13790  0.02955  0.76250  Biso   1.000  C
  C84      1.0000 0.25020  0.00244  0.74672  Biso   1.000  C
  C85      1.0000 0.32540  0.94812  0.80176  Biso   1.000  C
  C86      1.0000 0.73590  0.64723  0.06454  Biso   1.000  C
  C87      1.0000 0.69380  0.57232  0.06876  Biso   1.000  C
  C88      1.0000 0.77100  0.49955  0.08190  Biso   1.000  C
  C89      1.0000 0.89100  0.50699  0.09302  Biso   1.000  C
  C90      1.0000 0.92600  0.58490  0.08780  Biso   1.000  C
  C91      1.0000 0.13090  0.17614  0.07892  Biso   1.000  C
  C92      1.0000 0.37840  0.10043  0.13808  Biso   1.000  C
  C93      1.0000 0.15820  0.14271  0.15818  Biso   1.000  C
  C94      1.0000 0.06650  0.14493  0.20594  Biso   1.000  C
  C95      1.0000 0.08840  0.11431  0.27878  Biso   1.000  C
  C96      1.0000 0.20110  0.08257  0.30546  Biso   1.000  C
  C97      1.0000 0.29360  0.08143  0.25834  Biso   1.000  C
  C98      1.0000 0.27450  0.10945  0.18456  Biso   1.000  C
  C99      1.0000 0.46260  0.08060  0.32580  Biso   1.000  C
  C100     1.0000 0.52630  0.02491  0.38458  Biso   1.000  C
  C101     1.0000 0.58730  0.05750  0.42580  Biso   1.000  C
  C102     1.0000 0.58190  0.14531  0.40698  Biso   1.000  C
  C103     1.0000 0.51850  0.20048  0.34564  Biso   1.000  C
  C104     1.0000 0.46040  0.16836  0.30388  Biso   1.000  C
  C105     1.0000 0.64360  0.18083  0.45134  Biso   1.000  C
  C106     1.0000 0.61380  0.15129  0.65902  Biso   1.000  C
  C107     1.0000 0.53350  0.14332  0.71396  Biso   1.000  C
  C108     1.0000 0.44870  0.21118  0.70444  Biso   1.000  C
  C109     1.0000 0.44880  0.28403  0.63854  Biso   1.000  C
  C110     1.0000 0.53340  0.28726  0.58708  Biso   1.000  C
  C111     1.0000 0.31220  0.16687  0.88706  Biso   1.000  C
  C112     1.0000 0.39220  0.16367  0.83566  Biso   1.000  C
  C113     1.0000 0.36210  0.20795  0.76250  Biso   1.000  C
  C114     1.0000 0.24980  0.25084  0.74672  Biso   1.000  C
  C115     1.0000 0.17460  0.25012  0.80176  Biso   1.000  C
  C116     1.0000 0.76410  0.28823  0.06454  Biso   1.000  C
  C117     1.0000 0.80620  0.35892  0.06876  Biso   1.000  C
  C118     1.0000 0.72900  0.41855  0.08190  Biso   1.000  C
  C119     1.0000 0.60900  0.39999  0.09302  Biso   1.000  C
  C120     1.0000 0.57400  0.32730  0.08780  Biso   1.000  C
  N1       1.0000 0.11690  0.81911  0.40324  Biso   1.000  N
  N2       1.0000 0.70340  0.08157  0.12842  Biso   1.000  N
  N3       1.0000 0.14820  0.34379  0.92844  Biso   1.000  N
  N4       1.0000 0.38310  0.77765  0.40324  Biso   1.000  N
  N5       1.0000 0.79660  0.79001  0.12842  Biso   1.000  N
  N6       1.0000 0.35180  0.72777  0.92844  Biso   1.000  N
  N7       1.0000 0.88310  0.18089  0.59676  Biso   1.000  N
  N8       1.0000 0.29660  0.91843  0.87158  Biso   1.000  N
  N9       1.0000 0.85180  0.65621  0.07156  Biso   1.000  N
  N10      1.0000 0.61690  0.22235  0.59676  Biso   1.000  N
  N11      1.0000 0.20340  0.20999  0.87158  Biso   1.000  N
  N12      1.0000 0.64820  0.27223  0.07156  Biso   1.000  N
  O1       1.0000 0.71052  0.20259  0.96266  Biso   1.000  O
  O2       1.0000 0.53040  0.26938  0.94522  Biso   1.000  O
  O3       1.0000 0.89480  0.16192  0.86840  Biso   1.000  O
  O4       1.0000 0.94478  0.27639  0.88688  Biso   1.000  O
  O5       1.0000 0.90830  0.33049  0.71538  Biso   1.000  O
  O6       1.0000 0.12350  0.69972  0.56014  Biso   1.000  O
  O7       1.0000 0.21710  0.63289  0.49968  Biso   1.000  O
  O8       1.0000 0.03860  0.09599  0.98342  Biso   1.000  O
  O9       1.0000 0.78948  0.83475  0.96266  Biso   1.000  O
  O10      1.0000 0.96960  0.78540  0.94522  Biso   1.000  O
  O11      1.0000 0.60520  0.96968  0.86840  Biso   1.000  O
  O12      1.0000 0.55522  0.83673  0.88688  Biso   1.000  O
  O13      1.0000 0.59170  0.95413  0.71538  Biso   1.000  O
  O14      1.0000 0.37650  0.74014  0.56014  Biso   1.000  O
  O15      1.0000 0.28290  0.86743  0.49968  Biso   1.000  O
  O16      1.0000 0.46140  0.92059  0.98342  Biso   1.000  O
  O17      1.0000 0.28948  0.79741  0.03734  Biso   1.000  O
  O18      1.0000 0.46960  0.73062  0.05478  Biso   1.000  O
  O19      1.0000 0.10520  0.83808  0.13160  Biso   1.000  O
  O20      1.0000 0.05522  0.72361  0.11312  Biso   1.000  O
  O21      1.0000 0.09170  0.66951  0.28462  Biso   1.000  O
  O22      1.0000 0.87650  0.30028  0.43986  Biso   1.000  O
  O23      1.0000 0.78290  0.36711  0.50032  Biso   1.000  O
  O24      1.0000 0.96140  0.90401  0.01658  Biso   1.000  O
  O25      1.0000 0.21052  0.16525  0.03734  Biso   1.000  O
  O26      1.0000 0.03040  0.21460  0.05478  Biso   1.000  O
  O27      1.0000 0.39480  0.03032  0.13160  Biso   1.000  O
  O28      1.0000 0.44478  0.16327  0.11312  Biso   1.000  O
  O29      1.0000 0.40830  0.04587  0.28462  Biso   1.000  O
  O30      1.0000 0.62350  0.25986  0.43986  Biso   1.000  O
  O31      1.0000 0.71710  0.13257  0.50032  Biso   1.000  O
  O32      1.0000 0.53860  0.07941  0.01658  Biso   1.000  O
