data_image0
_cell_length_a       4.3276
_cell_length_b       17.3181
_cell_length_c       6.7624
_cell_angle_alpha    90
_cell_angle_beta     90
_cell_angle_gamma    90

_symmetry_space_group_name_H-M    "P 1"
_symmetry_int_tables_number       1

loop_
  _symmetry_equiv_pos_as_xyz
  'x, y, z'

loop_
  _atom_site_label
  _atom_site_occupancy
  _atom_site_fract_x
  _atom_site_fract_y
  _atom_site_fract_z
  _atom_site_thermal_displace_type
  _atom_site_B_iso_or_equiv
  _atom_site_type_symbol
  P1       1.0000 0.47400  0.16030  0.99100  Biso   1.000  P
  O1       1.0000 0.32700  0.18640  0.18600  Biso   1.000  O
  O2       1.0000 0.77400  0.21470  0.96200  Biso   1.000  O
  O3       1.0000 0.28600  0.16270  0.80700  Biso   1.000  O
  Cu1      1.0000 0.00700  0.25670  0.22530  Biso   1.000  Cu
  C1       1.0000 0.63600  0.06290  0.04100  Biso   1.000  C
  P2       1.0000 0.52600  0.83970  0.99100  Biso   1.000  P
  O4       1.0000 0.67300  0.81360  0.18600  Biso   1.000  O
  O5       1.0000 0.22600  0.78530  0.96200  Biso   1.000  O
  O6       1.0000 0.71400  0.83730  0.80700  Biso   1.000  O
  Cu2      1.0000 0.99300  0.74330  0.22530  Biso   1.000  Cu
  C2       1.0000 0.36400  0.93710  0.04100  Biso   1.000  C
  P3       1.0000 0.47400  0.33970  0.49100  Biso   1.000  P
  O7       1.0000 0.32700  0.31360  0.68600  Biso   1.000  O
  O8       1.0000 0.77400  0.28530  0.46200  Biso   1.000  O
  O9       1.0000 0.28600  0.33730  0.30700  Biso   1.000  O
  Cu3      1.0000 0.00700  0.24330  0.72530  Biso   1.000  Cu
  C3       1.0000 0.63600  0.43710  0.54100  Biso   1.000  C
  P4       1.0000 0.52600  0.66030  0.49100  Biso   1.000  P
  O10      1.0000 0.67300  0.68640  0.68600  Biso   1.000  O
  O11      1.0000 0.22600  0.71470  0.46200  Biso   1.000  O
  O12      1.0000 0.71400  0.66270  0.30700  Biso   1.000  O
  Cu4      1.0000 0.99300  0.75670  0.72530  Biso   1.000  Cu
  C4       1.0000 0.36400  0.56290  0.54100  Biso   1.000  C
  C5       1.0000 0.50000  0.00000  0.92300  Biso   1.000  C
  C6       1.0000 0.50000  0.50000  0.42300  Biso   1.000  C
