data_image0
_cell_length_a       9.147
_cell_length_b       9.219
_cell_length_c       14.604
_cell_angle_alpha    97.973
_cell_angle_beta     104.956
_cell_angle_gamma    104.565

_symmetry_space_group_name_H-M    P 1
_symmetry_int_tables_number       1

loop_
  _symmetry_equiv_pos_as_xyz
  'x, y, z'

loop_
  _atom_site_label
  _atom_site_occupancy
  _atom_site_fract_x
  _atom_site_fract_y
  _atom_site_fract_z
  _atom_site_thermal_displace_type
  _atom_site_B_iso_or_equiv
  _atom_site_type_symbol
  Cd1      1.0000 0.59716  0.07904  0.18877  Biso   1.000  Cd
  Cd2      1.0000 0.33834  0.24758  0.59602  Biso   1.000  Cd
  H1       1.0000 0.92530  0.15960  0.50660  Biso   1.000  H
  H2       1.0000 0.75660  0.17030  0.60600  Biso   1.000  H
  H3       1.0000 0.17610  0.20500  0.77500  Biso   1.000  H
  H4       1.0000 0.10590  0.28840  0.90890  Biso   1.000  H
  H5       1.0000 0.99560  0.25130  0.03850  Biso   1.000  H
  H6       1.0000 0.56630  0.09100  0.85570  Biso   1.000  H
  H7       1.0000 0.65430  0.10710  0.72580  Biso   1.000  H
  H8       1.0000 0.18020  0.16830  0.36320  Biso   1.000  H
  H9       1.0000 0.01540  0.29080  0.26200  Biso   1.000  H
  H10      1.0000 0.19540  0.55210  0.52440  Biso   1.000  H
  H11      1.0000 0.03400  0.69550  0.48600  Biso   1.000  H
  H12      1.0000 0.90270  0.87010  0.42770  Biso   1.000  H
  H13      1.0000 0.79220  0.64090  0.15780  Biso   1.000  H
  H14      1.0000 0.93350  0.47480  0.20670  Biso   1.000  H
  H15      1.0000 0.26160  0.13810  0.22650  Biso   1.000  H
  H16      1.0000 0.99650  0.01420  0.12390  Biso   1.000  H
  H17      1.0000 0.27290  0.78350  0.05700  Biso   1.000  H
  H18      1.0000 0.78010  0.79230  0.03420  Biso   1.000  H
  H19      1.0000 0.57990  0.62190  0.90630  Biso   1.000  H
  H20      1.0000 0.87970  0.49980  0.78390  Biso   1.000  H
  H21      1.0000 0.08920  0.68360  0.90270  Biso   1.000  H
  H22      1.0000 0.70170  0.18980  0.42030  Biso   1.000  H
  H23      1.0000 0.65430  0.39020  0.52080  Biso   1.000  H
  H24      1.0000 0.52970  0.43890  0.24730  Biso   1.000  H
  H25      1.0000 0.64840  0.63410  0.56750  Biso   1.000  H
  H26      1.0000 0.54930  0.82060  0.62060  Biso   1.000  H
  H27      1.0000 0.35720  0.84490  0.34300  Biso   1.000  H
  H28      1.0000 0.43210  0.62410  0.29380  Biso   1.000  H
  C1       1.0000 0.95510  0.17180  0.57370  Biso   1.000  C
  C2       1.0000 0.86320  0.17570  0.62770  Biso   1.000  C
  C3       1.0000 0.09390  0.19600  0.71950  Biso   1.000  C
  C4       1.0000 0.88820  0.18810  0.80330  Biso   1.000  C
  C5       1.0000 0.99790  0.24420  0.89770  Biso   1.000  C
  C6       1.0000 0.92800  0.22690  0.97530  Biso   1.000  C
  C7       1.0000 0.77780  0.18000  0.96190  Biso   1.000  C
  C8       1.0000 0.67460  0.13000  0.86550  Biso   1.000  C
  C9       1.0000 0.72550  0.13640  0.78820  Biso   1.000  C
  C10      1.0000 0.70760  0.15690  0.04420  Biso   1.000  C
  C11      1.0000 0.16400  0.26180  0.38300  Biso   1.000  C
  C12      1.0000 0.07320  0.32880  0.32730  Biso   1.000  C
  C13      1.0000 0.17290  0.47240  0.47140  Biso   1.000  C
  C14      1.0000 0.00240  0.57050  0.35300  Biso   1.000  C
  C15      1.0000 0.98950  0.68550  0.41970  Biso   1.000  C
  C16      1.0000 0.90670  0.78820  0.38430  Biso   1.000  C
  C17      1.0000 0.83390  0.76760  0.28830  Biso   1.000  C
  C18      1.0000 0.84340  0.65260  0.22350  Biso   1.000  C
  C19      1.0000 0.92690  0.55220  0.25220  Biso   1.000  C
  C20      1.0000 0.74230  0.87530  0.25480  Biso   1.000  C
  C21      1.0000 0.23070  0.05210  0.17640  Biso   1.000  C
  C22      1.0000 0.08530  0.98420  0.12120  Biso   1.000  C
  C23      1.0000 0.23820  0.86080  0.08400  Biso   1.000  C
  C24      1.0000 0.95730  0.75590  0.98250  Biso   1.000  C
  C25      1.0000 0.80270  0.73830  0.98360  Biso   1.000  C
  C26      1.0000 0.68400  0.63620  0.90570  Biso   1.000  C
  C27      1.0000 0.70700  0.55490  0.82820  Biso   1.000  C
  C28      1.0000 0.86000  0.56410  0.83120  Biso   1.000  C
  C29      1.0000 0.98600  0.67000  0.90480  Biso   1.000  C
  C30      1.0000 0.57710  0.44500  0.74840  Biso   1.000  C
  C31      1.0000 0.66110  0.26630  0.39900  Biso   1.000  C
  C32      1.0000 0.63880  0.37740  0.45430  Biso   1.000  C
  C33      1.0000 0.56880  0.40430  0.30280  Biso   1.000  C
  C34      1.0000 0.53600  0.60550  0.42280  Biso   1.000  C
  C35      1.0000 0.58210  0.67090  0.52310  Biso   1.000  C
  C36      1.0000 0.53000  0.78670  0.55430  Biso   1.000  C
  C37      1.0000 0.44490  0.85820  0.48810  Biso   1.000  C
  C38      1.0000 0.40980  0.79980  0.38890  Biso   1.000  C
  C39      1.0000 0.45790  0.66670  0.35960  Biso   1.000  C
  C40      1.0000 0.40120  0.98950  0.52260  Biso   1.000  C
  N1       1.0000 0.11100  0.18960  0.63590  Biso   1.000  N
  N2       1.0000 0.94780  0.18880  0.72040  Biso   1.000  N
  N3       1.0000 0.22940  0.35370  0.47410  Biso   1.000  N
  N4       1.0000 0.08050  0.46280  0.38350  Biso   1.000  N
  N5       1.0000 0.33170  0.97880  0.15010  Biso   1.000  N
  N6       1.0000 0.08750  0.86000  0.05820  Biso   1.000  N
  N7       1.0000 0.61480  0.28050  0.30380  Biso   1.000  N
  N8       1.0000 0.58690  0.47450  0.39500  Biso   1.000  N
  O1       1.0000 0.80590  0.16900  0.12710  Biso   1.000  O
  O2       1.0000 0.56770  0.13110  0.03240  Biso   1.000  O
  O3       1.0000 0.75990  0.99740  0.31200  Biso   1.000  O
  O4       1.0000 0.65290  0.83830  0.16640  Biso   1.000  O
  O5       1.0000 0.59820  0.40770  0.66960  Biso   1.000  O
  O6       1.0000 0.44700  0.38480  0.76380  Biso   1.000  O
  O7       1.0000 0.39260  0.01520  0.61240  Biso   1.000  O
  O8       1.0000 0.35840  0.07150  0.46800  Biso   1.000  O
