data_image0
_cell_length_a       7.97
_cell_length_b       9.419
_cell_length_c       10.391
_cell_angle_alpha    95.79
_cell_angle_beta     112.084
_cell_angle_gamma    110.002

_symmetry_space_group_name_H-M    "P 1"
_symmetry_int_tables_number       1

loop_
  _symmetry_equiv_pos_as_xyz
  'x, y, z'

loop_
  _atom_site_label
  _atom_site_occupancy
  _atom_site_fract_x
  _atom_site_fract_y
  _atom_site_fract_z
  _atom_site_thermal_displace_type
  _atom_site_B_iso_or_equiv
  _atom_site_type_symbol
  Eu1      1.0000 0.28165  0.05090  0.01101  Biso   1.000  Eu
  O1       1.0000 0.92730  0.98280  0.86240  Biso   1.000  O
  O2       1.0000 0.49720  0.04330  0.24200  Biso   1.000  O
  O3       1.0000 0.75690  0.00710  0.23070  Biso   1.000  O
  O4       1.0000 0.39160  0.31340  0.16900  Biso   1.000  O
  O5       1.0000 0.25640  0.28110  0.93420  Biso   1.000  O
  O6       1.0000 0.10460  0.76210  0.97240  Biso   1.000  O
  O7       1.0000 0.39880  0.83250  0.97680  Biso   1.000  O
  N1       1.0000 0.85950  0.99300  0.72500  Biso   1.000  N
  C1       1.0000 0.80830  0.86820  0.62060  Biso   1.000  C
  H1       1.0000 0.81580  0.77480  0.64350  Biso   1.000  H
  C2       1.0000 0.74460  0.87730  0.47950  Biso   1.000  C
  H2       1.0000 0.71430  0.79180  0.40540  Biso   1.000  H
  C3       1.0000 0.72490  0.01080  0.44620  Biso   1.000  C
  C4       1.0000 0.77300  0.13580  0.55790  Biso   1.000  C
  H3       1.0000 0.75620  0.22740  0.53720  Biso   1.000  H
  C5       1.0000 0.84430  0.12510  0.69710  Biso   1.000  C
  H4       1.0000 0.88290  0.21130  0.77390  Biso   1.000  H
  C6       1.0000 0.65300  0.02170  0.29240  Biso   1.000  C
  C7       1.0000 0.32410  0.36350  0.06040  Biso   1.000  C
  C8       1.0000 0.32770  0.52670  0.08380  Biso   1.000  C
  H5       1.0000 0.46730  0.60550  0.13060  Biso   1.000  H
  H6       1.0000 0.26650  0.53780  0.14920  Biso   1.000  H
  C9       1.0000 0.21590  0.55850  0.94240  Biso   1.000  C
  H7       1.0000 0.26710  0.53600  0.87310  Biso   1.000  H
  H8       1.0000 0.07310  0.48760  0.90100  Biso   1.000  H
  C10      1.0000 0.23900  0.72500  0.96420  Biso   1.000  C
  Eu2      1.0000 0.71835  0.94910  0.98899  Biso   1.000  Eu
  O8       1.0000 0.07270  0.01720  0.13760  Biso   1.000  O
  O9       1.0000 0.50280  0.95670  0.75800  Biso   1.000  O
  O10      1.0000 0.24310  0.99290  0.76930  Biso   1.000  O
  O11      1.0000 0.60840  0.68660  0.83100  Biso   1.000  O
  O12      1.0000 0.74360  0.71890  0.06580  Biso   1.000  O
  O13      1.0000 0.89540  0.23790  0.02760  Biso   1.000  O
  O14      1.0000 0.60120  0.16750  0.02320  Biso   1.000  O
  N2       1.0000 0.14050  0.00700  0.27500  Biso   1.000  N
  C11      1.0000 0.19170  0.13180  0.37940  Biso   1.000  C
  H9       1.0000 0.18420  0.22520  0.35650  Biso   1.000  H
  C12      1.0000 0.25540  0.12270  0.52050  Biso   1.000  C
  H10      1.0000 0.28570  0.20820  0.59460  Biso   1.000  H
  C13      1.0000 0.27510  0.98920  0.55380  Biso   1.000  C
  C14      1.0000 0.22700  0.86420  0.44210  Biso   1.000  C
  H11      1.0000 0.24380  0.77260  0.46280  Biso   1.000  H
  C15      1.0000 0.15570  0.87490  0.30290  Biso   1.000  C
  H12      1.0000 0.11710  0.78870  0.22610  Biso   1.000  H
  C16      1.0000 0.34700  0.97830  0.70760  Biso   1.000  C
  C17      1.0000 0.67590  0.63650  0.93960  Biso   1.000  C
  C18      1.0000 0.67230  0.47330  0.91620  Biso   1.000  C
  H13      1.0000 0.53270  0.39450  0.86940  Biso   1.000  H
  H14      1.0000 0.73350  0.46220  0.85080  Biso   1.000  H
  C19      1.0000 0.78410  0.44150  0.05760  Biso   1.000  C
  H15      1.0000 0.73290  0.46400  0.12690  Biso   1.000  H
  H16      1.0000 0.92690  0.51240  0.09900  Biso   1.000  H
  C20      1.0000 0.76100  0.27500  0.03580  Biso   1.000  C
