data_image0
_cell_length_a       10.23
_cell_length_b       11.839
_cell_length_c       26.071
_cell_angle_alpha    90
_cell_angle_beta     90.589
_cell_angle_gamma    90

_symmetry_space_group_name_H-M    P 1
_symmetry_int_tables_number       1

loop_
  _symmetry_equiv_pos_as_xyz
  'x, y, z'

loop_
  _atom_site_label
  _atom_site_occupancy
  _atom_site_fract_x
  _atom_site_fract_y
  _atom_site_fract_z
  _atom_site_thermal_displace_type
  _atom_site_B_iso_or_equiv
  _atom_site_type_symbol
  Ag1      1.0000 0.84141  0.96958  0.95522  Biso   1.000  Ag
  Ag2      1.0000 0.34141  0.53042  0.45522  Biso   1.000  Ag
  H1       1.0000 0.55640  0.22200  0.31750  Biso   1.000  H
  H2       1.0000 0.81030  0.95460  0.33110  Biso   1.000  H
  H3       1.0000 0.73520  0.79380  0.37130  Biso   1.000  H
  H4       1.0000 0.36780  0.89430  0.34460  Biso   1.000  H
  H5       1.0000 0.44110  0.05390  0.30410  Biso   1.000  H
  H6       1.0000 0.86000  0.27140  0.25110  Biso   1.000  H
  H7       1.0000 0.01910  0.37970  0.28950  Biso   1.000  H
  H8       1.0000 0.93300  0.23610  0.42540  Biso   1.000  H
  H9       1.0000 0.77170  0.12970  0.38520  Biso   1.000  H
  H10      1.0000 0.53600  0.16840  0.20400  Biso   1.000  H
  H11      1.0000 0.56550  0.11340  0.12030  Biso   1.000  H
  H12      1.0000 0.90630  0.96740  0.15890  Biso   1.000  H
  H13      1.0000 0.87670  0.02510  0.24360  Biso   1.000  H
  H14      1.0000 0.05640  0.27800  0.81750  Biso   1.000  H
  H15      1.0000 0.31030  0.54540  0.83110  Biso   1.000  H
  H16      1.0000 0.23520  0.70620  0.87130  Biso   1.000  H
  H17      1.0000 0.86780  0.60570  0.84460  Biso   1.000  H
  H18      1.0000 0.94110  0.44610  0.80410  Biso   1.000  H
  H19      1.0000 0.36000  0.22860  0.75110  Biso   1.000  H
  H20      1.0000 0.51910  0.12030  0.78950  Biso   1.000  H
  H21      1.0000 0.43300  0.26390  0.92540  Biso   1.000  H
  H22      1.0000 0.27170  0.37030  0.88520  Biso   1.000  H
  H23      1.0000 0.03600  0.33160  0.70400  Biso   1.000  H
  H24      1.0000 0.06550  0.38660  0.62030  Biso   1.000  H
  H25      1.0000 0.40630  0.53260  0.65890  Biso   1.000  H
  H26      1.0000 0.37670  0.47490  0.74360  Biso   1.000  H
  C1       1.0000 0.68140  0.13320  0.28910  Biso   1.000  C
  C2       1.0000 0.63560  0.02690  0.31420  Biso   1.000  C
  C3       1.0000 0.72070  0.94380  0.33410  Biso   1.000  C
  C4       1.0000 0.67620  0.84630  0.35810  Biso   1.000  C
  C5       1.0000 0.54270  0.82860  0.36190  Biso   1.000  C
  C6       1.0000 0.45730  0.90660  0.34190  Biso   1.000  C
  C7       1.0000 0.50140  0.00340  0.31800  Biso   1.000  C
  C8       1.0000 0.48940  0.73260  0.38790  Biso   1.000  C
  C9       1.0000 0.80100  0.19030  0.31430  Biso   1.000  C
  C10      1.0000 0.87490  0.26500  0.28620  Biso   1.000  C
  C11      1.0000 0.96990  0.33000  0.30900  Biso   1.000  C
  C12      1.0000 0.99280  0.32080  0.36290  Biso   1.000  C
  C13      1.0000 0.91830  0.24440  0.39030  Biso   1.000  C
  C14      1.0000 0.82180  0.17980  0.36620  Biso   1.000  C
  C15      1.0000 0.08810  0.38980  0.38870  Biso   1.000  C
  C16      1.0000 0.70510  0.10270  0.23240  Biso   1.000  C
  C17      1.0000 0.61070  0.12850  0.19500  Biso   1.000  C
  C18      1.0000 0.62790  0.09520  0.14520  Biso   1.000  C
  C19      1.0000 0.73740  0.03480  0.13180  Biso   1.000  C
  C20      1.0000 0.83210  0.00780  0.16800  Biso   1.000  C
  C21      1.0000 0.81400  0.04280  0.21880  Biso   1.000  C
  C22      1.0000 0.75630  0.00020  0.07870  Biso   1.000  C
  C23      1.0000 0.03020  0.34270  0.96230  Biso   1.000  C
  C24      1.0000 0.18140  0.36680  0.78910  Biso   1.000  C
  C25      1.0000 0.13560  0.47310  0.81420  Biso   1.000  C
  C26      1.0000 0.22070  0.55620  0.83410  Biso   1.000  C
  C27      1.0000 0.17620  0.65370  0.85810  Biso   1.000  C
  C28      1.0000 0.04270  0.67140  0.86190  Biso   1.000  C
  C29      1.0000 0.95730  0.59340  0.84190  Biso   1.000  C
  C30      1.0000 0.00140  0.49660  0.81800  Biso   1.000  C
  C31      1.0000 0.98940  0.76740  0.88790  Biso   1.000  C
  C32      1.0000 0.30100  0.30970  0.81430  Biso   1.000  C
  C33      1.0000 0.37490  0.23500  0.78620  Biso   1.000  C
  C34      1.0000 0.46990  0.17000  0.80900  Biso   1.000  C
  C35      1.0000 0.49280  0.17920  0.86290  Biso   1.000  C
  C36      1.0000 0.41830  0.25560  0.89030  Biso   1.000  C
  C37      1.0000 0.32180  0.32020  0.86620  Biso   1.000  C
  C38      1.0000 0.58810  0.11020  0.88870  Biso   1.000  C
  C39      1.0000 0.20510  0.39730  0.73240  Biso   1.000  C
  C40      1.0000 0.11070  0.37150  0.69500  Biso   1.000  C
  C41      1.0000 0.12790  0.40480  0.64520  Biso   1.000  C
  C42      1.0000 0.23740  0.46520  0.63180  Biso   1.000  C
  C43      1.0000 0.33210  0.49220  0.66800  Biso   1.000  C
  C44      1.0000 0.31400  0.45720  0.71880  Biso   1.000  C
  C45      1.0000 0.25630  0.49980  0.57870  Biso   1.000  C
  C46      1.0000 0.53020  0.15730  0.46230  Biso   1.000  C
  S1       1.0000 0.93840  0.24370  0.92628  Biso   1.000  S
  S2       1.0000 0.43840  0.25630  0.42628  Biso   1.000  S
  N1       1.0000 0.77230  0.97480  0.03679  Biso   1.000  N
  N2       1.0000 0.15610  0.45420  0.40770  Biso   1.000  N
  N3       1.0000 0.44610  0.65680  0.40900  Biso   1.000  N
  N4       1.0000 0.27230  0.52520  0.53679  Biso   1.000  N
  N5       1.0000 0.65610  0.04580  0.90770  Biso   1.000  N
  N6       1.0000 0.94610  0.84320  0.90900  Biso   1.000  N
  O1       1.0000 0.57870  0.21520  0.28780  Biso   1.000  O
  O2       1.0000 0.02220  0.21140  0.88538  Biso   1.000  O
  O3       1.0000 0.91810  0.15670  0.96482  Biso   1.000  O
  O4       1.0000 0.82310  0.30700  0.91090  Biso   1.000  O
  O5       1.0000 0.07870  0.28480  0.78780  Biso   1.000  O
  O6       1.0000 0.52220  0.28860  0.38538  Biso   1.000  O
  O7       1.0000 0.41810  0.34330  0.46482  Biso   1.000  O
  O8       1.0000 0.32310  0.19300  0.41090  Biso   1.000  O
  F1       1.0000 0.14400  0.29910  0.97890  Biso   1.000  F
  F2       1.0000 0.06270  0.43520  0.93563  Biso   1.000  F
  F3       1.0000 0.96780  0.37930  0.00440  Biso   1.000  F
  F4       1.0000 0.64400  0.20090  0.47890  Biso   1.000  F
  F5       1.0000 0.56270  0.06480  0.43563  Biso   1.000  F
  F6       1.0000 0.46780  0.12070  0.50440  Biso   1.000  F
  Ag3      1.0000 0.65859  0.46958  0.54478  Biso   1.000  Ag
  Ag4      1.0000 0.15859  0.03042  0.04478  Biso   1.000  Ag
  H27      1.0000 0.94360  0.72200  0.18250  Biso   1.000  H
  H28      1.0000 0.68970  0.45460  0.16890  Biso   1.000  H
  H29      1.0000 0.76480  0.29380  0.12870  Biso   1.000  H
  H30      1.0000 0.13220  0.39430  0.15540  Biso   1.000  H
  H31      1.0000 0.05890  0.55390  0.19590  Biso   1.000  H
  H32      1.0000 0.64000  0.77140  0.24890  Biso   1.000  H
  H33      1.0000 0.48090  0.87970  0.21050  Biso   1.000  H
  H34      1.0000 0.56700  0.73610  0.07460  Biso   1.000  H
  H35      1.0000 0.72830  0.62970  0.11480  Biso   1.000  H
  H36      1.0000 0.96400  0.66840  0.29600  Biso   1.000  H
  H37      1.0000 0.93450  0.61340  0.37970  Biso   1.000  H
  H38      1.0000 0.59370  0.46740  0.34110  Biso   1.000  H
  H39      1.0000 0.62330  0.52510  0.25640  Biso   1.000  H
  H40      1.0000 0.44360  0.77800  0.68250  Biso   1.000  H
  H41      1.0000 0.18970  0.04540  0.66890  Biso   1.000  H
  H42      1.0000 0.26480  0.20620  0.62870  Biso   1.000  H
  H43      1.0000 0.63220  0.10570  0.65540  Biso   1.000  H
  H44      1.0000 0.55890  0.94610  0.69590  Biso   1.000  H
  H45      1.0000 0.14000  0.72860  0.74890  Biso   1.000  H
  H46      1.0000 0.98090  0.62030  0.71050  Biso   1.000  H
  H47      1.0000 0.06700  0.76390  0.57460  Biso   1.000  H
  H48      1.0000 0.22830  0.87030  0.61480  Biso   1.000  H
  H49      1.0000 0.46400  0.83160  0.79600  Biso   1.000  H
  H50      1.0000 0.43450  0.88660  0.87970  Biso   1.000  H
  H51      1.0000 0.09370  0.03260  0.84110  Biso   1.000  H
  H52      1.0000 0.12330  0.97490  0.75640  Biso   1.000  H
  C47      1.0000 0.81860  0.63320  0.21090  Biso   1.000  C
  C48      1.0000 0.86440  0.52690  0.18580  Biso   1.000  C
  C49      1.0000 0.77930  0.44380  0.16590  Biso   1.000  C
  C50      1.0000 0.82380  0.34630  0.14190  Biso   1.000  C
  C51      1.0000 0.95730  0.32860  0.13810  Biso   1.000  C
  C52      1.0000 0.04270  0.40660  0.15810  Biso   1.000  C
  C53      1.0000 0.99860  0.50340  0.18200  Biso   1.000  C
  C54      1.0000 0.01060  0.23260  0.11210  Biso   1.000  C
  C55      1.0000 0.69900  0.69030  0.18570  Biso   1.000  C
  C56      1.0000 0.62510  0.76500  0.21380  Biso   1.000  C
  C57      1.0000 0.53010  0.83000  0.19100  Biso   1.000  C
  C58      1.0000 0.50720  0.82080  0.13710  Biso   1.000  C
  C59      1.0000 0.58170  0.74440  0.10970  Biso   1.000  C
  C60      1.0000 0.67820  0.67980  0.13380  Biso   1.000  C
  C61      1.0000 0.41190  0.88980  0.11130  Biso   1.000  C
  C62      1.0000 0.79490  0.60270  0.26760  Biso   1.000  C
  C63      1.0000 0.88930  0.62850  0.30500  Biso   1.000  C
  C64      1.0000 0.87210  0.59520  0.35480  Biso   1.000  C
  C65      1.0000 0.76260  0.53480  0.36820  Biso   1.000  C
  C66      1.0000 0.66790  0.50780  0.33200  Biso   1.000  C
  C67      1.0000 0.68600  0.54280  0.28120  Biso   1.000  C
  C68      1.0000 0.74370  0.50020  0.42130  Biso   1.000  C
  C69      1.0000 0.46980  0.84270  0.53770  Biso   1.000  C
  C70      1.0000 0.31860  0.86680  0.71090  Biso   1.000  C
  C71      1.0000 0.36440  0.97310  0.68580  Biso   1.000  C
  C72      1.0000 0.27930  0.05620  0.66590  Biso   1.000  C
  C73      1.0000 0.32380  0.15370  0.64190  Biso   1.000  C
  C74      1.0000 0.45730  0.17140  0.63810  Biso   1.000  C
  C75      1.0000 0.54270  0.09340  0.65810  Biso   1.000  C
  C76      1.0000 0.49860  0.99660  0.68200  Biso   1.000  C
  C77      1.0000 0.51060  0.26740  0.61210  Biso   1.000  C
  C78      1.0000 0.19900  0.80970  0.68570  Biso   1.000  C
  C79      1.0000 0.12510  0.73500  0.71380  Biso   1.000  C
  C80      1.0000 0.03010  0.67000  0.69100  Biso   1.000  C
  C81      1.0000 0.00720  0.67920  0.63710  Biso   1.000  C
  C82      1.0000 0.08170  0.75560  0.60970  Biso   1.000  C
  C83      1.0000 0.17820  0.82020  0.63380  Biso   1.000  C
  C84      1.0000 0.91190  0.61020  0.61130  Biso   1.000  C
  C85      1.0000 0.29490  0.89730  0.76760  Biso   1.000  C
  C86      1.0000 0.38930  0.87150  0.80500  Biso   1.000  C
  C87      1.0000 0.37210  0.90480  0.85480  Biso   1.000  C
  C88      1.0000 0.26260  0.96520  0.86820  Biso   1.000  C
  C89      1.0000 0.16790  0.99220  0.83200  Biso   1.000  C
  C90      1.0000 0.18600  0.95720  0.78120  Biso   1.000  C
  C91      1.0000 0.24370  0.99980  0.92130  Biso   1.000  C
  C92      1.0000 0.96980  0.65730  0.03770  Biso   1.000  C
  S3       1.0000 0.56160  0.74370  0.57372  Biso   1.000  S
  S4       1.0000 0.06160  0.75630  0.07372  Biso   1.000  S
  N7       1.0000 0.72770  0.47480  0.46321  Biso   1.000  N
  N8       1.0000 0.34390  0.95420  0.09230  Biso   1.000  N
  N9       1.0000 0.05390  0.15680  0.09100  Biso   1.000  N
  N10      1.0000 0.22770  0.02520  0.96321  Biso   1.000  N
  N11      1.0000 0.84390  0.54580  0.59230  Biso   1.000  N
  N12      1.0000 0.55390  0.34320  0.59100  Biso   1.000  N
  O9       1.0000 0.92130  0.71520  0.21220  Biso   1.000  O
  O10      1.0000 0.47780  0.71140  0.61462  Biso   1.000  O
  O11      1.0000 0.58190  0.65670  0.53518  Biso   1.000  O
  O12      1.0000 0.67690  0.80700  0.58910  Biso   1.000  O
  O13      1.0000 0.42130  0.78480  0.71220  Biso   1.000  O
  O14      1.0000 0.97780  0.78860  0.11462  Biso   1.000  O
  O15      1.0000 0.08190  0.84330  0.03518  Biso   1.000  O
  O16      1.0000 0.17690  0.69300  0.08910  Biso   1.000  O
  F7       1.0000 0.35600  0.79910  0.52110  Biso   1.000  F
  F8       1.0000 0.43730  0.93520  0.56437  Biso   1.000  F
  F9       1.0000 0.53220  0.87930  0.49560  Biso   1.000  F
  F10      1.0000 0.85600  0.70090  0.02110  Biso   1.000  F
  F11      1.0000 0.93730  0.56480  0.06437  Biso   1.000  F
  F12      1.0000 0.03220  0.62070  0.99560  Biso   1.000  F
