data_OBUFIB_clean
_audit_creation_date              2015-05-15
_audit_creation_method            'Materials Studio'
_symmetry_space_group_name_H-M    'P1'
_symmetry_Int_Tables_number       1
_symmetry_cell_setting            triclinic
loop_
_symmetry_equiv_pos_as_xyz
  x,y,z
_cell_length_a                    13.6688
_cell_length_b                    13.6688
_cell_length_c                    19.3657
_cell_angle_alpha                 96.2809
_cell_angle_beta                  96.2809
_cell_angle_gamma                 143.5863
loop_
_atom_site_label
_atom_site_type_symbol
_atom_site_fract_x
_atom_site_fract_y
_atom_site_fract_z
_atom_site_U_iso_or_equiv
_atom_site_adp_type
_atom_site_occupancy
Zn1    Zn    0.70516   0.65180   0.02887   0.01267  Uiso   1.00
Zn2    Zn    0.62613   0.80173   0.99164   0.01267  Uiso   1.00
H3     H     0.70810   0.59190   0.25930   0.01267  Uiso   1.00
H4     H     0.70720   0.85760   0.33660   0.01267  Uiso   1.00
H5     H     0.82460   0.93780   0.28630   0.01267  Uiso   1.00
H6     H     0.13260   0.62040   0.89320   0.01267  Uiso   1.00
H7     H     0.32770   0.66210   0.88730   0.01267  Uiso   1.00
H8     H     0.58120   0.92440   0.09510   0.01267  Uiso   1.00
H9     H     0.39460   0.89400   0.10580   0.01267  Uiso   1.00
H10    H     0.93070   0.54770   0.90810   0.01267  Uiso   1.00
H11    H     0.73640   0.50420   0.92350   0.01267  Uiso   1.00
H12    H     0.05770   0.86650   0.11270   0.01267  Uiso   1.00
H13    H     0.25500   0.90900   0.10510   0.01267  Uiso   1.00
C14    C     0.69297   0.67933   0.18115   0.01267  Uiso   1.00
C15    C     0.72316   0.67110   0.25763   0.01267  Uiso   1.00
C16    C     0.76573   0.75905   0.31809   0.01267  Uiso   1.00
C17    C     0.75110   0.70566   0.38618   0.01267  Uiso   1.00
C18    C     0.80591   0.90233   0.32962   0.01267  Uiso   1.00
C19    C     0.96969   0.06025   0.39737   0.01267  Uiso   1.00
C20    C     0.22511   0.68551   0.93551   0.01267  Uiso   1.00
C21    C     0.34118   0.70928   0.93243   0.01267  Uiso   1.00
C22    C     0.48949   0.86269   0.05329   0.01267  Uiso   1.00
C23    C     0.37784   0.84498   0.06001   0.01267  Uiso   1.00
C24    C     0.24223   0.75645   0.00034   0.01267  Uiso   1.00
C25    C     0.11650   0.73022   0.00606   0.01267  Uiso   1.00
C26    C     0.95951   0.61283   0.95187   0.01267  Uiso   1.00
C27    C     0.84389   0.58909   0.96069   0.01267  Uiso   1.00
C28    C     0.02951   0.79793   0.07092   0.01267  Uiso   1.00
C29    C     0.14998   0.82510   0.06644   0.01267  Uiso   1.00
N30    N     0.47353   0.79681   0.99090   0.01267  Uiso   1.00
N31    N     0.87990   0.68238   0.02005   0.01267  Uiso   1.00
O32    O     0.63154   0.72022   0.17178   0.01267  Uiso   1.00
O33    O     0.72120   0.63238   0.13411   0.01267  Uiso   1.00
O34    O     0.78877   0.64681   0.39463   0.01267  Uiso   1.00
O35    O     0.70102   0.72204   0.42684   0.01267  Uiso   1.00
O36    O     0.07499   0.08279   0.41929   0.01267  Uiso   1.00
O37    O     0.98464   0.16108   0.42670   0.01267  Uiso   1.00
O38    O     0.52127   0.61461   0.02565   0.01267  Uiso   1.00
H39    H     0.38539   0.47873   0.42271   0.01267  Uiso   1.00
Zn40   Zn    0.34820   0.29484   0.47113   0.01267  Uiso   1.00
Zn41   Zn    0.19827   0.37387   0.50836   0.01267  Uiso   1.00
H42    H     0.40810   0.29190   0.24070   0.01267  Uiso   1.00
H43    H     0.14240   0.29280   0.16340   0.01267  Uiso   1.00
H44    H     0.06220   0.17540   0.21370   0.01267  Uiso   1.00
H45    H     0.37960   0.86740   0.60680   0.01267  Uiso   1.00
H46    H     0.33790   0.67230   0.61270   0.01267  Uiso   1.00
H47    H     0.07560   0.41880   0.40490   0.01267  Uiso   1.00
H48    H     0.10600   0.60540   0.39420   0.01267  Uiso   1.00
H49    H     0.45230   0.06930   0.59190   0.01267  Uiso   1.00
H50    H     0.49580   0.26360   0.57650   0.01267  Uiso   1.00
H51    H     0.13350   0.94230   0.38730   0.01267  Uiso   1.00
H52    H     0.09100   0.74500   0.39490   0.01267  Uiso   1.00
C53    C     0.32067   0.30703   0.31885   0.01267  Uiso   1.00
C54    C     0.32890   0.27684   0.24237   0.01267  Uiso   1.00
C55    C     0.24095   0.23427   0.18191   0.01267  Uiso   1.00
C56    C     0.29434   0.24890   0.11382   0.01267  Uiso   1.00
C57    C     0.09767   0.19409   0.17038   0.01267  Uiso   1.00
C58    C     0.93975   0.03031   0.10263   0.01267  Uiso   1.00
C59    C     0.31449   0.77489   0.56449   0.01267  Uiso   1.00
C60    C     0.29072   0.65882   0.56757   0.01267  Uiso   1.00
C61    C     0.13731   0.51051   0.44671   0.01267  Uiso   1.00
C62    C     0.15502   0.62216   0.43999   0.01267  Uiso   1.00
C63    C     0.24355   0.75777   0.49966   0.01267  Uiso   1.00
C64    C     0.26978   0.88350   0.49394   0.01267  Uiso   1.00
C65    C     0.38717   0.04049   0.54813   0.01267  Uiso   1.00
C66    C     0.41091   0.15611   0.53931   0.01267  Uiso   1.00
C67    C     0.20207   0.97049   0.42908   0.01267  Uiso   1.00
C68    C     0.17490   0.85002   0.43356   0.01267  Uiso   1.00
N69    N     0.20319   0.52647   0.50910   0.01267  Uiso   1.00
N70    N     0.31762   0.12010   0.47995   0.01267  Uiso   1.00
O71    O     0.27978   0.36846   0.32822   0.01267  Uiso   1.00
O72    O     0.36762   0.27880   0.36589   0.01267  Uiso   1.00
O73    O     0.35319   0.21123   0.10537   0.01267  Uiso   1.00
O74    O     0.27796   0.29898   0.07316   0.01267  Uiso   1.00
O75    O     0.91721   0.92501   0.08071   0.01267  Uiso   1.00
O76    O     0.83892   0.01536   0.07330   0.01267  Uiso   1.00
O77    O     0.38539   0.47873   0.47435   0.01267  Uiso   1.00
H78    H     0.52127   0.61461   0.07729   0.01267  Uiso   1.00
Zn79   Zn    0.29484   0.34820   0.97113   0.01267  Uiso   1.00
Zn80   Zn    0.37387   0.19827   0.00836   0.01267  Uiso   1.00
H81    H     0.29190   0.40810   0.74070   0.01267  Uiso   1.00
H82    H     0.29280   0.14240   0.66340   0.01267  Uiso   1.00
H83    H     0.17540   0.06220   0.71370   0.01267  Uiso   1.00
H84    H     0.86740   0.37960   0.10680   0.01267  Uiso   1.00
H85    H     0.67230   0.33790   0.11270   0.01267  Uiso   1.00
H86    H     0.41880   0.07560   0.90490   0.01267  Uiso   1.00
H87    H     0.60540   0.10600   0.89420   0.01267  Uiso   1.00
H88    H     0.06930   0.45230   0.09190   0.01267  Uiso   1.00
H89    H     0.26360   0.49580   0.07650   0.01267  Uiso   1.00
H90    H     0.94230   0.13350   0.88730   0.01267  Uiso   1.00
H91    H     0.74500   0.09100   0.89490   0.01267  Uiso   1.00
C92    C     0.30703   0.32067   0.81885   0.01267  Uiso   1.00
C93    C     0.27684   0.32890   0.74237   0.01267  Uiso   1.00
C94    C     0.23427   0.24095   0.68191   0.01267  Uiso   1.00
C95    C     0.24890   0.29434   0.61382   0.01267  Uiso   1.00
C96    C     0.19409   0.09767   0.67038   0.01267  Uiso   1.00
C97    C     0.03031   0.93975   0.60263   0.01267  Uiso   1.00
C98    C     0.77489   0.31449   0.06449   0.01267  Uiso   1.00
C99    C     0.65882   0.29072   0.06757   0.01267  Uiso   1.00
C100   C     0.51051   0.13731   0.94671   0.01267  Uiso   1.00
C101   C     0.62216   0.15502   0.93999   0.01267  Uiso   1.00
C102   C     0.75777   0.24355   0.99966   0.01267  Uiso   1.00
C103   C     0.88350   0.26978   0.99394   0.01267  Uiso   1.00
C104   C     0.04049   0.38717   0.04813   0.01267  Uiso   1.00
C105   C     0.15611   0.41091   0.03931   0.01267  Uiso   1.00
C106   C     0.97049   0.20207   0.92908   0.01267  Uiso   1.00
C107   C     0.85002   0.17490   0.93356   0.01267  Uiso   1.00
N108   N     0.52647   0.20319   0.00910   0.01267  Uiso   1.00
N109   N     0.12010   0.31762   0.97995   0.01267  Uiso   1.00
O110   O     0.36846   0.27978   0.82822   0.01267  Uiso   1.00
O111   O     0.27880   0.36762   0.86589   0.01267  Uiso   1.00
O112   O     0.21123   0.35319   0.60537   0.01267  Uiso   1.00
O113   O     0.29898   0.27796   0.57316   0.01267  Uiso   1.00
O114   O     0.92501   0.91721   0.58071   0.01267  Uiso   1.00
O115   O     0.01536   0.83892   0.57330   0.01267  Uiso   1.00
O116   O     0.47873   0.38539   0.97435   0.01267  Uiso   1.00
H117   H     0.61461   0.52127   0.57729   0.01267  Uiso   1.00
Zn118  Zn    0.65180   0.70516   0.52887   0.01267  Uiso   1.00
Zn119  Zn    0.80173   0.62613   0.49164   0.01267  Uiso   1.00
H120   H     0.59190   0.70810   0.75930   0.01267  Uiso   1.00
H121   H     0.85760   0.70720   0.83660   0.01267  Uiso   1.00
H122   H     0.93780   0.82460   0.78630   0.01267  Uiso   1.00
H123   H     0.62040   0.13260   0.39320   0.01267  Uiso   1.00
H124   H     0.66210   0.32770   0.38730   0.01267  Uiso   1.00
H125   H     0.92440   0.58120   0.59510   0.01267  Uiso   1.00
H126   H     0.89400   0.39460   0.60580   0.01267  Uiso   1.00
H127   H     0.54770   0.93070   0.40810   0.01267  Uiso   1.00
H128   H     0.50420   0.73640   0.42350   0.01267  Uiso   1.00
H129   H     0.86650   0.05770   0.61270   0.01267  Uiso   1.00
H130   H     0.90900   0.25500   0.60510   0.01267  Uiso   1.00
C131   C     0.67933   0.69297   0.68115   0.01267  Uiso   1.00
C132   C     0.67110   0.72316   0.75763   0.01267  Uiso   1.00
C133   C     0.75905   0.76573   0.81809   0.01267  Uiso   1.00
C134   C     0.70566   0.75110   0.88618   0.01267  Uiso   1.00
C135   C     0.90233   0.80591   0.82962   0.01267  Uiso   1.00
C136   C     0.06025   0.96969   0.89737   0.01267  Uiso   1.00
C137   C     0.68551   0.22511   0.43551   0.01267  Uiso   1.00
C138   C     0.70928   0.34118   0.43243   0.01267  Uiso   1.00
C139   C     0.86269   0.48949   0.55329   0.01267  Uiso   1.00
C140   C     0.84498   0.37784   0.56001   0.01267  Uiso   1.00
C141   C     0.75645   0.24223   0.50034   0.01267  Uiso   1.00
C142   C     0.73022   0.11650   0.50606   0.01267  Uiso   1.00
C143   C     0.61283   0.95951   0.45187   0.01267  Uiso   1.00
C144   C     0.58909   0.84389   0.46069   0.01267  Uiso   1.00
C145   C     0.79793   0.02951   0.57092   0.01267  Uiso   1.00
C146   C     0.82510   0.14998   0.56644   0.01267  Uiso   1.00
N147   N     0.79681   0.47353   0.49090   0.01267  Uiso   1.00
N148   N     0.68238   0.87990   0.52005   0.01267  Uiso   1.00
O149   O     0.72022   0.63154   0.67178   0.01267  Uiso   1.00
O150   O     0.63238   0.72120   0.63411   0.01267  Uiso   1.00
O151   O     0.64681   0.78877   0.89463   0.01267  Uiso   1.00
O152   O     0.72204   0.70102   0.92684   0.01267  Uiso   1.00
O153   O     0.08279   0.07499   0.91929   0.01267  Uiso   1.00
O154   O     0.16108   0.98464   0.92670   0.01267  Uiso   1.00
O155   O     0.61461   0.52127   0.52565   0.01267  Uiso   1.00
H156   H     0.47873   0.38539   0.92271   0.01267  Uiso   1.00
