data_image0
_cell_length_a       11.2402
_cell_length_b       11.5366
_cell_length_c       16.1963
_cell_angle_alpha    104.945
_cell_angle_beta     110.304
_cell_angle_gamma    90

_symmetry_space_group_name_H-M    P 1
_symmetry_int_tables_number       1

loop_
  _symmetry_equiv_pos_as_xyz
  'x, y, z'

loop_
  _atom_site_label
  _atom_site_occupancy
  _atom_site_fract_x
  _atom_site_fract_y
  _atom_site_fract_z
  _atom_site_thermal_displace_type
  _atom_site_B_iso_or_equiv
  _atom_site_type_symbol
  V1       1.0000 0.19527  0.17863  0.21366  Biso   1.000  V
  V2       1.0000 0.05129  0.43583  0.28966  Biso   1.000  V
  V3       1.0000 0.98161  0.32137  0.78634  Biso   1.000  V
  V4       1.0000 0.76163  0.06417  0.71034  Biso   1.000  V
  V5       1.0000 0.80473  0.82137  0.78634  Biso   1.000  V
  V6       1.0000 0.94871  0.56417  0.71034  Biso   1.000  V
  V7       1.0000 0.01839  0.67863  0.21366  Biso   1.000  V
  V8       1.0000 0.23837  0.93583  0.28966  Biso   1.000  V
  Ni1      1.0000 0.00000  0.50000  0.50000  Biso   1.000  Ni
  Ni2      1.0000 0.50000  0.00000  0.50000  Biso   1.000  Ni
  Ni3      1.0000 0.00000  0.50000  0.00000  Biso   1.000  Ni
  Ni4      1.0000 0.00000  0.00000  0.00000  Biso   1.000  Ni
  H1       1.0000 0.14000  0.35900  0.64000  Biso   1.000  H
  H2       1.0000 0.32600  0.36300  0.73600  Biso   1.000  H
  H3       1.0000 0.47300  0.63600  0.68200  Biso   1.000  H
  H4       1.0000 0.26400  0.64000  0.57800  Biso   1.000  H
  H5       1.0000 0.56700  0.31000  0.76400  Biso   1.000  H
  H6       1.0000 0.78100  0.32200  0.87000  Biso   1.000  H
  H7       1.0000 0.80600  0.66900  0.94200  Biso   1.000  H
  H8       1.0000 0.61700  0.67100  0.84400  Biso   1.000  H
  H9       1.0000 0.87700  0.31300  0.56000  Biso   1.000  H
  H10      1.0000 0.87700  0.12300  0.57400  Biso   1.000  H
  H11      1.0000 0.10130  0.06550  0.40700  Biso   1.000  H
  H12      1.0000 0.08200  0.25600  0.40000  Biso   1.000  H
  H13      1.0000 0.50000  0.14100  0.36000  Biso   1.000  H
  H14      1.0000 0.59000  0.13700  0.26400  Biso   1.000  H
  H15      1.0000 0.79100  0.86400  0.31800  Biso   1.000  H
  H16      1.0000 0.68600  0.86000  0.42200  Biso   1.000  H
  H17      1.0000 0.80300  0.19000  0.23600  Biso   1.000  H
  H18      1.0000 0.91100  0.17800  0.13000  Biso   1.000  H
  H19      1.0000 0.86400  0.83100  0.05800  Biso   1.000  H
  H20      1.0000 0.77300  0.82900  0.15600  Biso   1.000  H
  H21      1.0000 0.31700  0.18700  0.44000  Biso   1.000  H
  H22      1.0000 0.30300  0.37700  0.42600  Biso   1.000  H
  H23      1.0000 0.69430  0.43450  0.59300  Biso   1.000  H
  H24      1.0000 0.68200  0.24400  0.60000  Biso   1.000  H
  H25      1.0000 0.86000  0.64100  0.36000  Biso   1.000  H
  H26      1.0000 0.67400  0.63700  0.26400  Biso   1.000  H
  H27      1.0000 0.52700  0.36400  0.31800  Biso   1.000  H
  H28      1.0000 0.73600  0.36000  0.42200  Biso   1.000  H
  H29      1.0000 0.43300  0.69000  0.23600  Biso   1.000  H
  H30      1.0000 0.21900  0.67800  0.13000  Biso   1.000  H
  H31      1.0000 0.19400  0.33100  0.05800  Biso   1.000  H
  H32      1.0000 0.38300  0.32900  0.15600  Biso   1.000  H
  H33      1.0000 0.12300  0.68700  0.44000  Biso   1.000  H
  H34      1.0000 0.12300  0.87700  0.42600  Biso   1.000  H
  H35      1.0000 0.89870  0.93450  0.59300  Biso   1.000  H
  H36      1.0000 0.91800  0.74400  0.60000  Biso   1.000  H
  H37      1.0000 0.50000  0.85900  0.64000  Biso   1.000  H
  H38      1.0000 0.41000  0.86300  0.73600  Biso   1.000  H
  H39      1.0000 0.20900  0.13600  0.68200  Biso   1.000  H
  H40      1.0000 0.31400  0.14000  0.57800  Biso   1.000  H
  H41      1.0000 0.19700  0.81000  0.76400  Biso   1.000  H
  H42      1.0000 0.08900  0.82200  0.87000  Biso   1.000  H
  H43      1.0000 0.13600  0.16900  0.94200  Biso   1.000  H
  H44      1.0000 0.22700  0.17100  0.84400  Biso   1.000  H
  H45      1.0000 0.68300  0.81300  0.56000  Biso   1.000  H
  H46      1.0000 0.69700  0.62300  0.57400  Biso   1.000  H
  H47      1.0000 0.30570  0.56550  0.40700  Biso   1.000  H
  H48      1.0000 0.31800  0.75600  0.40000  Biso   1.000  H
  C1       1.0000 0.21110  0.41890  0.64760  Biso   1.000  C
  C2       1.0000 0.32950  0.41420  0.71120  Biso   1.000  C
  C3       1.0000 0.42990  0.49710  0.72880  Biso   1.000  C
  C4       1.0000 0.40450  0.58330  0.67920  Biso   1.000  C
  C5       1.0000 0.28420  0.58050  0.61640  Biso   1.000  C
  C6       1.0000 0.55910  0.49470  0.79540  Biso   1.000  C
  C7       1.0000 0.61020  0.38810  0.80700  Biso   1.000  C
  C8       1.0000 0.73330  0.39240  0.86740  Biso   1.000  C
  C9       1.0000 0.75810  0.59700  0.90560  Biso   1.000  C
  C10      1.0000 0.63550  0.60110  0.84760  Biso   1.000  C
  C11      1.0000 0.91675  0.25720  0.52770  Biso   1.000  C
  C12      1.0000 0.92340  0.14090  0.53620  Biso   1.000  C
  C13      1.0000 0.99202  0.06200  0.49404  Biso   1.000  C
  C14      1.0000 0.04520  0.10600  0.44200  Biso   1.000  C
  C15      1.0000 0.03290  0.22360  0.43480  Biso   1.000  C
  C16      1.0000 0.56350  0.08110  0.35240  Biso   1.000  C
  C17      1.0000 0.61830  0.08580  0.28880  Biso   1.000  C
  C18      1.0000 0.70110  0.00290  0.27120  Biso   1.000  C
  C19      1.0000 0.72530  0.91670  0.32080  Biso   1.000  C
  C20      1.0000 0.66780  0.91950  0.38360  Biso   1.000  C
  C21      1.0000 0.76370  0.00530  0.20460  Biso   1.000  C
  C22      1.0000 0.80320  0.11190  0.19300  Biso   1.000  C
  C23      1.0000 0.86590  0.10760  0.13260  Biso   1.000  C
  C24      1.0000 0.85250  0.90300  0.09440  Biso   1.000  C
  C25      1.0000 0.78790  0.89890  0.15240  Biso   1.000  C
  C26      1.0000 0.38905  0.24280  0.47230  Biso   1.000  C
  C27      1.0000 0.38720  0.35910  0.46380  Biso   1.000  C
  C28      1.0000 0.49798  0.43800  0.50596  Biso   1.000  C
  C29      1.0000 0.60320  0.39400  0.55800  Biso   1.000  C
  C30      1.0000 0.59810  0.27640  0.56520  Biso   1.000  C
  C31      1.0000 0.78890  0.58110  0.35240  Biso   1.000  C
  C32      1.0000 0.67050  0.58580  0.28880  Biso   1.000  C
  C33      1.0000 0.57010  0.50290  0.27120  Biso   1.000  C
  C34      1.0000 0.59550  0.41670  0.32080  Biso   1.000  C
  C35      1.0000 0.71580  0.41950  0.38360  Biso   1.000  C
  C36      1.0000 0.44090  0.50530  0.20460  Biso   1.000  C
  C37      1.0000 0.38980  0.61190  0.19300  Biso   1.000  C
  C38      1.0000 0.26670  0.60760  0.13260  Biso   1.000  C
  C39      1.0000 0.24190  0.40300  0.09440  Biso   1.000  C
  C40      1.0000 0.36450  0.39890  0.15240  Biso   1.000  C
  C41      1.0000 0.08325  0.74280  0.47230  Biso   1.000  C
  C42      1.0000 0.07660  0.85910  0.46380  Biso   1.000  C
  C43      1.0000 0.00798  0.93800  0.50596  Biso   1.000  C
  C44      1.0000 0.95480  0.89400  0.55800  Biso   1.000  C
  C45      1.0000 0.96710  0.77640  0.56520  Biso   1.000  C
  C46      1.0000 0.43650  0.91890  0.64760  Biso   1.000  C
  C47      1.0000 0.38170  0.91420  0.71120  Biso   1.000  C
  C48      1.0000 0.29890  0.99710  0.72880  Biso   1.000  C
  C49      1.0000 0.27470  0.08330  0.67920  Biso   1.000  C
  C50      1.0000 0.33220  0.08050  0.61640  Biso   1.000  C
  C51      1.0000 0.23630  0.99470  0.79540  Biso   1.000  C
  C52      1.0000 0.19680  0.88810  0.80700  Biso   1.000  C
  C53      1.0000 0.13410  0.89240  0.86740  Biso   1.000  C
  C54      1.0000 0.14750  0.09700  0.90560  Biso   1.000  C
  C55      1.0000 0.21210  0.10110  0.84760  Biso   1.000  C
  C56      1.0000 0.61095  0.75720  0.52770  Biso   1.000  C
  C57      1.0000 0.61280  0.64090  0.53620  Biso   1.000  C
  C58      1.0000 0.50202  0.56200  0.49404  Biso   1.000  C
  C59      1.0000 0.39680  0.60600  0.44200  Biso   1.000  C
  C60      1.0000 0.40190  0.72360  0.43480  Biso   1.000  C
  N1       1.0000 0.18718  0.49880  0.59916  Biso   1.000  N
  N2       1.0000 0.97184  0.30170  0.47948  Biso   1.000  N
  N3       1.0000 0.80819  0.49510  0.91698  Biso   1.000  N
  N4       1.0000 0.58802  0.00120  0.40084  Biso   1.000  N
  N5       1.0000 0.49236  0.19830  0.52052  Biso   1.000  N
  N6       1.0000 0.89121  0.00490  0.08302  Biso   1.000  N
  N7       1.0000 0.81282  0.50120  0.40084  Biso   1.000  N
  N8       1.0000 0.02816  0.69830  0.52052  Biso   1.000  N
  N9       1.0000 0.19181  0.50490  0.08302  Biso   1.000  N
  N10      1.0000 0.41198  0.99880  0.59916  Biso   1.000  N
  N11      1.0000 0.50764  0.80170  0.47948  Biso   1.000  N
  N12      1.0000 0.10879  0.99510  0.91698  Biso   1.000  N
  O1       1.0000 0.07469  0.47190  0.40058  Biso   1.000  O
  O2       1.0000 0.90291  0.39280  0.22862  Biso   1.000  O
  O3       1.0000 0.94539  0.37040  0.05398  Biso   1.000  O
  O4       1.0000 0.12186  0.13660  0.10052  Biso   1.000  O
  O5       1.0000 0.09965  0.56560  0.26310  Biso   1.000  O
  O6       1.0000 0.34690  0.19710  0.23740  Biso   1.000  O
  O7       1.0000 0.14641  0.31790  0.26482  Biso   1.000  O
  O8       1.0000 0.67411  0.02810  0.59942  Biso   1.000  O
  O9       1.0000 0.67429  0.10720  0.77138  Biso   1.000  O
  O10      1.0000 0.89141  0.12960  0.94602  Biso   1.000  O
  O11      1.0000 0.02134  0.36340  0.89948  Biso   1.000  O
  O12      1.0000 0.83655  0.93440  0.73690  Biso   1.000  O
  O13      1.0000 0.10950  0.30290  0.76260  Biso   1.000  O
  O14      1.0000 0.88159  0.18210  0.73518  Biso   1.000  O
  O15      1.0000 0.92531  0.52810  0.59942  Biso   1.000  O
  O16      1.0000 0.09709  0.60720  0.77138  Biso   1.000  O
  O17      1.0000 0.05461  0.62960  0.94602  Biso   1.000  O
  O18      1.0000 0.87814  0.86340  0.89948  Biso   1.000  O
  O19      1.0000 0.90035  0.43440  0.73690  Biso   1.000  O
  O20      1.0000 0.65310  0.80290  0.76260  Biso   1.000  O
  O21      1.0000 0.85359  0.68210  0.73518  Biso   1.000  O
  O22      1.0000 0.32589  0.97190  0.40058  Biso   1.000  O
  O23      1.0000 0.32571  0.89280  0.22862  Biso   1.000  O
  O24      1.0000 0.10859  0.87040  0.05398  Biso   1.000  O
  O25      1.0000 0.97866  0.63660  0.10052  Biso   1.000  O
  O26      1.0000 0.16345  0.06560  0.26310  Biso   1.000  O
  O27      1.0000 0.89050  0.69710  0.23740  Biso   1.000  O
  O28      1.0000 0.11841  0.81790  0.26482  Biso   1.000  O
