data_image0
_cell_length_a       15.199
_cell_length_b       15.493
_cell_length_c       15.493
_cell_angle_alpha    120
_cell_angle_beta     90
_cell_angle_gamma    90

_symmetry_space_group_name_H-M    P 1
_symmetry_int_tables_number       1

loop_
  _symmetry_equiv_pos_as_xyz
  'x, y, z'

loop_
  _atom_site_label
  _atom_site_occupancy
  _atom_site_fract_x
  _atom_site_fract_y
  _atom_site_fract_z
  _atom_site_thermal_displace_type
  _atom_site_B_iso_or_equiv
  _atom_site_type_symbol
  Pr1      1.0000 0.99749  0.33333  0.66666  Biso   1.000  Pr
  Pr2      1.0000 0.99749  0.66667  0.33334  Biso   1.000  Pr
  Pr3      1.0000 0.49749  0.33333  0.66666  Biso   1.000  Pr
  Pr4      1.0000 0.49749  0.66667  0.33334  Biso   1.000  Pr
  Co1      1.0000 0.74720  0.50000  0.00000  Biso   1.000  Co
  Co2      1.0000 0.74720  0.50000  0.50000  Biso   1.000  Co
  Co3      1.0000 0.74720  0.00000  0.50000  Biso   1.000  Co
  Co4      1.0000 0.24720  0.50000  0.00000  Biso   1.000  Co
  Co5      1.0000 0.24720  0.00000  0.50000  Biso   1.000  Co
  Co6      1.0000 0.24720  0.50000  0.50000  Biso   1.000  Co
  H1       1.0000 0.08770  0.71250  0.76420  Biso   1.000  H
  H2       1.0000 0.00950  0.79840  0.89850  Biso   1.000  H
  H3       1.0000 0.90110  0.71190  0.94710  Biso   1.000  H
  H4       1.0000 0.68800  0.36900  0.83400  Biso   1.000  H
  H5       1.0000 0.77200  0.35300  0.84100  Biso   1.000  H
  H6       1.0000 0.08770  0.05170  0.28750  Biso   1.000  H
  H7       1.0000 0.00950  0.10010  0.20160  Biso   1.000  H
  H8       1.0000 0.90110  0.23520  0.28810  Biso   1.000  H
  H9       1.0000 0.68800  0.46500  0.63100  Biso   1.000  H
  H10      1.0000 0.77200  0.48800  0.64700  Biso   1.000  H
  H11      1.0000 0.08770  0.23580  0.94830  Biso   1.000  H
  H12      1.0000 0.00950  0.10150  0.89990  Biso   1.000  H
  H13      1.0000 0.90110  0.05290  0.76480  Biso   1.000  H
  H14      1.0000 0.68800  0.16600  0.53500  Biso   1.000  H
  H15      1.0000 0.77200  0.15900  0.51200  Biso   1.000  H
  H16      1.0000 0.08770  0.28750  0.23580  Biso   1.000  H
  H17      1.0000 0.00950  0.20160  0.10150  Biso   1.000  H
  H18      1.0000 0.90110  0.28810  0.05290  Biso   1.000  H
  H19      1.0000 0.68800  0.63100  0.16600  Biso   1.000  H
  H20      1.0000 0.77200  0.64700  0.15900  Biso   1.000  H
  H21      1.0000 0.08770  0.94830  0.71250  Biso   1.000  H
  H22      1.0000 0.00950  0.89990  0.79840  Biso   1.000  H
  H23      1.0000 0.90110  0.76480  0.71190  Biso   1.000  H
  H24      1.0000 0.68800  0.53500  0.36900  Biso   1.000  H
  H25      1.0000 0.77200  0.51200  0.35300  Biso   1.000  H
  H26      1.0000 0.08770  0.76420  0.05170  Biso   1.000  H
  H27      1.0000 0.00950  0.89850  0.10010  Biso   1.000  H
  H28      1.0000 0.90110  0.94710  0.23520  Biso   1.000  H
  H29      1.0000 0.68800  0.83400  0.46500  Biso   1.000  H
  H30      1.0000 0.77200  0.84100  0.48800  Biso   1.000  H
  H31      1.0000 0.58770  0.05170  0.76420  Biso   1.000  H
  H32      1.0000 0.50950  0.10010  0.89850  Biso   1.000  H
  H33      1.0000 0.40110  0.23520  0.94710  Biso   1.000  H
  H34      1.0000 0.18800  0.46500  0.83400  Biso   1.000  H
  H35      1.0000 0.27200  0.48800  0.84100  Biso   1.000  H
  H36      1.0000 0.58770  0.23580  0.28750  Biso   1.000  H
  H37      1.0000 0.50950  0.10150  0.20160  Biso   1.000  H
  H38      1.0000 0.40110  0.05290  0.28810  Biso   1.000  H
  H39      1.0000 0.18800  0.16600  0.63100  Biso   1.000  H
  H40      1.0000 0.27200  0.15900  0.64700  Biso   1.000  H
  H41      1.0000 0.58770  0.71250  0.94830  Biso   1.000  H
  H42      1.0000 0.50950  0.79840  0.89990  Biso   1.000  H
  H43      1.0000 0.40110  0.71190  0.76480  Biso   1.000  H
  H44      1.0000 0.18800  0.36900  0.53500  Biso   1.000  H
  H45      1.0000 0.27200  0.35300  0.51200  Biso   1.000  H
  H46      1.0000 0.58770  0.94830  0.23580  Biso   1.000  H
  H47      1.0000 0.50950  0.89990  0.10150  Biso   1.000  H
  H48      1.0000 0.40110  0.76480  0.05290  Biso   1.000  H
  H49      1.0000 0.18800  0.53500  0.16600  Biso   1.000  H
  H50      1.0000 0.27200  0.51200  0.15900  Biso   1.000  H
  H51      1.0000 0.58770  0.76420  0.71250  Biso   1.000  H
  H52      1.0000 0.50950  0.89850  0.79840  Biso   1.000  H
  H53      1.0000 0.40110  0.94710  0.71190  Biso   1.000  H
  H54      1.0000 0.18800  0.83400  0.36900  Biso   1.000  H
  H55      1.0000 0.27200  0.84100  0.35300  Biso   1.000  H
  H56      1.0000 0.58770  0.28750  0.05170  Biso   1.000  H
  H57      1.0000 0.50950  0.20160  0.10010  Biso   1.000  H
  H58      1.0000 0.40110  0.28810  0.23520  Biso   1.000  H
  H59      1.0000 0.18800  0.63100  0.46500  Biso   1.000  H
  H60      1.0000 0.27200  0.64700  0.48800  Biso   1.000  H
  C1       1.0000 0.05250  0.57620  0.73310  Biso   1.000  C
  C2       1.0000 0.05160  0.67860  0.78580  Biso   1.000  C
  C3       1.0000 0.00420  0.72940  0.86260  Biso   1.000  C
  C4       1.0000 0.94040  0.67840  0.89470  Biso   1.000  C
  C5       1.0000 0.88580  0.51350  0.86730  Biso   1.000  C
  C6       1.0000 0.10780  0.51000  0.64620  Biso   1.000  C
  C7       1.0000 0.94590  0.57510  0.83800  Biso   1.000  C
  C8       1.0000 0.05250  0.15690  0.42380  Biso   1.000  C
  C9       1.0000 0.05160  0.10720  0.32140  Biso   1.000  C
  C10      1.0000 0.00420  0.13320  0.27060  Biso   1.000  C
  C11      1.0000 0.94040  0.21630  0.32160  Biso   1.000  C
  C12      1.0000 0.88580  0.35380  0.48650  Biso   1.000  C
  C13      1.0000 0.10780  0.13620  0.49000  Biso   1.000  C
  C14      1.0000 0.94590  0.26290  0.42490  Biso   1.000  C
  C15      1.0000 0.05250  0.26690  0.84310  Biso   1.000  C
  C16      1.0000 0.05160  0.21420  0.89280  Biso   1.000  C
  C17      1.0000 0.00420  0.13740  0.86680  Biso   1.000  C
  C18      1.0000 0.94040  0.10530  0.78370  Biso   1.000  C
  C19      1.0000 0.88580  0.13270  0.64620  Biso   1.000  C
  C20      1.0000 0.10780  0.35380  0.86380  Biso   1.000  C
  C21      1.0000 0.94590  0.16200  0.73710  Biso   1.000  C
  C22      1.0000 0.05250  0.42380  0.26690  Biso   1.000  C
  C23      1.0000 0.05160  0.32140  0.21420  Biso   1.000  C
  C24      1.0000 0.00420  0.27060  0.13740  Biso   1.000  C
  C25      1.0000 0.94040  0.32160  0.10530  Biso   1.000  C
  C26      1.0000 0.88580  0.48650  0.13270  Biso   1.000  C
  C27      1.0000 0.10780  0.49000  0.35380  Biso   1.000  C
  C28      1.0000 0.94590  0.42490  0.16200  Biso   1.000  C
  C29      1.0000 0.05250  0.84310  0.57620  Biso   1.000  C
  C30      1.0000 0.05160  0.89280  0.67860  Biso   1.000  C
  C31      1.0000 0.00420  0.86680  0.72940  Biso   1.000  C
  C32      1.0000 0.94040  0.78370  0.67840  Biso   1.000  C
  C33      1.0000 0.88580  0.64620  0.51350  Biso   1.000  C
  C34      1.0000 0.10780  0.86380  0.51000  Biso   1.000  C
  C35      1.0000 0.94590  0.73710  0.57510  Biso   1.000  C
  C36      1.0000 0.05250  0.73310  0.15690  Biso   1.000  C
  C37      1.0000 0.05160  0.78580  0.10720  Biso   1.000  C
  C38      1.0000 0.00420  0.86260  0.13320  Biso   1.000  C
  C39      1.0000 0.94040  0.89470  0.21630  Biso   1.000  C
  C40      1.0000 0.88580  0.86730  0.35380  Biso   1.000  C
  C41      1.0000 0.10780  0.64620  0.13620  Biso   1.000  C
  C42      1.0000 0.94590  0.83800  0.26290  Biso   1.000  C
  C43      1.0000 0.55250  0.15690  0.73310  Biso   1.000  C
  C44      1.0000 0.55160  0.10720  0.78580  Biso   1.000  C
  C45      1.0000 0.50420  0.13320  0.86260  Biso   1.000  C
  C46      1.0000 0.44040  0.21630  0.89470  Biso   1.000  C
  C47      1.0000 0.38580  0.35380  0.86730  Biso   1.000  C
  C48      1.0000 0.60780  0.13620  0.64620  Biso   1.000  C
  C49      1.0000 0.44590  0.26290  0.83800  Biso   1.000  C
  C50      1.0000 0.55250  0.26690  0.42380  Biso   1.000  C
  C51      1.0000 0.55160  0.21420  0.32140  Biso   1.000  C
  C52      1.0000 0.50420  0.13740  0.27060  Biso   1.000  C
  C53      1.0000 0.44040  0.10530  0.32160  Biso   1.000  C
  C54      1.0000 0.38580  0.13270  0.48650  Biso   1.000  C
  C55      1.0000 0.60780  0.35380  0.49000  Biso   1.000  C
  C56      1.0000 0.44590  0.16200  0.42490  Biso   1.000  C
  C57      1.0000 0.55250  0.57620  0.84310  Biso   1.000  C
  C58      1.0000 0.55160  0.67860  0.89280  Biso   1.000  C
  C59      1.0000 0.50420  0.72940  0.86680  Biso   1.000  C
  C60      1.0000 0.44040  0.67840  0.78370  Biso   1.000  C
  C61      1.0000 0.38580  0.51350  0.64620  Biso   1.000  C
  C62      1.0000 0.60780  0.51000  0.86380  Biso   1.000  C
  C63      1.0000 0.44590  0.57510  0.73710  Biso   1.000  C
  C64      1.0000 0.55250  0.84310  0.26690  Biso   1.000  C
  C65      1.0000 0.55160  0.89280  0.21420  Biso   1.000  C
  C66      1.0000 0.50420  0.86680  0.13740  Biso   1.000  C
  C67      1.0000 0.44040  0.78370  0.10530  Biso   1.000  C
  C68      1.0000 0.38580  0.64620  0.13270  Biso   1.000  C
  C69      1.0000 0.60780  0.86380  0.35380  Biso   1.000  C
  C70      1.0000 0.44590  0.73710  0.16200  Biso   1.000  C
  C71      1.0000 0.55250  0.73310  0.57620  Biso   1.000  C
  C72      1.0000 0.55160  0.78580  0.67860  Biso   1.000  C
  C73      1.0000 0.50420  0.86260  0.72940  Biso   1.000  C
  C74      1.0000 0.44040  0.89470  0.67840  Biso   1.000  C
  C75      1.0000 0.38580  0.86730  0.51350  Biso   1.000  C
  C76      1.0000 0.60780  0.64620  0.51000  Biso   1.000  C
  C77      1.0000 0.44590  0.83800  0.57510  Biso   1.000  C
  C78      1.0000 0.55250  0.42380  0.15690  Biso   1.000  C
  C79      1.0000 0.55160  0.32140  0.10720  Biso   1.000  C
  C80      1.0000 0.50420  0.27060  0.13320  Biso   1.000  C
  C81      1.0000 0.44040  0.32160  0.21630  Biso   1.000  C
  C82      1.0000 0.38580  0.48650  0.35380  Biso   1.000  C
  C83      1.0000 0.60780  0.49000  0.13620  Biso   1.000  C
  C84      1.0000 0.44590  0.42490  0.26290  Biso   1.000  C
  N1       1.0000 0.99760  0.52540  0.76380  Biso   1.000  N
  N2       1.0000 0.99760  0.23840  0.47460  Biso   1.000  N
  N3       1.0000 0.99760  0.23620  0.76160  Biso   1.000  N
  N4       1.0000 0.99760  0.47460  0.23620  Biso   1.000  N
  N5       1.0000 0.99760  0.76160  0.52540  Biso   1.000  N
  N6       1.0000 0.99760  0.76380  0.23840  Biso   1.000  N
  N7       1.0000 0.49760  0.23840  0.76380  Biso   1.000  N
  N8       1.0000 0.49760  0.23620  0.47460  Biso   1.000  N
  N9       1.0000 0.49760  0.52540  0.76160  Biso   1.000  N
  N10      1.0000 0.49760  0.76160  0.23620  Biso   1.000  N
  N11      1.0000 0.49760  0.76380  0.52540  Biso   1.000  N
  N12      1.0000 0.49760  0.47460  0.23840  Biso   1.000  N
  O1       1.0000 0.10700  0.41650  0.61400  Biso   1.000  O
  O2       1.0000 0.88910  0.42140  0.80640  Biso   1.000  O
  O3       1.0000 0.84310  0.55610  0.94110  Biso   1.000  O
  O4       1.0000 0.15480  0.55340  0.60920  Biso   1.000  O
  O5       1.0000 0.74410  0.35600  0.86800  Biso   1.000  O
  O6       1.0000 0.10700  0.19750  0.58350  Biso   1.000  O
  O7       1.0000 0.88910  0.38500  0.57860  Biso   1.000  O
  O8       1.0000 0.84310  0.38500  0.44390  Biso   1.000  O
  O9       1.0000 0.15480  0.05580  0.44660  Biso   1.000  O
  O10      1.0000 0.74410  0.51200  0.64400  Biso   1.000  O
  O11      1.0000 0.10700  0.38600  0.80250  Biso   1.000  O
  O12      1.0000 0.88910  0.19360  0.61500  Biso   1.000  O
  O13      1.0000 0.84310  0.05890  0.61500  Biso   1.000  O
  O14      1.0000 0.15480  0.39080  0.94420  Biso   1.000  O
  O15      1.0000 0.74410  0.13200  0.48800  Biso   1.000  O
  O16      1.0000 0.10700  0.58350  0.38600  Biso   1.000  O
  O17      1.0000 0.88910  0.57860  0.19360  Biso   1.000  O
  O18      1.0000 0.84310  0.44390  0.05890  Biso   1.000  O
  O19      1.0000 0.15480  0.44660  0.39080  Biso   1.000  O
  O20      1.0000 0.74410  0.64400  0.13200  Biso   1.000  O
  O21      1.0000 0.10700  0.80250  0.41650  Biso   1.000  O
  O22      1.0000 0.88910  0.61500  0.42140  Biso   1.000  O
  O23      1.0000 0.84310  0.61500  0.55610  Biso   1.000  O
  O24      1.0000 0.15480  0.94420  0.55340  Biso   1.000  O
  O25      1.0000 0.74410  0.48800  0.35600  Biso   1.000  O
  O26      1.0000 0.10700  0.61400  0.19750  Biso   1.000  O
  O27      1.0000 0.88910  0.80640  0.38500  Biso   1.000  O
  O28      1.0000 0.84310  0.94110  0.38500  Biso   1.000  O
  O29      1.0000 0.15480  0.60920  0.05580  Biso   1.000  O
  O30      1.0000 0.74410  0.86800  0.51200  Biso   1.000  O
  O31      1.0000 0.60700  0.19750  0.61400  Biso   1.000  O
  O32      1.0000 0.38910  0.38500  0.80640  Biso   1.000  O
  O33      1.0000 0.34310  0.38500  0.94110  Biso   1.000  O
  O34      1.0000 0.65480  0.05580  0.60920  Biso   1.000  O
  O35      1.0000 0.24410  0.51200  0.86800  Biso   1.000  O
  O36      1.0000 0.60700  0.38600  0.58350  Biso   1.000  O
  O37      1.0000 0.38910  0.19360  0.57860  Biso   1.000  O
  O38      1.0000 0.34310  0.05890  0.44390  Biso   1.000  O
  O39      1.0000 0.65480  0.39080  0.44660  Biso   1.000  O
  O40      1.0000 0.24410  0.13200  0.64400  Biso   1.000  O
  O41      1.0000 0.60700  0.41650  0.80250  Biso   1.000  O
  O42      1.0000 0.38910  0.42140  0.61500  Biso   1.000  O
  O43      1.0000 0.34310  0.55610  0.61500  Biso   1.000  O
  O44      1.0000 0.65480  0.55340  0.94420  Biso   1.000  O
  O45      1.0000 0.24410  0.35600  0.48800  Biso   1.000  O
  O46      1.0000 0.60700  0.80250  0.38600  Biso   1.000  O
  O47      1.0000 0.38910  0.61500  0.19360  Biso   1.000  O
  O48      1.0000 0.34310  0.61500  0.05890  Biso   1.000  O
  O49      1.0000 0.65480  0.94420  0.39080  Biso   1.000  O
  O50      1.0000 0.24410  0.48800  0.13200  Biso   1.000  O
  O51      1.0000 0.60700  0.61400  0.41650  Biso   1.000  O
  O52      1.0000 0.38910  0.80640  0.42140  Biso   1.000  O
  O53      1.0000 0.34310  0.94110  0.55610  Biso   1.000  O
  O54      1.0000 0.65480  0.60920  0.55340  Biso   1.000  O
  O55      1.0000 0.24410  0.86800  0.35600  Biso   1.000  O
  O56      1.0000 0.60700  0.58350  0.19750  Biso   1.000  O
  O57      1.0000 0.38910  0.57860  0.38500  Biso   1.000  O
  O58      1.0000 0.34310  0.44390  0.38500  Biso   1.000  O
  O59      1.0000 0.65480  0.44660  0.05580  Biso   1.000  O
  O60      1.0000 0.24410  0.64400  0.51200  Biso   1.000  O
