data_image0
_cell_length_a       8.6266
_cell_length_b       9.919
_cell_length_c       11.694
_cell_angle_alpha    74.7
_cell_angle_beta     69.75
_cell_angle_gamma    85.92

_symmetry_space_group_name_H-M    P 1
_symmetry_int_tables_number       1

loop_
  _symmetry_equiv_pos_as_xyz
  'x, y, z'

loop_
  _atom_site_label
  _atom_site_occupancy
  _atom_site_fract_x
  _atom_site_fract_y
  _atom_site_fract_z
  _atom_site_thermal_displace_type
  _atom_site_B_iso_or_equiv
  _atom_site_type_symbol
  Nd1      1.0000 0.24553  0.47759  0.01184  Biso   1.000  Nd
  Nd2      1.0000 0.75447  0.52241  0.98816  Biso   1.000  Nd
  H1       1.0000 0.23200  0.52570  0.32820  Biso   1.000  H
  H2       1.0000 0.25290  0.68790  0.27440  Biso   1.000  H
  H3       1.0000 0.40540  0.70250  0.39680  Biso   1.000  H
  H4       1.0000 0.41530  0.53910  0.43880  Biso   1.000  H
  H5       1.0000 0.12220  0.69080  0.50760  Biso   1.000  H
  H6       1.0000 0.12430  0.52720  0.54330  Biso   1.000  H
  H7       1.0000 0.29490  0.53910  0.66310  Biso   1.000  H
  H8       1.0000 0.26690  0.70030  0.63730  Biso   1.000  H
  H9       1.0000 0.25010  0.98250  0.21740  Biso   1.000  H
  H10      1.0000 0.22020  0.97090  0.09540  Biso   1.000  H
  H11      1.0000 0.47850  0.87950  0.10100  Biso   1.000  H
  H12      1.0000 0.53430  0.02610  0.10200  Biso   1.000  H
  H13      1.0000 0.76800  0.47430  0.67180  Biso   1.000  H
  H14      1.0000 0.74710  0.31210  0.72560  Biso   1.000  H
  H15      1.0000 0.59460  0.29750  0.60320  Biso   1.000  H
  H16      1.0000 0.58470  0.46090  0.56120  Biso   1.000  H
  H17      1.0000 0.87780  0.30920  0.49240  Biso   1.000  H
  H18      1.0000 0.87570  0.47280  0.45670  Biso   1.000  H
  H19      1.0000 0.70510  0.46090  0.33690  Biso   1.000  H
  H20      1.0000 0.73310  0.29970  0.36270  Biso   1.000  H
  H21      1.0000 0.74990  0.01750  0.78260  Biso   1.000  H
  H22      1.0000 0.77980  0.02910  0.90460  Biso   1.000  H
  H23      1.0000 0.52150  0.12050  0.89900  Biso   1.000  H
  H24      1.0000 0.46570  0.97390  0.89800  Biso   1.000  H
  C1       1.0000 0.45500  0.58460  0.19260  Biso   1.000  C
  C2       1.0000 0.30850  0.60390  0.30260  Biso   1.000  C
  C3       1.0000 0.34550  0.61540  0.41680  Biso   1.000  C
  C4       1.0000 0.18780  0.61070  0.52860  Biso   1.000  C
  C5       1.0000 0.21660  0.61110  0.64880  Biso   1.000  C
  C6       1.0000 0.06470  0.58740  0.76420  Biso   1.000  C
  C7       1.0000 0.26070  0.17220  0.09240  Biso   1.000  C
  C8       1.0000 0.28700  0.01710  0.12630  Biso   1.000  C
  C9       1.0000 0.46750  0.97950  0.07140  Biso   1.000  C
  C10      1.0000 0.54500  0.41540  0.80740  Biso   1.000  C
  C11      1.0000 0.69150  0.39610  0.69740  Biso   1.000  C
  C12      1.0000 0.65450  0.38460  0.58320  Biso   1.000  C
  C13      1.0000 0.81220  0.38930  0.47140  Biso   1.000  C
  C14      1.0000 0.78340  0.38890  0.35120  Biso   1.000  C
  C15      1.0000 0.93530  0.41260  0.23580  Biso   1.000  C
  C16      1.0000 0.73930  0.82780  0.90760  Biso   1.000  C
  C17      1.0000 0.71300  0.98290  0.87370  Biso   1.000  C
  C18      1.0000 0.53250  0.02050  0.92860  Biso   1.000  C
  O1       1.0000 0.43100  0.53530  0.11038  Biso   1.000  O
  O2       1.0000 0.59980  0.61560  0.18011  Biso   1.000  O
  O3       1.0000 0.07700  0.54410  0.87283  Biso   1.000  O
  O4       1.0000 0.92360  0.60670  0.75410  Biso   1.000  O
  O5       1.0000 0.36290  0.25380  0.09750  Biso   1.000  O
  O6       1.0000 0.14100  0.21970  0.05770  Biso   1.000  O
  O7       1.0000 0.37140  0.70100  0.84780  Biso   1.000  O
  O8       1.0000 0.12600  0.69560  0.08740  Biso   1.000  O
  O9       1.0000 0.56900  0.46470  0.88962  Biso   1.000  O
  O10      1.0000 0.40020  0.38440  0.81989  Biso   1.000  O
  O11      1.0000 0.92300  0.45590  0.12717  Biso   1.000  O
  O12      1.0000 0.07640  0.39330  0.24590  Biso   1.000  O
  O13      1.0000 0.63710  0.74620  0.90250  Biso   1.000  O
  O14      1.0000 0.85900  0.78030  0.94230  Biso   1.000  O
  O15      1.0000 0.62860  0.29900  0.15220  Biso   1.000  O
  O16      1.0000 0.87400  0.30440  0.91260  Biso   1.000  O
