data_image0
_cell_length_a       7.43298
_cell_length_b       9.36727
_cell_length_c       12.4478
_cell_angle_alpha    112.102
_cell_angle_beta     107.371
_cell_angle_gamma    90.0001

_symmetry_space_group_name_H-M    P 1
_symmetry_int_tables_number       1

loop_
  _symmetry_equiv_pos_as_xyz
  'x, y, z'

loop_
  _atom_site_label
  _atom_site_occupancy
  _atom_site_fract_x
  _atom_site_fract_y
  _atom_site_fract_z
  _atom_site_thermal_displace_type
  _atom_site_B_iso_or_equiv
  _atom_site_type_symbol
  V1       1.0000 0.53794  0.24417  0.48834  Biso   1.000  V
  V2       1.0000 0.95040  0.24417  0.48834  Biso   1.000  V
  V3       1.0000 0.46206  0.75583  0.51166  Biso   1.000  V
  V4       1.0000 0.04960  0.75583  0.51166  Biso   1.000  V
  P1       1.0000 0.81145  0.57929  0.62290  Biso   1.000  P
  P2       1.0000 0.81145  0.04361  0.62290  Biso   1.000  P
  P3       1.0000 0.18855  0.95639  0.37710  Biso   1.000  P
  P4       1.0000 0.18855  0.42071  0.37710  Biso   1.000  P
  H1       1.0000 0.99750  0.52120  0.78060  Biso   1.000  H
  H2       1.0000 0.83100  0.79690  0.87800  Biso   1.000  H
  H3       1.0000 0.78310  0.25940  0.78060  Biso   1.000  H
  H4       1.0000 0.04700  0.08110  0.87800  Biso   1.000  H
  H5       1.0000 0.00250  0.74060  0.21940  Biso   1.000  H
  H6       1.0000 0.16900  0.91890  0.12200  Biso   1.000  H
  H7       1.0000 0.21690  0.47880  0.21940  Biso   1.000  H
  H8       1.0000 0.95300  0.20310  0.12200  Biso   1.000  H
  H9       1.0000 0.00250  0.47880  0.21940  Biso   1.000  H
  H10      1.0000 0.16900  0.20310  0.12200  Biso   1.000  H
  H11      1.0000 0.21690  0.74060  0.21940  Biso   1.000  H
  H12      1.0000 0.95300  0.91890  0.12200  Biso   1.000  H
  H13      1.0000 0.99750  0.25940  0.78060  Biso   1.000  H
  H14      1.0000 0.83100  0.08110  0.87800  Biso   1.000  H
  H15      1.0000 0.78310  0.52120  0.78060  Biso   1.000  H
  H16      1.0000 0.04700  0.79690  0.87800  Biso   1.000  H
  H17      1.0000 0.64690  0.20990  0.29380  Biso   1.000  H
  H18      1.0000 0.64690  0.08390  0.29380  Biso   1.000  H
  H19      1.0000 0.35310  0.91610  0.70620  Biso   1.000  H
  H20      1.0000 0.35310  0.79010  0.70620  Biso   1.000  H
  H21      1.0000 0.89270  0.64770  0.00000  Biso   1.000  H
  H22      1.0000 0.10730  0.35230  0.00000  Biso   1.000  H
  H23      1.0000 0.10730  0.64770  0.00000  Biso   1.000  H
  H24      1.0000 0.89270  0.35230  0.00000  Biso   1.000  H
  C1       1.0000 0.88649  0.57949  0.77298  Biso   1.000  C
  C2       1.0000 0.94068  0.73688  0.88136  Biso   1.000  C
  C3       1.0000 0.88649  0.19349  0.77298  Biso   1.000  C
  C4       1.0000 0.94068  0.14448  0.88136  Biso   1.000  C
  C5       1.0000 0.11351  0.80651  0.22702  Biso   1.000  C
  C6       1.0000 0.05932  0.85552  0.11864  Biso   1.000  C
  C7       1.0000 0.11351  0.42051  0.22702  Biso   1.000  C
  C8       1.0000 0.05932  0.26312  0.11864  Biso   1.000  C
  C9       1.0000 0.00000  0.71030  0.00000  Biso   1.000  C
  C10      1.0000 0.00000  0.28970  1.00000  Biso   1.000  C
  O1       1.0000 0.63088  0.65487  0.60700  Biso   1.000  O
  O2       1.0000 0.97612  0.95213  0.60700  Biso   1.000  O
  O3       1.0000 0.36912  0.04787  0.39300  Biso   1.000  O
  O4       1.0000 0.02388  0.34513  0.39300  Biso   1.000  O
  O5       1.0000 0.36912  0.34513  0.39300  Biso   1.000  O
  O6       1.0000 0.02388  0.04787  0.39300  Biso   1.000  O
  O7       1.0000 0.63088  0.95213  0.60700  Biso   1.000  O
  O8       1.0000 0.97612  0.65487  0.60700  Biso   1.000  O
  O9       1.0000 0.50091  0.30861  0.61722  Biso   1.000  O
  O10      1.0000 0.11631  0.30861  0.61722  Biso   1.000  O
  O11      1.0000 0.49909  0.69139  0.38278  Biso   1.000  O
  O12      1.0000 0.88369  0.69139  0.38278  Biso   1.000  O
  O13      1.0000 0.76565  0.40470  0.53130  Biso   1.000  O
  O14      1.0000 0.76565  0.12660  0.53130  Biso   1.000  O
  O15      1.0000 0.23435  0.87340  0.46870  Biso   1.000  O
  O16      1.0000 0.23435  0.59530  0.46870  Biso   1.000  O
  O17      1.0000 0.66605  0.16605  0.33210  Biso   1.000  O
  O18      1.0000 0.33395  0.83395  0.66790  Biso   1.000  O
