data_image0
_cell_length_a       6.1092
_cell_length_b       7.6866
_cell_length_c       22.6987
_cell_angle_alpha    90
_cell_angle_beta     91.657
_cell_angle_gamma    90

_symmetry_space_group_name_H-M    P 1
_symmetry_int_tables_number       1

loop_
  _symmetry_equiv_pos_as_xyz
  'x, y, z'

loop_
  _atom_site_label
  _atom_site_occupancy
  _atom_site_fract_x
  _atom_site_fract_y
  _atom_site_fract_z
  _atom_site_thermal_displace_type
  _atom_site_B_iso_or_equiv
  _atom_site_type_symbol
  Nd1      1.0000 0.45527  0.50320  0.85402  Biso   1.000  Nd
  Nd2      1.0000 0.54473  0.00320  0.64598  Biso   1.000  Nd
  Nd3      1.0000 0.54473  0.49680  0.14598  Biso   1.000  Nd
  Nd4      1.0000 0.45527  0.99680  0.35402  Biso   1.000  Nd
  H1       1.0000 0.30200  0.72300  0.76100  Biso   1.000  H
  H2       1.0000 0.42300  0.63300  0.61200  Biso   1.000  H
  H3       1.0000 0.04600  0.64900  0.87900  Biso   1.000  H
  H4       1.0000 0.14800  0.72400  0.92400  Biso   1.000  H
  H5       1.0000 0.04310  0.47840  0.71750  Biso   1.000  H
  H6       1.0000 0.12250  0.56910  0.62440  Biso   1.000  H
  H7       1.0000 0.69800  0.22300  0.73900  Biso   1.000  H
  H8       1.0000 0.57700  0.13300  0.88800  Biso   1.000  H
  H9       1.0000 0.95400  0.14900  0.62100  Biso   1.000  H
  H10      1.0000 0.85200  0.22400  0.57600  Biso   1.000  H
  H11      1.0000 0.95690  0.97840  0.78250  Biso   1.000  H
  H12      1.0000 0.87750  0.06910  0.87560  Biso   1.000  H
  H13      1.0000 0.69800  0.27700  0.23900  Biso   1.000  H
  H14      1.0000 0.57700  0.36700  0.38800  Biso   1.000  H
  H15      1.0000 0.95400  0.35100  0.12100  Biso   1.000  H
  H16      1.0000 0.85200  0.27600  0.07600  Biso   1.000  H
  H17      1.0000 0.95690  0.52160  0.28250  Biso   1.000  H
  H18      1.0000 0.87750  0.43090  0.37560  Biso   1.000  H
  H19      1.0000 0.30200  0.77700  0.26100  Biso   1.000  H
  H20      1.0000 0.42300  0.86700  0.11200  Biso   1.000  H
  H21      1.0000 0.04600  0.85100  0.37900  Biso   1.000  H
  H22      1.0000 0.14800  0.77600  0.42400  Biso   1.000  H
  H23      1.0000 0.04310  0.02160  0.21750  Biso   1.000  H
  H24      1.0000 0.12250  0.93090  0.12440  Biso   1.000  H
  C1       1.0000 0.36630  0.39480  0.71110  Biso   1.000  C
  C2       1.0000 0.18490  0.53710  0.71470  Biso   1.000  C
  C3       1.0000 0.18380  0.64230  0.65620  Biso   1.000  C
  C4       1.0000 0.04670  0.81150  0.65950  Biso   1.000  C
  C5       1.0000 0.58370  0.57590  0.99880  Biso   1.000  C
  C6       1.0000 0.63370  0.89480  0.78890  Biso   1.000  C
  C7       1.0000 0.81510  0.03710  0.78530  Biso   1.000  C
  C8       1.0000 0.81620  0.14230  0.84380  Biso   1.000  C
  C9       1.0000 0.95330  0.31150  0.84050  Biso   1.000  C
  C10      1.0000 0.41630  0.07590  0.50120  Biso   1.000  C
  C11      1.0000 0.63370  0.60520  0.28890  Biso   1.000  C
  C12      1.0000 0.81510  0.46290  0.28530  Biso   1.000  C
  C13      1.0000 0.81620  0.35770  0.34380  Biso   1.000  C
  C14      1.0000 0.95330  0.18850  0.34050  Biso   1.000  C
  C15      1.0000 0.41630  0.42410  0.00120  Biso   1.000  C
  C16      1.0000 0.36630  0.10520  0.21110  Biso   1.000  C
  C17      1.0000 0.18490  0.96290  0.21470  Biso   1.000  C
  C18      1.0000 0.18380  0.85770  0.15620  Biso   1.000  C
  C19      1.0000 0.04670  0.68850  0.15950  Biso   1.000  C
  C20      1.0000 0.58370  0.92410  0.49880  Biso   1.000  C
  O1       1.0000 0.51510  0.40110  0.75160  Biso   1.000  O
  O2       1.0000 0.35790  0.28580  0.67040  Biso   1.000  O
  O3       1.0000 0.21890  0.64080  0.76680  Biso   1.000  O
  O4       1.0000 0.40500  0.69140  0.64170  Biso   1.000  O
  O5       1.0000 0.14880  0.95320  0.65390  Biso   1.000  O
  O6       1.0000 0.84530  0.79560  0.66620  Biso   1.000  O
  O7       1.0000 0.62340  0.63260  0.94720  Biso   1.000  O
  O8       1.0000 0.66440  0.63110  0.04710  Biso   1.000  O
  O9       1.0000 0.15500  0.70450  0.88900  Biso   1.000  O
  O10      1.0000 0.48490  0.90110  0.74840  Biso   1.000  O
  O11      1.0000 0.64210  0.78580  0.82960  Biso   1.000  O
  O12      1.0000 0.78110  0.14080  0.73320  Biso   1.000  O
  O13      1.0000 0.59500  0.19140  0.85830  Biso   1.000  O
  O14      1.0000 0.85120  0.45320  0.84610  Biso   1.000  O
  O15      1.0000 0.15470  0.29560  0.83380  Biso   1.000  O
  O16      1.0000 0.37660  0.13260  0.55280  Biso   1.000  O
  O17      1.0000 0.33560  0.13110  0.45290  Biso   1.000  O
  O18      1.0000 0.84500  0.20450  0.61100  Biso   1.000  O
  O19      1.0000 0.48490  0.59890  0.24840  Biso   1.000  O
  O20      1.0000 0.64210  0.71420  0.32960  Biso   1.000  O
  O21      1.0000 0.78110  0.35920  0.23320  Biso   1.000  O
  O22      1.0000 0.59500  0.30860  0.35830  Biso   1.000  O
  O23      1.0000 0.85120  0.04680  0.34610  Biso   1.000  O
  O24      1.0000 0.15470  0.20440  0.33380  Biso   1.000  O
  O25      1.0000 0.37660  0.36740  0.05280  Biso   1.000  O
  O26      1.0000 0.33560  0.36890  0.95290  Biso   1.000  O
  O27      1.0000 0.84500  0.29550  0.11100  Biso   1.000  O
  O28      1.0000 0.51510  0.09890  0.25160  Biso   1.000  O
  O29      1.0000 0.35790  0.21420  0.17040  Biso   1.000  O
  O30      1.0000 0.21890  0.85920  0.26680  Biso   1.000  O
  O31      1.0000 0.40500  0.80860  0.14170  Biso   1.000  O
  O32      1.0000 0.14880  0.54680  0.15390  Biso   1.000  O
  O33      1.0000 0.84530  0.70440  0.16620  Biso   1.000  O
  O34      1.0000 0.62340  0.86740  0.44720  Biso   1.000  O
  O35      1.0000 0.66440  0.86890  0.54710  Biso   1.000  O
  O36      1.0000 0.15500  0.79550  0.38900  Biso   1.000  O
