data_image0
_cell_length_a       14.8127
_cell_length_b       14.8127
_cell_length_c       15.613
_cell_angle_alpha    90
_cell_angle_beta     90
_cell_angle_gamma    120

_symmetry_space_group_name_H-M    P 1
_symmetry_int_tables_number       1

loop_
  _symmetry_equiv_pos_as_xyz
  'x, y, z'

loop_
  _atom_site_label
  _atom_site_occupancy
  _atom_site_fract_x
  _atom_site_fract_y
  _atom_site_fract_z
  _atom_site_thermal_displace_type
  _atom_site_B_iso_or_equiv
  _atom_site_type_symbol
  Sm1      1.0000 0.66667  0.33334  0.75000  Biso   1.000  Sm
  Sm2      1.0000 0.33333  0.66666  0.75000  Biso   1.000  Sm
  Sm3      1.0000 0.33333  0.66666  0.25000  Biso   1.000  Sm
  Sm4      1.0000 0.66667  0.33334  0.25000  Biso   1.000  Sm
  Zn1      1.0000 0.50000  0.50000  0.00000  Biso   1.000  Zn
  Zn2      1.0000 0.00000  0.50000  0.00000  Biso   1.000  Zn
  Zn3      1.0000 0.50000  0.00000  0.00000  Biso   1.000  Zn
  Zn4      1.0000 0.00000  0.50000  0.50000  Biso   1.000  Zn
  Zn5      1.0000 0.50000  0.50000  0.50000  Biso   1.000  Zn
  Zn6      1.0000 0.50000  0.00000  0.50000  Biso   1.000  Zn
  H1       1.0000 0.52300  0.34430  0.04640  Biso   1.000  H
  H2       1.0000 0.71950  0.63000  0.76970  Biso   1.000  H
  H3       1.0000 0.79730  0.63240  0.83910  Biso   1.000  H
  H4       1.0000 0.82130  0.47700  0.04640  Biso   1.000  H
  H5       1.0000 0.91050  0.28050  0.76970  Biso   1.000  H
  H6       1.0000 0.83510  0.20270  0.83910  Biso   1.000  H
  H7       1.0000 0.65570  0.17870  0.04640  Biso   1.000  H
  H8       1.0000 0.37000  0.08950  0.76970  Biso   1.000  H
  H9       1.0000 0.36760  0.16490  0.83910  Biso   1.000  H
  H10      1.0000 0.47700  0.65570  0.04640  Biso   1.000  H
  H11      1.0000 0.28050  0.37000  0.76970  Biso   1.000  H
  H12      1.0000 0.20270  0.36760  0.83910  Biso   1.000  H
  H13      1.0000 0.17870  0.52300  0.04640  Biso   1.000  H
  H14      1.0000 0.08950  0.71950  0.76970  Biso   1.000  H
  H15      1.0000 0.16490  0.79730  0.83910  Biso   1.000  H
  H16      1.0000 0.34430  0.82130  0.04640  Biso   1.000  H
  H17      1.0000 0.63000  0.91050  0.76970  Biso   1.000  H
  H18      1.0000 0.63240  0.83510  0.83910  Biso   1.000  H
  H19      1.0000 0.17870  0.65570  0.45360  Biso   1.000  H
  H20      1.0000 0.08950  0.37000  0.73030  Biso   1.000  H
  H21      1.0000 0.16490  0.36760  0.66090  Biso   1.000  H
  H22      1.0000 0.34430  0.52300  0.45360  Biso   1.000  H
  H23      1.0000 0.63000  0.71950  0.73030  Biso   1.000  H
  H24      1.0000 0.63240  0.79730  0.66090  Biso   1.000  H
  H25      1.0000 0.47700  0.82130  0.45360  Biso   1.000  H
  H26      1.0000 0.28050  0.91050  0.73030  Biso   1.000  H
  H27      1.0000 0.20270  0.83510  0.66090  Biso   1.000  H
  H28      1.0000 0.82130  0.34430  0.45360  Biso   1.000  H
  H29      1.0000 0.91050  0.63000  0.73030  Biso   1.000  H
  H30      1.0000 0.83510  0.63240  0.66090  Biso   1.000  H
  H31      1.0000 0.65570  0.47700  0.45360  Biso   1.000  H
  H32      1.0000 0.37000  0.28050  0.73030  Biso   1.000  H
  H33      1.0000 0.36760  0.20270  0.66090  Biso   1.000  H
  H34      1.0000 0.52300  0.17870  0.45360  Biso   1.000  H
  H35      1.0000 0.71950  0.08950  0.73030  Biso   1.000  H
  H36      1.0000 0.79730  0.16490  0.66090  Biso   1.000  H
  H37      1.0000 0.47700  0.65570  0.95360  Biso   1.000  H
  H38      1.0000 0.28050  0.37000  0.23030  Biso   1.000  H
  H39      1.0000 0.20270  0.36760  0.16090  Biso   1.000  H
  H40      1.0000 0.17870  0.52300  0.95360  Biso   1.000  H
  H41      1.0000 0.08950  0.71950  0.23030  Biso   1.000  H
  H42      1.0000 0.16490  0.79730  0.16090  Biso   1.000  H
  H43      1.0000 0.34430  0.82130  0.95360  Biso   1.000  H
  H44      1.0000 0.63000  0.91050  0.23030  Biso   1.000  H
  H45      1.0000 0.63240  0.83510  0.16090  Biso   1.000  H
  H46      1.0000 0.52300  0.34430  0.95360  Biso   1.000  H
  H47      1.0000 0.71950  0.63000  0.23030  Biso   1.000  H
  H48      1.0000 0.79730  0.63240  0.16090  Biso   1.000  H
  H49      1.0000 0.82130  0.47700  0.95360  Biso   1.000  H
  H50      1.0000 0.91050  0.28050  0.23030  Biso   1.000  H
  H51      1.0000 0.83510  0.20270  0.16090  Biso   1.000  H
  H52      1.0000 0.65570  0.17870  0.95360  Biso   1.000  H
  H53      1.0000 0.37000  0.08950  0.23030  Biso   1.000  H
  H54      1.0000 0.36760  0.16490  0.16090  Biso   1.000  H
  H55      1.0000 0.82130  0.34430  0.54640  Biso   1.000  H
  H56      1.0000 0.91050  0.63000  0.26970  Biso   1.000  H
  H57      1.0000 0.83510  0.63240  0.33910  Biso   1.000  H
  H58      1.0000 0.65570  0.47700  0.54640  Biso   1.000  H
  H59      1.0000 0.37000  0.28050  0.26970  Biso   1.000  H
  H60      1.0000 0.36760  0.20270  0.33910  Biso   1.000  H
  H61      1.0000 0.52300  0.17870  0.54640  Biso   1.000  H
  H62      1.0000 0.71950  0.08950  0.26970  Biso   1.000  H
  H63      1.0000 0.79730  0.16490  0.33910  Biso   1.000  H
  H64      1.0000 0.17870  0.65570  0.54640  Biso   1.000  H
  H65      1.0000 0.08950  0.37000  0.26970  Biso   1.000  H
  H66      1.0000 0.16490  0.36760  0.33910  Biso   1.000  H
  H67      1.0000 0.34430  0.52300  0.54640  Biso   1.000  H
  H68      1.0000 0.63000  0.71950  0.26970  Biso   1.000  H
  H69      1.0000 0.63240  0.79730  0.33910  Biso   1.000  H
  H70      1.0000 0.47700  0.82130  0.54640  Biso   1.000  H
  H71      1.0000 0.28050  0.91050  0.26970  Biso   1.000  H
  H72      1.0000 0.20270  0.83510  0.33910  Biso   1.000  H
  C1       1.0000 0.64840  0.51710  0.85970  Biso   1.000  C
  C2       1.0000 0.73790  0.58680  0.80380  Biso   1.000  C
  C3       1.0000 0.86870  0.35160  0.85970  Biso   1.000  C
  C4       1.0000 0.84890  0.26210  0.80380  Biso   1.000  C
  C5       1.0000 0.48290  0.13130  0.85970  Biso   1.000  C
  C6       1.0000 0.41320  0.15110  0.80380  Biso   1.000  C
  C7       1.0000 0.35160  0.48290  0.85970  Biso   1.000  C
  C8       1.0000 0.26210  0.41320  0.80380  Biso   1.000  C
  C9       1.0000 0.13130  0.64840  0.85970  Biso   1.000  C
  C10      1.0000 0.15110  0.73790  0.80380  Biso   1.000  C
  C11      1.0000 0.51710  0.86870  0.85970  Biso   1.000  C
  C12      1.0000 0.58680  0.84890  0.80380  Biso   1.000  C
  C13      1.0000 0.13130  0.48290  0.64030  Biso   1.000  C
  C14      1.0000 0.15110  0.41320  0.69620  Biso   1.000  C
  C15      1.0000 0.51710  0.64840  0.64030  Biso   1.000  C
  C16      1.0000 0.58680  0.73790  0.69620  Biso   1.000  C
  C17      1.0000 0.35160  0.86870  0.64030  Biso   1.000  C
  C18      1.0000 0.26210  0.84890  0.69620  Biso   1.000  C
  C19      1.0000 0.86870  0.51710  0.64030  Biso   1.000  C
  C20      1.0000 0.84890  0.58680  0.69620  Biso   1.000  C
  C21      1.0000 0.48290  0.35160  0.64030  Biso   1.000  C
  C22      1.0000 0.41320  0.26210  0.69620  Biso   1.000  C
  C23      1.0000 0.64840  0.13130  0.64030  Biso   1.000  C
  C24      1.0000 0.73790  0.15110  0.69620  Biso   1.000  C
  C25      1.0000 0.35160  0.48290  0.14030  Biso   1.000  C
  C26      1.0000 0.26210  0.41320  0.19620  Biso   1.000  C
  C27      1.0000 0.13130  0.64840  0.14030  Biso   1.000  C
  C28      1.0000 0.15110  0.73790  0.19620  Biso   1.000  C
  C29      1.0000 0.51710  0.86870  0.14030  Biso   1.000  C
  C30      1.0000 0.58680  0.84890  0.19620  Biso   1.000  C
  C31      1.0000 0.64840  0.51710  0.14030  Biso   1.000  C
  C32      1.0000 0.73790  0.58680  0.19620  Biso   1.000  C
  C33      1.0000 0.86870  0.35160  0.14030  Biso   1.000  C
  C34      1.0000 0.84890  0.26210  0.19620  Biso   1.000  C
  C35      1.0000 0.48290  0.13130  0.14030  Biso   1.000  C
  C36      1.0000 0.41320  0.15110  0.19620  Biso   1.000  C
  C37      1.0000 0.86870  0.51710  0.35970  Biso   1.000  C
  C38      1.0000 0.84890  0.58680  0.30380  Biso   1.000  C
  C39      1.0000 0.48290  0.35160  0.35970  Biso   1.000  C
  C40      1.0000 0.41320  0.26210  0.30380  Biso   1.000  C
  C41      1.0000 0.64840  0.13130  0.35970  Biso   1.000  C
  C42      1.0000 0.73790  0.15110  0.30380  Biso   1.000  C
  C43      1.0000 0.13130  0.48290  0.35970  Biso   1.000  C
  C44      1.0000 0.15110  0.41320  0.30380  Biso   1.000  C
  C45      1.0000 0.51710  0.64840  0.35970  Biso   1.000  C
  C46      1.0000 0.58680  0.73790  0.30380  Biso   1.000  C
  C47      1.0000 0.35160  0.86870  0.35970  Biso   1.000  C
  C48      1.0000 0.26210  0.84890  0.30380  Biso   1.000  C
  O1       1.0000 0.61500  0.42020  0.85540  Biso   1.000  O
  O2       1.0000 0.61470  0.56030  0.90760  Biso   1.000  O
  O3       1.0000 0.80520  0.38500  0.85540  Biso   1.000  O
  O4       1.0000 0.94560  0.38530  0.90760  Biso   1.000  O
  O5       1.0000 0.57980  0.19480  0.85540  Biso   1.000  O
  O6       1.0000 0.43970  0.05440  0.90760  Biso   1.000  O
  O7       1.0000 0.38500  0.57980  0.85540  Biso   1.000  O
  O8       1.0000 0.38530  0.43970  0.90760  Biso   1.000  O
  O9       1.0000 0.19480  0.61500  0.85540  Biso   1.000  O
  O10      1.0000 0.05440  0.61470  0.90760  Biso   1.000  O
  O11      1.0000 0.42020  0.80520  0.85540  Biso   1.000  O
  O12      1.0000 0.56030  0.94560  0.90760  Biso   1.000  O
  O13      1.0000 0.19480  0.57980  0.64460  Biso   1.000  O
  O14      1.0000 0.05440  0.43970  0.59240  Biso   1.000  O
  O15      1.0000 0.42020  0.61500  0.64460  Biso   1.000  O
  O16      1.0000 0.56030  0.61470  0.59240  Biso   1.000  O
  O17      1.0000 0.38500  0.80520  0.64460  Biso   1.000  O
  O18      1.0000 0.38530  0.94560  0.59240  Biso   1.000  O
  O19      1.0000 0.80520  0.42020  0.64460  Biso   1.000  O
  O20      1.0000 0.94560  0.56030  0.59240  Biso   1.000  O
  O21      1.0000 0.57980  0.38500  0.64460  Biso   1.000  O
  O22      1.0000 0.43970  0.38530  0.59240  Biso   1.000  O
  O23      1.0000 0.61500  0.19480  0.64460  Biso   1.000  O
  O24      1.0000 0.61470  0.05440  0.59240  Biso   1.000  O
  O25      1.0000 0.38500  0.57980  0.14460  Biso   1.000  O
  O26      1.0000 0.38530  0.43970  0.09240  Biso   1.000  O
  O27      1.0000 0.19480  0.61500  0.14460  Biso   1.000  O
  O28      1.0000 0.05440  0.61470  0.09240  Biso   1.000  O
  O29      1.0000 0.42020  0.80520  0.14460  Biso   1.000  O
  O30      1.0000 0.56030  0.94560  0.09240  Biso   1.000  O
  O31      1.0000 0.61500  0.42020  0.14460  Biso   1.000  O
  O32      1.0000 0.61470  0.56030  0.09240  Biso   1.000  O
  O33      1.0000 0.80520  0.38500  0.14460  Biso   1.000  O
  O34      1.0000 0.94560  0.38530  0.09240  Biso   1.000  O
  O35      1.0000 0.57980  0.19480  0.14460  Biso   1.000  O
  O36      1.0000 0.43970  0.05440  0.09240  Biso   1.000  O
  O37      1.0000 0.80520  0.42020  0.35540  Biso   1.000  O
  O38      1.0000 0.94560  0.56030  0.40760  Biso   1.000  O
  O39      1.0000 0.57980  0.38500  0.35540  Biso   1.000  O
  O40      1.0000 0.43970  0.38530  0.40760  Biso   1.000  O
  O41      1.0000 0.61500  0.19480  0.35540  Biso   1.000  O
  O42      1.0000 0.61470  0.05440  0.40760  Biso   1.000  O
  O43      1.0000 0.19480  0.57980  0.35540  Biso   1.000  O
  O44      1.0000 0.05440  0.43970  0.40760  Biso   1.000  O
  O45      1.0000 0.42020  0.61500  0.35540  Biso   1.000  O
  O46      1.0000 0.56030  0.61470  0.40760  Biso   1.000  O
  O47      1.0000 0.38500  0.80520  0.35540  Biso   1.000  O
  O48      1.0000 0.38530  0.94560  0.40760  Biso   1.000  O
  O49      1.0000 0.76460  0.52920  0.75000  Biso   1.000  O
  O50      1.0000 0.76460  0.23540  0.75000  Biso   1.000  O
  O51      1.0000 0.47080  0.23540  0.75000  Biso   1.000  O
  O52      1.0000 0.23540  0.47080  0.75000  Biso   1.000  O
  O53      1.0000 0.23540  0.76460  0.75000  Biso   1.000  O
  O54      1.0000 0.52920  0.76460  0.75000  Biso   1.000  O
  O55      1.0000 0.23540  0.47080  0.25000  Biso   1.000  O
  O56      1.0000 0.23540  0.76460  0.25000  Biso   1.000  O
  O57      1.0000 0.52920  0.76460  0.25000  Biso   1.000  O
  O58      1.0000 0.76460  0.52920  0.25000  Biso   1.000  O
  O59      1.0000 0.76460  0.23540  0.25000  Biso   1.000  O
  O60      1.0000 0.47080  0.23540  0.25000  Biso   1.000  O
  O61      1.0000 0.49260  0.35150  0.00000  Biso   1.000  O
  O62      1.0000 0.85890  0.50740  0.00000  Biso   1.000  O
  O63      1.0000 0.64850  0.14110  0.00000  Biso   1.000  O
  O64      1.0000 0.50740  0.64850  0.00000  Biso   1.000  O
  O65      1.0000 0.14110  0.49260  0.00000  Biso   1.000  O
  O66      1.0000 0.35150  0.85890  0.00000  Biso   1.000  O
  O67      1.0000 0.14110  0.64850  0.50000  Biso   1.000  O
  O68      1.0000 0.35150  0.49260  0.50000  Biso   1.000  O
  O69      1.0000 0.50740  0.85890  0.50000  Biso   1.000  O
  O70      1.0000 0.85890  0.35150  0.50000  Biso   1.000  O
  O71      1.0000 0.64850  0.50740  0.50000  Biso   1.000  O
  O72      1.0000 0.49260  0.14110  0.50000  Biso   1.000  O
