data_ODIXAC_charged
_audit_creation_date              2014-07-02
_audit_creation_method            'Materials Studio'
_symmetry_space_group_name_H-M    'P1'
_symmetry_Int_Tables_number       1
_symmetry_cell_setting            triclinic
loop_
_symmetry_equiv_pos_as_xyz
  x,y,z
_cell_length_a                    13.9817
_cell_length_b                    14.1817
_cell_length_c                    14.2700
_cell_angle_alpha                 115.9220
_cell_angle_beta                  113.1960
_cell_angle_gamma                 97.1440
loop_
_atom_site_label
_atom_site_type_symbol
_atom_site_fract_x
_atom_site_fract_y
_atom_site_fract_z
_atom_site_U_iso_or_equiv
_atom_site_adp_type
_atom_site_occupancy
Cd1    Cd    0.49511   0.61573   0.81471   0.01267  Uiso   1.00
Cd2    Cd    0.50489   0.38427   0.18529   0.01267  Uiso   1.00
Cd3    Cd    0.50000   0.50000  -0.00000   0.01267  Uiso   1.00
Si1    Si    0.23612   0.85602   0.32130   0.01267  Uiso   1.00
Si2    Si    0.76388   0.14398   0.67870   0.01267  Uiso   1.00
H1     H     0.31560   0.25900   0.46690   0.01267  Uiso   1.00
H2     H     0.24080   0.06780   0.31970   0.01267  Uiso   1.00
H3     H     0.44990   0.91790   0.13470   0.01267  Uiso   1.00
H4     H     0.86790   0.56870   0.09830   0.01267  Uiso   1.00
H5     H     0.43310   0.80020   0.41740   0.01267  Uiso   1.00
H6     H     0.86050   0.85790   0.11020   0.01267  Uiso   1.00
H7     H     0.38020   0.97620   0.26670   0.01267  Uiso   1.00
H8     H     0.21630   0.70130   0.56220   0.01267  Uiso   1.00
H9     H     0.42940   0.18750   0.72700   0.01267  Uiso   1.00
H10    H     0.35770   0.99730   0.58060   0.01267  Uiso   1.00
H11    H     0.05390   0.93760   0.23090   0.01267  Uiso   1.00
H12    H     0.50280   0.74140   0.55090   0.01267  Uiso   1.00
H13    H     0.29660   0.59310   0.01150   0.01267  Uiso   1.00
H14    H     0.22030   0.65070   0.13660   0.01267  Uiso   1.00
H15    H     0.14740   0.76130   0.42990   0.01267  Uiso   1.00
H16    H     0.06140   0.64290   0.20370   0.01267  Uiso   1.00
H17    H     0.68440   0.74100   0.53310   0.01267  Uiso   1.00
H18    H     0.75920   0.93220   0.68030   0.01267  Uiso   1.00
H19    H     0.55010   0.08210   0.86530   0.01267  Uiso   1.00
H20    H     0.13210   0.43130   0.90170   0.01267  Uiso   1.00
H21    H     0.56690   0.19980   0.58260   0.01267  Uiso   1.00
H22    H     0.13950   0.14210   0.88980   0.01267  Uiso   1.00
H23    H     0.61980   0.02380   0.73330   0.01267  Uiso   1.00
H24    H     0.78370   0.29870   0.43780   0.01267  Uiso   1.00
H25    H     0.57060   0.81250   0.27300   0.01267  Uiso   1.00
H26    H     0.64230   0.00270   0.41940   0.01267  Uiso   1.00
H27    H     0.94610   0.06240   0.76910   0.01267  Uiso   1.00
H28    H     0.49720   0.25860   0.44910   0.01267  Uiso   1.00
H29    H     0.70340   0.40690   0.98850   0.01267  Uiso   1.00
H30    H     0.77970   0.34930   0.86340   0.01267  Uiso   1.00
H31    H     0.85260   0.23870   0.57010   0.01267  Uiso   1.00
H32    H     0.93860   0.35710   0.79630   0.01267  Uiso   1.00
C1     C     0.29310   0.81980   0.21630   0.01267  Uiso   1.00
C2     C     0.07950   0.79910   0.23120   0.01267  Uiso   1.00
C3     C     0.41360   0.68010   0.65830   0.01267  Uiso   1.00
C4     C     0.38180   0.75000   0.06250   0.01267  Uiso   1.00
C5     C     0.28270   0.78840   0.40980   0.01267  Uiso   1.00
C6     C     0.38040   0.24190   0.61160   0.01267  Uiso   1.00
C7     C     0.43340   0.71280   0.98440   0.01267  Uiso   1.00
C8     C     0.32400   0.20570   0.49000   0.01267  Uiso   1.00
C9     C     0.27980   0.09160   0.40230   0.01267  Uiso   1.00
C10    C     0.40490   0.86380   0.13680   0.01267  Uiso   1.00
C11    C     0.29180   0.01110   0.43360   0.01267  Uiso   1.00
C12    C     0.90550   0.64300   0.12300   0.01267  Uiso   1.00
C13    C     0.38890   0.78090   0.44710   0.01267  Uiso   1.00
C14    C     0.90110   0.81500   0.13200   0.01267  Uiso   1.00
C15    C     0.36210   0.89830   0.21440   0.01267  Uiso   1.00
C16    C     0.26090   0.72210   0.53360   0.01267  Uiso   1.00
C17    C     0.71870   0.65600   0.02170   0.01267  Uiso   1.00
C18    C     0.39180   0.16340   0.64420   0.01267  Uiso   1.00
C19    C     0.43000   0.36450   0.70940   0.01267  Uiso   1.00
C20    C     0.84440   0.70600   0.09380   0.01267  Uiso   1.00
C21    C     0.34860   0.04990   0.55670   0.01267  Uiso   1.00
C22    C     0.01680   0.86180   0.20220   0.01267  Uiso   1.00
C23    C     0.36740   0.71690   0.57130   0.01267  Uiso   1.00
C24    C     0.43060   0.74580   0.52670   0.01267  Uiso   1.00
C25    C     0.31310   0.67080   0.06270   0.01267  Uiso   1.00
C26    C     0.26850   0.70550   0.13810   0.01267  Uiso   1.00
C27    C     0.21990   0.75770   0.45450   0.01267  Uiso   1.00
C28    C     0.02090   0.68830   0.18800   0.01267  Uiso   1.00
C29    C     0.70690   0.18020   0.78370   0.01267  Uiso   1.00
C30    C     0.92050   0.20090   0.76880   0.01267  Uiso   1.00
C31    C     0.58640   0.31990   0.34170   0.01267  Uiso   1.00
C32    C     0.61820   0.25000   0.93750   0.01267  Uiso   1.00
C33    C     0.71730   0.21160   0.59020   0.01267  Uiso   1.00
C34    C     0.61960   0.75810   0.38840   0.01267  Uiso   1.00
C35    C     0.56660   0.28720   0.01560   0.01267  Uiso   1.00
C36    C     0.67600   0.79430   0.51000   0.01267  Uiso   1.00
C37    C     0.72020   0.90840   0.59770   0.01267  Uiso   1.00
C38    C     0.59510   0.13620   0.86320   0.01267  Uiso   1.00
C39    C     0.70820   0.98890   0.56640   0.01267  Uiso   1.00
C40    C     0.09450   0.35700   0.87700   0.01267  Uiso   1.00
C41    C     0.61110   0.21910   0.55290   0.01267  Uiso   1.00
C42    C     0.09890   0.18500   0.86800   0.01267  Uiso   1.00
C43    C     0.63790   0.10170   0.78560   0.01267  Uiso   1.00
C44    C     0.73910   0.27790   0.46640   0.01267  Uiso   1.00
C45    C     0.28130   0.34400   0.97830   0.01267  Uiso   1.00
C46    C     0.60820   0.83660   0.35580   0.01267  Uiso   1.00
C47    C     0.57000   0.63550   0.29060   0.01267  Uiso   1.00
C48    C     0.15560   0.29400   0.90620   0.01267  Uiso   1.00
C49    C     0.65140   0.95010   0.44330   0.01267  Uiso   1.00
C50    C     0.98320   0.13820   0.79780   0.01267  Uiso   1.00
C51    C     0.63260   0.28310   0.42870   0.01267  Uiso   1.00
C52    C     0.56940   0.25420   0.47330   0.01267  Uiso   1.00
C53    C     0.68690   0.32920   0.93730   0.01267  Uiso   1.00
C54    C     0.73150   0.29450   0.86190   0.01267  Uiso   1.00
C55    C     0.78010   0.24230   0.54550   0.01267  Uiso   1.00
C56    C     0.97910   0.31170   0.81200   0.01267  Uiso   1.00
O1     O     0.42175   0.60828   0.93078   0.01267  Uiso   1.00
O2     O     0.48330   0.78097   0.97160   0.01267  Uiso   1.00
O3     O     0.43500   0.43483   0.67860   0.01267  Uiso   1.00
O4     O     0.67185   0.59700   0.04640   0.01267  Uiso   1.00
O5     O     0.35184   0.64790   0.69180   0.01267  Uiso   1.00
O6     O     0.67377   0.67910   0.94290   0.01267  Uiso   1.00
O7     O     0.51191   0.68160   0.69580   0.01267  Uiso   1.00
O8     O     0.46140   0.38620   0.81360   0.01267  Uiso   1.00
O9     O     0.57825   0.39172   0.06922   0.01267  Uiso   1.00
O10    O     0.51670   0.21903   0.02840   0.01267  Uiso   1.00
O11    O     0.56500   0.56517   0.32140   0.01267  Uiso   1.00
O12    O     0.32815   0.40300   0.95360   0.01267  Uiso   1.00
O13    O     0.64816   0.35210   0.30820   0.01267  Uiso   1.00
O14    O     0.32623   0.32090   0.05710   0.01267  Uiso   1.00
O15    O     0.48809   0.31840   0.30420   0.01267  Uiso   1.00
O16    O     0.53860   0.61380   0.18640   0.01267  Uiso   1.00
Cd4    Cd    0.00000   0.50000   0.50000   0.01267  Uiso   1.00
H33    H     0.69880   0.56650   0.53530   0.01267  Uiso   1.00
H34    H     0.63460   0.50980   0.57960   0.01267  Uiso   1.00
H35    H     0.68570   0.64370   0.64810   0.01267  Uiso   1.00
H36    H     0.17270   0.47800   0.72840   0.01267  Uiso   1.00
H37    H     0.20670   0.37960   0.74330   0.01267  Uiso   1.00
H38    H     0.23600   0.41540   0.66310   0.01267  Uiso   1.00
H39    H     0.99260   0.49650   0.74210   0.01267  Uiso   1.00
H40    H     0.04670   0.63040   0.80600   0.01267  Uiso   1.00
H41    H     0.91590   0.16590   0.37810   0.01267  Uiso   1.00
H42    H     0.96770   0.06990   0.36910   0.01267  Uiso   1.00
H43    H     0.89570   0.09510   0.43470   0.01267  Uiso   1.00
H44    H     0.18700   0.22450   0.66730   0.01267  Uiso   1.00
H45    H     0.07860   0.12110   0.61180   0.01267  Uiso   1.00
H46    H     0.14250   0.11370   0.53870   0.01267  Uiso   1.00
H47    H     0.98570   0.65700   0.93390   0.01267  Uiso   1.00
H48    H     0.93210   0.52350   0.87040   0.01267  Uiso   1.00
H49    H     0.82070   0.66270   0.85310   0.01267  Uiso   1.00
H50    H     0.76700   0.52890   0.78910   0.01267  Uiso   1.00
H51    H     0.16100   0.70200   0.73100   0.01267  Uiso   1.00
H52    H     0.22680   0.64500   0.69100   0.01267  Uiso   1.00
H53    H     0.30120   0.43350   0.46470   0.01267  Uiso   1.00
H54    H     0.36540   0.49020   0.42040   0.01267  Uiso   1.00
H55    H     0.31430   0.35630   0.35190   0.01267  Uiso   1.00
H56    H     0.82730   0.52200   0.27160   0.01267  Uiso   1.00
H57    H     0.79330   0.62040   0.25670   0.01267  Uiso   1.00
H58    H     0.76400   0.58460   0.33690   0.01267  Uiso   1.00
H59    H     0.00740   0.50350   0.25790   0.01267  Uiso   1.00
H60    H     0.95330   0.36960   0.19400   0.01267  Uiso   1.00
H61    H     0.08410   0.83410   0.62190   0.01267  Uiso   1.00
H62    H     0.03230   0.93010   0.63090   0.01267  Uiso   1.00
H63    H     0.10430   0.90490   0.56530   0.01267  Uiso   1.00
H64    H     0.81300   0.77550   0.33270   0.01267  Uiso   1.00
H65    H     0.92140   0.87890   0.38820   0.01267  Uiso   1.00
H66    H     0.85750   0.88630   0.46130   0.01267  Uiso   1.00
H67    H     0.01430   0.34300   0.06610   0.01267  Uiso   1.00
H68    H     0.06790   0.47650   0.12960   0.01267  Uiso   1.00
H69    H     0.17930   0.33730   0.14690   0.01267  Uiso   1.00
H70    H     0.23300   0.47110   0.21090   0.01267  Uiso   1.00
H71    H     0.83900   0.29800   0.26900   0.01267  Uiso   1.00
H72    H     0.77320   0.35500   0.30900   0.01267  Uiso   1.00
C57    C     0.07110   0.32130   0.57900   0.01267  Uiso   1.00
C58    C     0.88370   0.56180   0.66420   0.01267  Uiso   1.00
C59    C     0.69650   0.57360   0.60580   0.01267  Uiso   1.00
C60    C     0.18110   0.40590   0.68790   0.01267  Uiso   1.00
C61    C     0.97760   0.56740   0.76860   0.01267  Uiso   1.00
C62    C     0.94900   0.12880   0.41960   0.01267  Uiso   1.00
C63    C     0.12030   0.16370   0.59280   0.01267  Uiso   1.00
C64    C     0.93530   0.58560   0.85590   0.01267  Uiso   1.00
C65    C     0.82290   0.58960   0.80100   0.01267  Uiso   1.00
C66    C     0.92890   0.67870   0.42100   0.01267  Uiso   1.00
C67    C     0.11630   0.43820   0.33580   0.01267  Uiso   1.00
C68    C     0.30350   0.42640   0.39420   0.01267  Uiso   1.00
C69    C     0.81890   0.59410   0.31210   0.01267  Uiso   1.00
C70    C     0.02240   0.43260   0.23140   0.01267  Uiso   1.00
C71    C     0.05100   0.87120   0.58040   0.01267  Uiso   1.00
C72    C     0.87970   0.83630   0.40720   0.01267  Uiso   1.00
C73    C     0.06470   0.41440   0.14410   0.01267  Uiso   1.00
C74    C     0.17710   0.41040   0.19900   0.01267  Uiso   1.00
N1     N     0.80030   0.57450   0.68600   0.01267  Uiso   1.00
N2     N     0.05020   0.21120   0.53410   0.01267  Uiso   1.00
N3     N     0.19970   0.42550   0.31400   0.01267  Uiso   1.00
N4     N     0.94980   0.78880   0.46590   0.01267  Uiso   1.00
O17    O     0.15345   0.62630   0.68040   0.01267  Uiso   1.00
O18    O     0.99890   0.35260   0.52800   0.01267  Uiso   1.00
O19    O     0.88460   0.55220   0.57350   0.01267  Uiso   1.00
O20    O     0.84655   0.37370   0.31960   0.01267  Uiso   1.00
O21    O     0.00110   0.64740   0.47200   0.01267  Uiso   1.00
O22    O     0.11540   0.44780   0.42650   0.01267  Uiso   1.00
