data_image0
_cell_length_a       13.875
_cell_length_b       14.072
_cell_length_c       14.208
_cell_angle_alpha    116.3
_cell_angle_beta     109.724
_cell_angle_gamma    101.428

_symmetry_space_group_name_H-M    P 1
_symmetry_int_tables_number       1

loop_
  _symmetry_equiv_pos_as_xyz
  'x, y, z'

loop_
  _atom_site_label
  _atom_site_occupancy
  _atom_site_fract_x
  _atom_site_fract_y
  _atom_site_fract_z
  _atom_site_thermal_displace_type
  _atom_site_B_iso_or_equiv
  _atom_site_type_symbol
  Cd1      1.0000 0.70531  0.87376  0.88612  Biso   1.000  Cd
  Cd2      1.0000 0.29469  0.12624  0.11388  Biso   1.000  Cd
  Cd3      1.0000 0.00000  0.00000  0.00000  Biso   1.000  Cd
  Si1      1.0000 0.98988  0.65396  0.38909  Biso   1.000  Si
  Si2      1.0000 0.01012  0.34604  0.61091  Biso   1.000  Si
  H1       1.0000 0.76900  0.45690  0.18970  Biso   1.000  H
  H2       1.0000 0.30570  0.73990  0.74540  Biso   1.000  H
  H3       1.0000 0.81590  0.52630  0.42020  Biso   1.000  H
  H4       1.0000 0.70510  0.25590  0.06530  Biso   1.000  H
  H5       1.0000 0.00590  0.86670  0.57630  Biso   1.000  H
  H6       1.0000 0.74340  0.57960  0.55260  Biso   1.000  H
  H7       1.0000 0.93580  0.91920  0.71010  Biso   1.000  H
  H8       1.0000 0.12080  0.69810  0.62380  Biso   1.000  H
  H9       1.0000 0.08630  0.48400  0.34080  Biso   1.000  H
  H10      1.0000 0.77550  0.80430  0.18720  Biso   1.000  H
  H11      1.0000 0.82690  0.74210  0.31520  Biso   1.000  H
  H12      1.0000 0.20750  0.72110  0.38910  Biso   1.000  H
  H13      1.0000 0.07840  0.70450  0.24610  Biso   1.000  H
  H14      1.0000 0.03450  0.77920  0.12840  Biso   1.000  H
  H15      1.0000 0.02270  0.28370  0.21200  Biso   1.000  H
  H16      1.0000 0.39420  0.76960  0.51430  Biso   1.000  H
  H17      1.0000 0.23100  0.54310  0.81030  Biso   1.000  H
  H18      1.0000 0.69430  0.26010  0.25460  Biso   1.000  H
  H19      1.0000 0.18410  0.47370  0.57980  Biso   1.000  H
  H20      1.0000 0.29490  0.74410  0.93470  Biso   1.000  H
  H21      1.0000 0.99410  0.13330  0.42370  Biso   1.000  H
  H22      1.0000 0.25660  0.42040  0.44740  Biso   1.000  H
  H23      1.0000 0.06420  0.08080  0.28990  Biso   1.000  H
  H24      1.0000 0.87920  0.30190  0.37620  Biso   1.000  H
  H25      1.0000 0.91370  0.51600  0.65920  Biso   1.000  H
  H26      1.0000 0.22450  0.19570  0.81280  Biso   1.000  H
  H27      1.0000 0.17310  0.25790  0.68480  Biso   1.000  H
  H28      1.0000 0.79250  0.27890  0.61090  Biso   1.000  H
  H29      1.0000 0.92160  0.29550  0.75390  Biso   1.000  H
  H30      1.0000 0.96550  0.22080  0.87160  Biso   1.000  H
  H31      1.0000 0.97730  0.71630  0.78800  Biso   1.000  H
  H32      1.0000 0.60580  0.23040  0.48570  Biso   1.000  H
  C1       1.0000 0.82090  0.42210  0.19630  Biso   1.000  C
  C2       1.0000 0.91980  0.68990  0.48450  Biso   1.000  C
  C3       1.0000 0.96140  0.72150  0.30060  Biso   1.000  C
  C4       1.0000 0.14310  0.70550  0.49270  Biso   1.000  C
  C5       1.0000 0.83390  0.75530  0.64550  Biso   1.000  C
  C6       1.0000 0.48960  0.79720  0.72650  Biso   1.000  C
  C7       1.0000 0.79100  0.78850  0.73430  Biso   1.000  C
  C8       1.0000 0.28650  0.73800  0.67360  Biso   1.000  C
  C9       1.0000 0.36830  0.76110  0.64310  Biso   1.000  C
  C10      1.0000 0.93480  0.49260  0.28120  Biso   1.000  C
  C11      1.0000 0.86610  0.83470  0.05870  Biso   1.000  C
  C12      1.0000 0.90130  0.80040  0.14700  Biso   1.000  C
  C13      1.0000 0.84080  0.60630  0.47900  Biso   1.000  C
  C14      1.0000 0.78270  0.30220  0.12140  Biso   1.000  C
  C15      1.0000 0.95350  0.80790  0.57190  Biso   1.000  C
  C16      1.0000 0.79760  0.63790  0.55800  Biso   1.000  C
  C17      1.0000 0.91130  0.83930  0.65120  Biso   1.000  C
  C18      1.0000 0.17560  0.71190  0.60000  Biso   1.000  C
  C19      1.0000 0.00850  0.43830  0.28500  Biso   1.000  C
  C20      1.0000 0.83990  0.78720  0.20150  Biso   1.000  C
  C21      1.0000 0.87060  0.74920  0.27760  Biso   1.000  C
  C22      1.0000 0.22690  0.72640  0.46260  Biso   1.000  C
  C23      1.0000 0.01860  0.72890  0.23840  Biso   1.000  C
  C24      1.0000 0.99090  0.77090  0.16550  Biso   1.000  C
  C25      1.0000 0.85760  0.24960  0.12840  Biso   1.000  C
  C26      1.0000 0.97050  0.31840  0.20870  Biso   1.000  C
  C27      1.0000 0.33880  0.75480  0.53690  Biso   1.000  C
  C28      1.0000 0.81950  0.11940  0.05540  Biso   1.000  C
  C29      1.0000 0.17910  0.57790  0.80370  Biso   1.000  C
  C30      1.0000 0.08020  0.31010  0.51550  Biso   1.000  C
  C31      1.0000 0.03860  0.27850  0.69940  Biso   1.000  C
  C32      1.0000 0.85690  0.29450  0.50730  Biso   1.000  C
  C33      1.0000 0.16610  0.24470  0.35450  Biso   1.000  C
  C34      1.0000 0.51040  0.20280  0.27350  Biso   1.000  C
  C35      1.0000 0.20900  0.21150  0.26570  Biso   1.000  C
  C36      1.0000 0.71350  0.26200  0.32640  Biso   1.000  C
  C37      1.0000 0.63170  0.23890  0.35690  Biso   1.000  C
  C38      1.0000 0.06520  0.50740  0.71880  Biso   1.000  C
  C39      1.0000 0.13390  0.16530  0.94130  Biso   1.000  C
  C40      1.0000 0.09870  0.19960  0.85300  Biso   1.000  C
  C41      1.0000 0.15920  0.39370  0.52100  Biso   1.000  C
  C42      1.0000 0.21730  0.69780  0.87860  Biso   1.000  C
  C43      1.0000 0.04650  0.19210  0.42810  Biso   1.000  C
  C44      1.0000 0.20240  0.36210  0.44200  Biso   1.000  C
  C45      1.0000 0.08870  0.16070  0.34880  Biso   1.000  C
  C46      1.0000 0.82440  0.28810  0.40000  Biso   1.000  C
  C47      1.0000 0.99150  0.56170  0.71500  Biso   1.000  C
  C48      1.0000 0.16010  0.21280  0.79850  Biso   1.000  C
  C49      1.0000 0.12940  0.25080  0.72240  Biso   1.000  C
  C50      1.0000 0.77310  0.27360  0.53740  Biso   1.000  C
  C51      1.0000 0.98140  0.27110  0.76160  Biso   1.000  C
  C52      1.0000 0.00910  0.22910  0.83450  Biso   1.000  C
  C53      1.0000 0.14240  0.75040  0.87160  Biso   1.000  C
  C54      1.0000 0.02950  0.68160  0.79130  Biso   1.000  C
  C55      1.0000 0.66120  0.24520  0.46310  Biso   1.000  C
  C56      1.0000 0.18050  0.88060  0.94460  Biso   1.000  C
  O1       1.0000 0.71680  0.71290  0.72490  Biso   1.000  O
  O2       1.0000 0.83350  0.89690  0.81800  Biso   1.000  O
  O3       1.0000 0.56310  0.84530  0.71100  Biso   1.000  O
  O4       1.0000 0.51250  0.77960  0.80970  Biso   1.000  O
  O5       1.0000 0.76770  0.82940  0.01920  Biso   1.000  O
  O6       1.0000 0.71630  0.05650  0.98820  Biso   1.000  O
  O7       1.0000 0.93750  0.86310  0.02940  Biso   1.000  O
  O8       1.0000 0.89300  0.08010  0.06740  Biso   1.000  O
  O9       1.0000 0.28320  0.28710  0.27510  Biso   1.000  O
  O10      1.0000 0.16650  0.10310  0.18200  Biso   1.000  O
  O11      1.0000 0.43690  0.15470  0.28900  Biso   1.000  O
  O12      1.0000 0.48750  0.22040  0.19030  Biso   1.000  O
  O13      1.0000 0.23230  0.17060  0.98080  Biso   1.000  O
  O14      1.0000 0.28370  0.94350  0.01180  Biso   1.000  O
  O15      1.0000 0.06250  0.13690  0.97060  Biso   1.000  O
  O16      1.0000 0.10700  0.91990  0.93260  Biso   1.000  O
  Cd4      1.0000 0.50000  0.50000  0.00000  Biso   1.000  Cd
  H33      1.0000 0.51030  0.72410  0.98320  Biso   1.000  H
  H34      1.0000 0.51900  0.89110  0.99900  Biso   1.000  H
  H35      1.0000 0.49970  0.97410  0.10570  Biso   1.000  H
  H36      1.0000 0.62360  0.00260  0.12090  Biso   1.000  H
  H37      1.0000 0.67340  0.58680  0.91840  Biso   1.000  H
  H38      1.0000 0.75890  0.60320  0.83570  Biso   1.000  H
  H39      1.0000 0.87810  0.59580  0.87920  Biso   1.000  H
  H40      1.0000 0.77110  0.48720  0.75720  Biso   1.000  H
  H41      1.0000 0.79830  0.36440  0.85320  Biso   1.000  H
  H42      1.0000 0.90700  0.48100  0.96280  Biso   1.000  H
  H43      1.0000 0.81120  0.42560  0.98490  Biso   1.000  H
  H44      1.0000 0.69480  0.97510  0.30460  Biso   1.000  H
  H45      1.0000 0.57760  0.98120  0.29280  Biso   1.000  H
  H46      1.0000 0.60050  0.87170  0.28560  Biso   1.000  H
  H47      1.0000 0.46300  0.58640  0.77330  Biso   1.000  H
  H48      1.0000 0.34650  0.25970  0.56450  Biso   1.000  H
  H49      1.0000 0.47270  0.28390  0.64530  Biso   1.000  H
  H50      1.0000 0.39320  0.31010  0.70410  Biso   1.000  H
  H51      1.0000 0.51200  0.53200  0.62700  Biso   1.000  H
  H52      1.0000 0.56200  0.43650  0.61430  Biso   1.000  H
  H53      1.0000 0.43710  0.39900  0.51730  Biso   1.000  H
  H54      1.0000 0.48970  0.27590  0.01680  Biso   1.000  H
  H55      1.0000 0.48100  0.10890  0.00100  Biso   1.000  H
  H56      1.0000 0.50030  0.02590  0.89430  Biso   1.000  H
  H57      1.0000 0.37640  0.99740  0.87910  Biso   1.000  H
  H58      1.0000 0.32660  0.41320  0.08160  Biso   1.000  H
  H59      1.0000 0.24110  0.39680  0.16430  Biso   1.000  H
  H60      1.0000 0.12190  0.40420  0.12080  Biso   1.000  H
  H61      1.0000 0.22890  0.51280  0.24280  Biso   1.000  H
  H62      1.0000 0.20170  0.63560  0.14680  Biso   1.000  H
  H63      1.0000 0.09300  0.51900  0.03720  Biso   1.000  H
  H64      1.0000 0.18880  0.57440  0.01510  Biso   1.000  H
  H65      1.0000 0.30520  0.02490  0.69540  Biso   1.000  H
  H66      1.0000 0.42240  0.01880  0.70720  Biso   1.000  H
  H67      1.0000 0.39950  0.12830  0.71440  Biso   1.000  H
  H68      1.0000 0.53700  0.41360  0.22670  Biso   1.000  H
  H69      1.0000 0.65350  0.74030  0.43550  Biso   1.000  H
  H70      1.0000 0.52730  0.71610  0.35470  Biso   1.000  H
  H71      1.0000 0.60680  0.68990  0.29590  Biso   1.000  H
  H72      1.0000 0.48800  0.46800  0.37300  Biso   1.000  H
  H73      1.0000 0.43800  0.56350  0.38570  Biso   1.000  H
  H74      1.0000 0.56290  0.60100  0.48270  Biso   1.000  H
  C57      1.0000 0.54160  0.75870  0.06720  Biso   1.000  C
  C58      1.0000 0.55100  0.94020  0.08630  Biso   1.000  C
  C59      1.0000 0.69340  0.53250  0.93390  Biso   1.000  C
  C60      1.0000 0.79660  0.55180  0.83890  Biso   1.000  C
  C61      1.0000 0.82590  0.43920  0.92820  Biso   1.000  C
  C62      1.0000 0.61380  0.92940  0.26530  Biso   1.000  C
  C63      1.0000 0.44340  0.51140  0.76040  Biso   1.000  C
  C64      1.0000 0.41280  0.31110  0.64430  Biso   1.000  C
  C65      1.0000 0.49400  0.45090  0.60230  Biso   1.000  C
  C66      1.0000 0.45840  0.24130  0.93280  Biso   1.000  C
  C67      1.0000 0.44900  0.05980  0.91370  Biso   1.000  C
  C68      1.0000 0.30660  0.46750  0.06610  Biso   1.000  C
  C69      1.0000 0.20340  0.44820  0.16110  Biso   1.000  C
  C70      1.0000 0.17410  0.56080  0.07180  Biso   1.000  C
  C71      1.0000 0.38620  0.07060  0.73470  Biso   1.000  C
  C72      1.0000 0.55660  0.48860  0.23960  Biso   1.000  C
  C73      1.0000 0.58720  0.68890  0.35570  Biso   1.000  C
  C74      1.0000 0.50600  0.54910  0.39770  Biso   1.000  C
  N1       1.0000 0.56680  0.87020  0.13580  Biso   1.000  N
  N2       1.0000 0.76980  0.50690  0.90440  Biso   1.000  N
  N3       1.0000 0.45150  0.42950  0.67260  Biso   1.000  N
  N4       1.0000 0.43320  0.12980  0.86420  Biso   1.000  N
  N5       1.0000 0.23020  0.49310  0.09560  Biso   1.000  N
  N6       1.0000 0.54850  0.57050  0.32740  Biso   1.000  N
  O17      1.0000 0.55610  0.69570  0.10560  Biso   1.000  O
  O18      1.0000 0.41140  0.49570  0.82740  Biso   1.000  O
  O19      1.0000 0.64980  0.50330  0.97220  Biso   1.000  O
  O20      1.0000 0.44390  0.30430  0.89440  Biso   1.000  O
  O21      1.0000 0.58860  0.50430  0.17260  Biso   1.000  O
  O22      1.0000 0.35020  0.49670  0.02780  Biso   1.000  O
