data_image0
_cell_length_a       13.935
_cell_length_b       14.196
_cell_length_c       14.6708
_cell_angle_alpha    107.988
_cell_angle_beta     113.735
_cell_angle_gamma    100.298

_symmetry_space_group_name_H-M    P 1
_symmetry_int_tables_number       1

loop_
  _symmetry_equiv_pos_as_xyz
  'x, y, z'

loop_
  _atom_site_label
  _atom_site_occupancy
  _atom_site_fract_x
  _atom_site_fract_y
  _atom_site_fract_z
  _atom_site_thermal_displace_type
  _atom_site_B_iso_or_equiv
  _atom_site_type_symbol
  Zn1      1.0000 0.47125  0.79671  0.55655  Biso   1.000  Zn
  Zn2      1.0000 0.69670  0.00416  0.73580  Biso   1.000  Zn
  Zn3      1.0000 0.52875  0.20329  0.44345  Biso   1.000  Zn
  Zn4      1.0000 0.30330  0.99584  0.26420  Biso   1.000  Zn
  Zn5      1.0000 0.50000  0.00000  0.50000  Biso   1.000  Zn
  Si1      1.0000 0.76383  0.63431  0.12000  Biso   1.000  Si
  Si2      1.0000 0.23617  0.36569  0.88000  Biso   1.000  Si
  H1       1.0000 0.11430  0.75880  0.45850  Biso   1.000  H
  H2       1.0000 0.92080  0.69150  0.34600  Biso   1.000  H
  H3       1.0000 0.96020  0.70770  0.09110  Biso   1.000  H
  H4       1.0000 0.15170  0.78140  0.20460  Biso   1.000  H
  H5       1.0000 0.52670  0.61640  0.75570  Biso   1.000  H
  H6       1.0000 0.58910  0.55070  0.88730  Biso   1.000  H
  H7       1.0000 0.83380  0.83280  0.10380  Biso   1.000  H
  H8       1.0000 0.78220  0.89520  0.96900  Biso   1.000  H
  H9       1.0000 0.52150  0.25810  0.91780  Biso   1.000  H
  H10      1.0000 0.56170  0.43930  0.01120  Biso   1.000  H
  H11      1.0000 0.88360  0.49700  0.07930  Biso   1.000  H
  H12      1.0000 0.84090  0.31780  0.97810  Biso   1.000  H
  H13      1.0000 0.57090  0.61470  0.33690  Biso   1.000  H
  H14      1.0000 0.64210  0.54450  0.22210  Biso   1.000  H
  H15      1.0000 0.74540  0.83110  0.22390  Biso   1.000  H
  H16      1.0000 0.67740  0.90020  0.33880  Biso   1.000  H
  H17      1.0000 0.77930  0.84240  0.64920  Biso   1.000  H
  H18      1.0000 0.85460  0.75380  0.58550  Biso   1.000  H
  H19      1.0000 0.87190  0.77290  0.49030  Biso   1.000  H
  H20      1.0000 0.97760  0.80950  0.60850  Biso   1.000  H
  H21      1.0000 0.99730  0.95610  0.55820  Biso   1.000  H
  H22      1.0000 0.89340  0.99650  0.52550  Biso   1.000  H
  H23      1.0000 0.99200  0.04830  0.65020  Biso   1.000  H
  H24      1.0000 0.51900  0.98700  0.68300  Biso   1.000  H
  H25      1.0000 0.88570  0.24120  0.54150  Biso   1.000  H
  H26      1.0000 0.07920  0.30850  0.65400  Biso   1.000  H
  H27      1.0000 0.03980  0.29230  0.90890  Biso   1.000  H
  H28      1.0000 0.84830  0.21860  0.79540  Biso   1.000  H
  H29      1.0000 0.47330  0.38360  0.24430  Biso   1.000  H
  H30      1.0000 0.41090  0.44930  0.11270  Biso   1.000  H
  H31      1.0000 0.16620  0.16720  0.89620  Biso   1.000  H
  H32      1.0000 0.21780  0.10480  0.03100  Biso   1.000  H
  H33      1.0000 0.47850  0.74190  0.08220  Biso   1.000  H
  H34      1.0000 0.43830  0.56070  0.98880  Biso   1.000  H
  H35      1.0000 0.11640  0.50300  0.92070  Biso   1.000  H
  H36      1.0000 0.15910  0.68220  0.02190  Biso   1.000  H
  H37      1.0000 0.42910  0.38530  0.66310  Biso   1.000  H
  H38      1.0000 0.35790  0.45550  0.77790  Biso   1.000  H
  H39      1.0000 0.25460  0.16890  0.77610  Biso   1.000  H
  H40      1.0000 0.32260  0.09980  0.66120  Biso   1.000  H
  H41      1.0000 0.22070  0.15760  0.35080  Biso   1.000  H
  H42      1.0000 0.14540  0.24620  0.41450  Biso   1.000  H
  H43      1.0000 0.12810  0.22710  0.50970  Biso   1.000  H
  H44      1.0000 0.02240  0.19050  0.39150  Biso   1.000  H
  H45      1.0000 0.00270  0.04390  0.44180  Biso   1.000  H
  H46      1.0000 0.10660  0.00350  0.47450  Biso   1.000  H
  H47      1.0000 0.00800  0.95170  0.34980  Biso   1.000  H
  H48      1.0000 0.48100  0.01300  0.31700  Biso   1.000  H
  C1       1.0000 0.27750  0.81570  0.41280  Biso   1.000  C
  C2       1.0000 0.15400  0.77580  0.34280  Biso   1.000  C
  C3       1.0000 0.08320  0.74950  0.38420  Biso   1.000  C
  C4       1.0000 0.96750  0.70980  0.31700  Biso   1.000  C
  C5       1.0000 0.91940  0.69640  0.20880  Biso   1.000  C
  C6       1.0000 0.99120  0.72040  0.16630  Biso   1.000  C
  C7       1.0000 0.10510  0.76180  0.23320  Biso   1.000  C
  C8       1.0000 0.61610  0.80620  0.76450  Biso   1.000  C
  C9       1.0000 0.64890  0.76300  0.85030  Biso   1.000  C
  C10      1.0000 0.59050  0.65980  0.82570  Biso   1.000  C
  C11      1.0000 0.62690  0.62180  0.90500  Biso   1.000  C
  C12      1.0000 0.71790  0.68500  0.01070  Biso   1.000  C
  C13      1.0000 0.77280  0.78770  0.03250  Biso   1.000  C
  C14      1.0000 0.74100  0.82580  0.95310  Biso   1.000  C
  C15      1.0000 0.64820  0.15760  0.86470  Biso   1.000  C
  C16      1.0000 0.67650  0.27050  0.93440  Biso   1.000  C
  C17      1.0000 0.59430  0.30670  0.94770  Biso   1.000  C
  C18      1.0000 0.61910  0.41500  0.00530  Biso   1.000  C
  C19      1.0000 0.72750  0.48830  0.05450  Biso   1.000  C
  C20      1.0000 0.80910  0.44960  0.04460  Biso   1.000  C
  C21      1.0000 0.78370  0.34210  0.98460  Biso   1.000  C
  C22      1.0000 0.57070  0.81200  0.42120  Biso   1.000  C
  C23      1.0000 0.61720  0.76500  0.34900  Biso   1.000  C
  C24      1.0000 0.60660  0.65860  0.31400  Biso   1.000  C
  C25      1.0000 0.64880  0.61680  0.24500  Biso   1.000  C
  C26      1.0000 0.70050  0.67930  0.20910  Biso   1.000  C
  C27      1.0000 0.71010  0.78650  0.24650  Biso   1.000  C
  C28      1.0000 0.66950  0.82760  0.31470  Biso   1.000  C
  C29      1.0000 0.81440  0.90420  0.64590  Biso   1.000  C
  C30      1.0000 0.89870  0.80180  0.56950  Biso   1.000  C
  C31      1.0000 0.94770  0.98270  0.58280  Biso   1.000  C
  C32      1.0000 0.72250  0.18430  0.58720  Biso   1.000  C
  C33      1.0000 0.84600  0.22420  0.65720  Biso   1.000  C
  C34      1.0000 0.91680  0.25050  0.61580  Biso   1.000  C
  C35      1.0000 0.03250  0.29020  0.68300  Biso   1.000  C
  C36      1.0000 0.08060  0.30360  0.79120  Biso   1.000  C
  C37      1.0000 0.00880  0.27960  0.83370  Biso   1.000  C
  C38      1.0000 0.89490  0.23820  0.76680  Biso   1.000  C
  C39      1.0000 0.38390  0.19380  0.23550  Biso   1.000  C
  C40      1.0000 0.35110  0.23700  0.14970  Biso   1.000  C
  C41      1.0000 0.40950  0.34020  0.17430  Biso   1.000  C
  C42      1.0000 0.37310  0.37820  0.09500  Biso   1.000  C
  C43      1.0000 0.28210  0.31500  0.98930  Biso   1.000  C
  C44      1.0000 0.22720  0.21230  0.96750  Biso   1.000  C
  C45      1.0000 0.25900  0.17420  0.04690  Biso   1.000  C
  C46      1.0000 0.35180  0.84240  0.13530  Biso   1.000  C
  C47      1.0000 0.32350  0.72950  0.06560  Biso   1.000  C
  C48      1.0000 0.40570  0.69330  0.05230  Biso   1.000  C
  C49      1.0000 0.38090  0.58500  0.99470  Biso   1.000  C
  C50      1.0000 0.27250  0.51170  0.94550  Biso   1.000  C
  C51      1.0000 0.19090  0.55040  0.95540  Biso   1.000  C
  C52      1.0000 0.21630  0.65790  0.01540  Biso   1.000  C
  C53      1.0000 0.42930  0.18800  0.57880  Biso   1.000  C
  C54      1.0000 0.38280  0.23500  0.65100  Biso   1.000  C
  C55      1.0000 0.39340  0.34140  0.68600  Biso   1.000  C
  C56      1.0000 0.35120  0.38320  0.75500  Biso   1.000  C
  C57      1.0000 0.29950  0.32070  0.79090  Biso   1.000  C
  C58      1.0000 0.28990  0.21350  0.75350  Biso   1.000  C
  C59      1.0000 0.33050  0.17240  0.68530  Biso   1.000  C
  C60      1.0000 0.18560  0.09580  0.35410  Biso   1.000  C
  C61      1.0000 0.10130  0.19820  0.43050  Biso   1.000  C
  C62      1.0000 0.05230  0.01730  0.41720  Biso   1.000  C
  N1       1.0000 0.88710  0.90230  0.60490  Biso   1.000  N
  N2       1.0000 0.11290  0.09770  0.39510  Biso   1.000  N
  O1       1.0000 0.31430  0.78050  0.48660  Biso   1.000  O
  O2       1.0000 0.33620  0.87730  0.39500  Biso   1.000  O
  O3       1.0000 0.68770  0.88950  0.78610  Biso   1.000  O
  O4       1.0000 0.52490  0.75570  0.67890  Biso   1.000  O
  O5       1.0000 0.72960  0.13580  0.85120  Biso   1.000  O
  O6       1.0000 0.55230  0.09280  0.82220  Biso   1.000  O
  O7       1.0000 0.53490  0.75660  0.46050  Biso   1.000  O
  O8       1.0000 0.57300  0.90490  0.43740  Biso   1.000  O
  O9       1.0000 0.53580  0.95510  0.62560  Biso   1.000  O
  O10      1.0000 0.79520  0.98010  0.67640  Biso   1.000  O
  O11      1.0000 0.68570  0.21950  0.51340  Biso   1.000  O
  O12      1.0000 0.66380  0.12270  0.60500  Biso   1.000  O
  O13      1.0000 0.31230  0.11050  0.21390  Biso   1.000  O
  O14      1.0000 0.47510  0.24430  0.32110  Biso   1.000  O
  O15      1.0000 0.27040  0.86420  0.14880  Biso   1.000  O
  O16      1.0000 0.44770  0.90720  0.17780  Biso   1.000  O
  O17      1.0000 0.46510  0.24340  0.53950  Biso   1.000  O
  O18      1.0000 0.42700  0.09510  0.56260  Biso   1.000  O
  O19      1.0000 0.46420  0.04490  0.37440  Biso   1.000  O
  O20      1.0000 0.20480  0.01990  0.32360  Biso   1.000  O
