data_image0
_cell_length_a       14.7138
_cell_length_b       14.7138
_cell_length_c       14.7138
_cell_angle_alpha    109.471
_cell_angle_beta     109.471
_cell_angle_gamma    109.471

_symmetry_space_group_name_H-M    P 1
_symmetry_int_tables_number       1

loop_
  _symmetry_equiv_pos_as_xyz
  'x, y, z'

loop_
  _atom_site_label
  _atom_site_occupancy
  _atom_site_fract_x
  _atom_site_fract_y
  _atom_site_fract_z
  _atom_site_thermal_displace_type
  _atom_site_B_iso_or_equiv
  _atom_site_type_symbol
  Zn1      1.0000 0.25000  0.75000  0.50000  Biso   1.000  Zn
  Zn2      1.0000 0.75000  0.25000  0.50000  Biso   1.000  Zn
  Zn3      1.0000 0.50000  0.75000  0.25000  Biso   1.000  Zn
  Zn4      1.0000 0.50000  0.25000  0.75000  Biso   1.000  Zn
  Zn5      1.0000 0.75000  0.50000  0.25000  Biso   1.000  Zn
  Zn6      1.0000 0.25000  0.50000  0.75000  Biso   1.000  Zn
  H1       1.0000 0.42240  0.65640  0.53660  Biso   1.000  H
  H2       1.0000 0.31040  0.79410  0.24430  Biso   1.000  H
  H3       1.0000 0.11980  0.88580  0.46340  Biso   1.000  H
  H4       1.0000 0.54980  0.06610  0.75570  Biso   1.000  H
  H5       1.0000 0.88020  0.34360  0.76600  Biso   1.000  H
  H6       1.0000 0.45020  0.20590  0.51630  Biso   1.000  H
  H7       1.0000 0.57760  0.11420  0.23400  Biso   1.000  H
  H8       1.0000 0.68960  0.93390  0.48370  Biso   1.000  H
  H9       1.0000 0.76600  0.88020  0.34360  Biso   1.000  H
  H10      1.0000 0.51630  0.45020  0.20590  Biso   1.000  H
  H11      1.0000 0.23400  0.57760  0.11420  Biso   1.000  H
  H12      1.0000 0.48370  0.68960  0.93390  Biso   1.000  H
  H13      1.0000 0.53660  0.42240  0.65640  Biso   1.000  H
  H14      1.0000 0.24430  0.31040  0.79410  Biso   1.000  H
  H15      1.0000 0.46340  0.11980  0.88580  Biso   1.000  H
  H16      1.0000 0.75570  0.54980  0.06610  Biso   1.000  H
  H17      1.0000 0.88580  0.46340  0.11980  Biso   1.000  H
  H18      1.0000 0.06610  0.75570  0.54980  Biso   1.000  H
  H19      1.0000 0.65640  0.53660  0.42240  Biso   1.000  H
  H20      1.0000 0.79410  0.24430  0.31040  Biso   1.000  H
  H21      1.0000 0.11420  0.23400  0.57760  Biso   1.000  H
  H22      1.0000 0.93390  0.48370  0.68960  Biso   1.000  H
  H23      1.0000 0.34360  0.76600  0.88020  Biso   1.000  H
  H24      1.0000 0.20590  0.51630  0.45020  Biso   1.000  H
  H25      1.0000 0.88580  0.11980  0.46340  Biso   1.000  H
  H26      1.0000 0.06610  0.54980  0.75570  Biso   1.000  H
  H27      1.0000 0.65640  0.42240  0.53660  Biso   1.000  H
  H28      1.0000 0.79410  0.31040  0.24430  Biso   1.000  H
  H29      1.0000 0.11420  0.57760  0.23400  Biso   1.000  H
  H30      1.0000 0.93390  0.68960  0.48370  Biso   1.000  H
  H31      1.0000 0.34360  0.88020  0.76600  Biso   1.000  H
  H32      1.0000 0.20590  0.45020  0.51630  Biso   1.000  H
  H33      1.0000 0.42240  0.53660  0.65640  Biso   1.000  H
  H34      1.0000 0.31040  0.24430  0.79410  Biso   1.000  H
  H35      1.0000 0.11980  0.46340  0.88580  Biso   1.000  H
  H36      1.0000 0.54980  0.75570  0.06610  Biso   1.000  H
  H37      1.0000 0.88020  0.76600  0.34360  Biso   1.000  H
  H38      1.0000 0.45020  0.51630  0.20590  Biso   1.000  H
  H39      1.0000 0.57760  0.23400  0.11420  Biso   1.000  H
  H40      1.0000 0.68960  0.48370  0.93390  Biso   1.000  H
  H41      1.0000 0.76600  0.34360  0.88020  Biso   1.000  H
  H42      1.0000 0.51630  0.20590  0.45020  Biso   1.000  H
  H43      1.0000 0.23400  0.11420  0.57760  Biso   1.000  H
  H44      1.0000 0.48370  0.93390  0.68960  Biso   1.000  H
  H45      1.0000 0.53660  0.65640  0.42240  Biso   1.000  H
  H46      1.0000 0.24430  0.79410  0.31040  Biso   1.000  H
  H47      1.0000 0.46340  0.88580  0.11980  Biso   1.000  H
  H48      1.0000 0.75570  0.06610  0.54980  Biso   1.000  H
  H49      1.0000 0.37010  0.88180  0.37010  Biso   1.000  H
  H50      1.0000 0.51170  0.00000  0.62990  Biso   1.000  H
  H51      1.0000 0.48830  0.11820  0.48830  Biso   1.000  H
  H52      1.0000 0.62990  0.00000  0.51170  Biso   1.000  H
  H53      1.0000 0.48830  0.48830  0.11820  Biso   1.000  H
  H54      1.0000 0.51170  0.62990  0.00000  Biso   1.000  H
  H55      1.0000 0.37010  0.37010  0.88180  Biso   1.000  H
  H56      1.0000 0.62990  0.51170  0.00000  Biso   1.000  H
  H57      1.0000 0.00000  0.62990  0.51170  Biso   1.000  H
  H58      1.0000 0.88180  0.37010  0.37010  Biso   1.000  H
  H59      1.0000 0.00000  0.51170  0.62990  Biso   1.000  H
  H60      1.0000 0.11820  0.48830  0.48830  Biso   1.000  H
  C1       1.0000 0.41456  0.68356  0.47280  Biso   1.000  C
  C2       1.0000 0.21076  0.94176  0.52720  Biso   1.000  C
  C3       1.0000 0.78924  0.31644  0.73100  Biso   1.000  C
  C4       1.0000 0.58544  0.05824  0.26900  Biso   1.000  C
  C5       1.0000 0.73100  0.78924  0.31644  Biso   1.000  C
  C6       1.0000 0.26900  0.58544  0.05824  Biso   1.000  C
  C7       1.0000 0.47280  0.41456  0.68356  Biso   1.000  C
  C8       1.0000 0.52720  0.21076  0.94176  Biso   1.000  C
  C9       1.0000 0.94176  0.52720  0.21076  Biso   1.000  C
  C10      1.0000 0.68356  0.47280  0.41456  Biso   1.000  C
  C11      1.0000 0.05824  0.26900  0.58544  Biso   1.000  C
  C12      1.0000 0.31644  0.73100  0.78924  Biso   1.000  C
  C13      1.0000 0.94176  0.21076  0.52720  Biso   1.000  C
  C14      1.0000 0.68356  0.41456  0.47280  Biso   1.000  C
  C15      1.0000 0.05824  0.58544  0.26900  Biso   1.000  C
  C16      1.0000 0.31644  0.78924  0.73100  Biso   1.000  C
  C17      1.0000 0.41456  0.47280  0.68356  Biso   1.000  C
  C18      1.0000 0.21076  0.52720  0.94176  Biso   1.000  C
  C19      1.0000 0.78924  0.73100  0.31644  Biso   1.000  C
  C20      1.0000 0.58544  0.26900  0.05824  Biso   1.000  C
  C21      1.0000 0.73100  0.31644  0.78924  Biso   1.000  C
  C22      1.0000 0.26900  0.05824  0.58544  Biso   1.000  C
  C23      1.0000 0.47280  0.68356  0.41456  Biso   1.000  C
  C24      1.0000 0.52720  0.94176  0.21076  Biso   1.000  C
  C25      1.0000 0.37300  0.75680  0.37300  Biso   1.000  C
  C26      1.0000 0.31950  0.80580  0.31950  Biso   1.000  C
  C27      1.0000 0.38380  1.00000  0.62700  Biso   1.000  C
  C28      1.0000 0.48630  0.00000  0.68050  Biso   1.000  C
  C29      1.0000 0.61620  0.24320  0.61620  Biso   1.000  C
  C30      1.0000 0.51370  0.19420  0.51370  Biso   1.000  C
  C31      1.0000 0.62700  0.00000  0.38380  Biso   1.000  C
  C32      1.0000 0.68050  0.00000  0.48630  Biso   1.000  C
  C33      1.0000 0.61620  0.61620  0.24320  Biso   1.000  C
  C34      1.0000 0.51370  0.51370  0.19420  Biso   1.000  C
  C35      1.0000 0.38380  0.62700  0.00000  Biso   1.000  C
  C36      1.0000 0.48630  0.68050  0.00000  Biso   1.000  C
  C37      1.0000 0.37300  0.37300  0.75680  Biso   1.000  C
  C38      1.0000 0.31950  0.31950  0.80580  Biso   1.000  C
  C39      1.0000 0.62700  0.38380  0.00000  Biso   1.000  C
  C40      1.0000 0.68050  0.48630  0.00000  Biso   1.000  C
  C41      1.0000 0.00000  0.62700  0.38380  Biso   1.000  C
  C42      1.0000 0.00000  0.68050  0.48630  Biso   1.000  C
  C43      1.0000 0.75680  0.37300  0.37300  Biso   1.000  C
  C44      1.0000 0.80580  0.31950  0.31950  Biso   1.000  C
  C45      1.0000 0.00000  0.38380  0.62700  Biso   1.000  C
  C46      1.0000 0.00000  0.48630  0.68050  Biso   1.000  C
  C47      1.0000 0.24320  0.61620  0.61620  Biso   1.000  C
  C48      1.0000 0.19420  0.51370  0.51370  Biso   1.000  C
  N1       1.0000 0.35145  0.72798  0.44533  Biso   1.000  N
  N2       1.0000 0.28265  0.90612  0.55467  Biso   1.000  N
  N3       1.0000 0.71735  0.27202  0.62347  Biso   1.000  N
  N4       1.0000 0.64855  0.09388  0.37653  Biso   1.000  N
  N5       1.0000 0.62347  0.71735  0.27202  Biso   1.000  N
  N6       1.0000 0.37653  0.64855  0.09388  Biso   1.000  N
  N7       1.0000 0.44533  0.35145  0.72798  Biso   1.000  N
  N8       1.0000 0.55467  0.28265  0.90612  Biso   1.000  N
  N9       1.0000 0.90612  0.55467  0.28265  Biso   1.000  N
  N10      1.0000 0.72798  0.44533  0.35145  Biso   1.000  N
  N11      1.0000 0.09388  0.37653  0.64855  Biso   1.000  N
  N12      1.0000 0.27202  0.62347  0.71735  Biso   1.000  N
  N13      1.0000 0.90612  0.28265  0.55467  Biso   1.000  N
  N14      1.0000 0.72798  0.35145  0.44533  Biso   1.000  N
  N15      1.0000 0.09388  0.64855  0.37653  Biso   1.000  N
  N16      1.0000 0.27202  0.71735  0.62347  Biso   1.000  N
  N17      1.0000 0.35145  0.44533  0.72798  Biso   1.000  N
  N18      1.0000 0.28265  0.55467  0.90612  Biso   1.000  N
  N19      1.0000 0.71735  0.62347  0.27202  Biso   1.000  N
  N20      1.0000 0.64855  0.37653  0.09388  Biso   1.000  N
  N21      1.0000 0.62347  0.27202  0.71735  Biso   1.000  N
  N22      1.0000 0.37653  0.09388  0.64855  Biso   1.000  N
  N23      1.0000 0.44533  0.72798  0.35145  Biso   1.000  N
  N24      1.0000 0.55467  0.90612  0.28265  Biso   1.000  N
