data_image0
_cell_length_a       13.414
_cell_length_b       13.414
_cell_length_c       14.706
_cell_angle_alpha    90
_cell_angle_beta     90
_cell_angle_gamma    120

_symmetry_space_group_name_H-M    P 1
_symmetry_int_tables_number       1

loop_
  _symmetry_equiv_pos_as_xyz
  'x, y, z'

loop_
  _atom_site_label
  _atom_site_occupancy
  _atom_site_fract_x
  _atom_site_fract_y
  _atom_site_fract_z
  _atom_site_thermal_displace_type
  _atom_site_B_iso_or_equiv
  _atom_site_type_symbol
  Nd1      1.0000 0.66667  0.33334  0.66903  Biso   1.000  Nd
  Nd2      1.0000 0.33333  0.66666  0.83097  Biso   1.000  Nd
  Nd3      1.0000 0.33333  0.66666  0.33097  Biso   1.000  Nd
  Nd4      1.0000 0.66667  0.33334  0.16903  Biso   1.000  Nd
  Cu1      1.0000 0.50000  0.50000  0.00000  Biso   1.000  Cu
  Cu2      1.0000 0.00000  0.50000  0.00000  Biso   1.000  Cu
  Cu3      1.0000 0.50000  0.00000  0.00000  Biso   1.000  Cu
  Cu4      1.0000 0.00000  0.50000  0.50000  Biso   1.000  Cu
  Cu5      1.0000 0.50000  0.50000  0.50000  Biso   1.000  Cu
  Cu6      1.0000 0.50000  0.00000  0.50000  Biso   1.000  Cu
  H1       1.0000 0.32570  0.35110  0.92250  Biso   1.000  H
  H2       1.0000 0.45840  0.26830  0.87230  Biso   1.000  H
  H3       1.0000 0.39830  0.31640  0.80890  Biso   1.000  H
  H4       1.0000 0.29270  0.25310  0.04740  Biso   1.000  H
  H5       1.0000 0.32080  0.18190  0.97770  Biso   1.000  H
  H6       1.0000 0.02540  0.67430  0.92250  Biso   1.000  H
  H7       1.0000 0.80990  0.54160  0.87230  Biso   1.000  H
  H8       1.0000 0.91810  0.60170  0.80890  Biso   1.000  H
  H9       1.0000 0.96040  0.70730  0.04740  Biso   1.000  H
  H10      1.0000 0.86110  0.67920  0.97770  Biso   1.000  H
  H11      1.0000 0.64890  0.97460  0.92250  Biso   1.000  H
  H12      1.0000 0.73170  0.19010  0.87230  Biso   1.000  H
  H13      1.0000 0.68360  0.08190  0.80890  Biso   1.000  H
  H14      1.0000 0.74690  0.03960  0.04740  Biso   1.000  H
  H15      1.0000 0.81810  0.13890  0.97770  Biso   1.000  H
  H16      1.0000 0.97460  0.64890  0.57750  Biso   1.000  H
  H17      1.0000 0.19010  0.73170  0.62770  Biso   1.000  H
  H18      1.0000 0.08190  0.68360  0.69110  Biso   1.000  H
  H19      1.0000 0.03960  0.74690  0.45260  Biso   1.000  H
  H20      1.0000 0.13890  0.81810  0.52230  Biso   1.000  H
  H21      1.0000 0.35110  0.32570  0.57750  Biso   1.000  H
  H22      1.0000 0.26830  0.45840  0.62770  Biso   1.000  H
  H23      1.0000 0.31640  0.39830  0.69110  Biso   1.000  H
  H24      1.0000 0.25310  0.29270  0.45260  Biso   1.000  H
  H25      1.0000 0.18190  0.32080  0.52230  Biso   1.000  H
  H26      1.0000 0.67430  0.02540  0.57750  Biso   1.000  H
  H27      1.0000 0.54160  0.80990  0.62770  Biso   1.000  H
  H28      1.0000 0.60170  0.91810  0.69110  Biso   1.000  H
  H29      1.0000 0.70730  0.96040  0.45260  Biso   1.000  H
  H30      1.0000 0.67920  0.86110  0.52230  Biso   1.000  H
  H31      1.0000 0.67430  0.64890  0.07750  Biso   1.000  H
  H32      1.0000 0.54160  0.73170  0.12770  Biso   1.000  H
  H33      1.0000 0.60170  0.68360  0.19110  Biso   1.000  H
  H34      1.0000 0.70730  0.74690  0.95260  Biso   1.000  H
  H35      1.0000 0.67920  0.81810  0.02230  Biso   1.000  H
  H36      1.0000 0.97460  0.32570  0.07750  Biso   1.000  H
  H37      1.0000 0.19010  0.45840  0.12770  Biso   1.000  H
  H38      1.0000 0.08190  0.39830  0.19110  Biso   1.000  H
  H39      1.0000 0.03960  0.29270  0.95260  Biso   1.000  H
  H40      1.0000 0.13890  0.32080  0.02230  Biso   1.000  H
  H41      1.0000 0.35110  0.02540  0.07750  Biso   1.000  H
  H42      1.0000 0.26830  0.80990  0.12770  Biso   1.000  H
  H43      1.0000 0.31640  0.91810  0.19110  Biso   1.000  H
  H44      1.0000 0.25310  0.96040  0.95260  Biso   1.000  H
  H45      1.0000 0.18190  0.86110  0.02230  Biso   1.000  H
  H46      1.0000 0.02540  0.35110  0.42250  Biso   1.000  H
  H47      1.0000 0.80990  0.26830  0.37230  Biso   1.000  H
  H48      1.0000 0.91810  0.31640  0.30890  Biso   1.000  H
  H49      1.0000 0.96040  0.25310  0.54740  Biso   1.000  H
  H50      1.0000 0.86110  0.18190  0.47770  Biso   1.000  H
  H51      1.0000 0.64890  0.67430  0.42250  Biso   1.000  H
  H52      1.0000 0.73170  0.54160  0.37230  Biso   1.000  H
  H53      1.0000 0.68360  0.60170  0.30890  Biso   1.000  H
  H54      1.0000 0.74690  0.70730  0.54740  Biso   1.000  H
  H55      1.0000 0.81810  0.67920  0.47770  Biso   1.000  H
  H56      1.0000 0.32570  0.97460  0.42250  Biso   1.000  H
  H57      1.0000 0.45840  0.19010  0.37230  Biso   1.000  H
  H58      1.0000 0.39830  0.08190  0.30890  Biso   1.000  H
  H59      1.0000 0.29270  0.03960  0.54740  Biso   1.000  H
  H60      1.0000 0.32080  0.13890  0.47770  Biso   1.000  H
  C1       1.0000 0.56140  0.43700  0.84190  Biso   1.000  C
  C2       1.0000 0.44750  0.33360  0.86180  Biso   1.000  C
  C3       1.0000 0.35270  0.25510  0.00910  Biso   1.000  C
  C4       1.0000 0.45320  0.27170  0.06870  Biso   1.000  C
  C5       1.0000 0.87560  0.43860  0.84190  Biso   1.000  C
  C6       1.0000 0.88610  0.55250  0.86180  Biso   1.000  C
  C7       1.0000 0.90240  0.64730  0.00910  Biso   1.000  C
  C8       1.0000 0.81850  0.54680  0.06870  Biso   1.000  C
  C9       1.0000 0.56300  0.12440  0.84190  Biso   1.000  C
  C10      1.0000 0.66640  0.11390  0.86180  Biso   1.000  C
  C11      1.0000 0.74490  0.09760  0.00910  Biso   1.000  C
  C12      1.0000 0.72830  0.18150  0.06870  Biso   1.000  C
  C13      1.0000 0.12440  0.56300  0.65810  Biso   1.000  C
  C14      1.0000 0.11390  0.66640  0.63820  Biso   1.000  C
  C15      1.0000 0.09760  0.74490  0.49090  Biso   1.000  C
  C16      1.0000 0.18150  0.72830  0.43130  Biso   1.000  C
  C17      1.0000 0.43700  0.56140  0.65810  Biso   1.000  C
  C18      1.0000 0.33360  0.44750  0.63820  Biso   1.000  C
  C19      1.0000 0.25510  0.35270  0.49090  Biso   1.000  C
  C20      1.0000 0.27170  0.45320  0.43130  Biso   1.000  C
  C21      1.0000 0.43860  0.87560  0.65810  Biso   1.000  C
  C22      1.0000 0.55250  0.88610  0.63820  Biso   1.000  C
  C23      1.0000 0.64730  0.90240  0.49090  Biso   1.000  C
  C24      1.0000 0.54680  0.81850  0.43130  Biso   1.000  C
  C25      1.0000 0.43860  0.56300  0.15810  Biso   1.000  C
  C26      1.0000 0.55250  0.66640  0.13820  Biso   1.000  C
  C27      1.0000 0.64730  0.74490  0.99090  Biso   1.000  C
  C28      1.0000 0.54680  0.72830  0.93130  Biso   1.000  C
  C29      1.0000 0.12440  0.56140  0.15810  Biso   1.000  C
  C30      1.0000 0.11390  0.44750  0.13820  Biso   1.000  C
  C31      1.0000 0.09760  0.35270  0.99090  Biso   1.000  C
  C32      1.0000 0.18150  0.45320  0.93130  Biso   1.000  C
  C33      1.0000 0.43700  0.87560  0.15810  Biso   1.000  C
  C34      1.0000 0.33360  0.88610  0.13820  Biso   1.000  C
  C35      1.0000 0.25510  0.90240  0.99090  Biso   1.000  C
  C36      1.0000 0.27170  0.81850  0.93130  Biso   1.000  C
  C37      1.0000 0.87560  0.43700  0.34190  Biso   1.000  C
  C38      1.0000 0.88610  0.33360  0.36180  Biso   1.000  C
  C39      1.0000 0.90240  0.25510  0.50910  Biso   1.000  C
  C40      1.0000 0.81850  0.27170  0.56870  Biso   1.000  C
  C41      1.0000 0.56300  0.43860  0.34190  Biso   1.000  C
  C42      1.0000 0.66640  0.55250  0.36180  Biso   1.000  C
  C43      1.0000 0.74490  0.64730  0.50910  Biso   1.000  C
  C44      1.0000 0.72830  0.54680  0.56870  Biso   1.000  C
  C45      1.0000 0.56140  0.12440  0.34190  Biso   1.000  C
  C46      1.0000 0.44750  0.11390  0.36180  Biso   1.000  C
  C47      1.0000 0.35270  0.09760  0.50910  Biso   1.000  C
  C48      1.0000 0.45320  0.18150  0.56870  Biso   1.000  C
  N1       1.0000 0.38880  0.34840  0.94180  Biso   1.000  N
  N2       1.0000 0.95960  0.61120  0.94180  Biso   1.000  N
  N3       1.0000 0.65160  0.04040  0.94180  Biso   1.000  N
  N4       1.0000 0.04040  0.65160  0.55820  Biso   1.000  N
  N5       1.0000 0.34840  0.38880  0.55820  Biso   1.000  N
  N6       1.0000 0.61120  0.95960  0.55820  Biso   1.000  N
  N7       1.0000 0.61120  0.65160  0.05820  Biso   1.000  N
  N8       1.0000 0.04040  0.38880  0.05820  Biso   1.000  N
  N9       1.0000 0.34840  0.95960  0.05820  Biso   1.000  N
  N10      1.0000 0.95960  0.34840  0.44180  Biso   1.000  N
  N11      1.0000 0.65160  0.61120  0.44180  Biso   1.000  N
  N12      1.0000 0.38880  0.04040  0.44180  Biso   1.000  N
  O1       1.0000 0.59830  0.52370  0.89460  Biso   1.000  O
  O2       1.0000 0.61500  0.43610  0.77500  Biso   1.000  O
  O3       1.0000 0.54750  0.36220  0.05710  Biso   1.000  O
  O4       1.0000 0.43970  0.19790  0.12370  Biso   1.000  O
  O5       1.0000 0.92540  0.40170  0.89460  Biso   1.000  O
  O6       1.0000 0.82110  0.38500  0.77500  Biso   1.000  O
  O7       1.0000 0.81470  0.45250  0.05710  Biso   1.000  O
  O8       1.0000 0.75820  0.56030  0.12370  Biso   1.000  O
  O9       1.0000 0.47630  0.07460  0.89460  Biso   1.000  O
  O10      1.0000 0.56390  0.17890  0.77500  Biso   1.000  O
  O11      1.0000 0.63780  0.18530  0.05710  Biso   1.000  O
  O12      1.0000 0.80210  0.24180  0.12370  Biso   1.000  O
  O13      1.0000 0.07460  0.47630  0.60540  Biso   1.000  O
  O14      1.0000 0.17890  0.56390  0.72500  Biso   1.000  O
  O15      1.0000 0.18530  0.63780  0.44290  Biso   1.000  O
  O16      1.0000 0.24180  0.80210  0.37630  Biso   1.000  O
  O17      1.0000 0.52370  0.59830  0.60540  Biso   1.000  O
  O18      1.0000 0.43610  0.61500  0.72500  Biso   1.000  O
  O19      1.0000 0.36220  0.54750  0.44290  Biso   1.000  O
  O20      1.0000 0.19790  0.43970  0.37630  Biso   1.000  O
  O21      1.0000 0.40170  0.92540  0.60540  Biso   1.000  O
  O22      1.0000 0.38500  0.82110  0.72500  Biso   1.000  O
  O23      1.0000 0.45250  0.81470  0.44290  Biso   1.000  O
  O24      1.0000 0.56030  0.75820  0.37630  Biso   1.000  O
  O25      1.0000 0.40170  0.47630  0.10540  Biso   1.000  O
  O26      1.0000 0.38500  0.56390  0.22500  Biso   1.000  O
  O27      1.0000 0.45250  0.63780  0.94290  Biso   1.000  O
  O28      1.0000 0.56030  0.80210  0.87630  Biso   1.000  O
  O29      1.0000 0.07460  0.59830  0.10540  Biso   1.000  O
  O30      1.0000 0.17890  0.61500  0.22500  Biso   1.000  O
  O31      1.0000 0.18530  0.54750  0.94290  Biso   1.000  O
  O32      1.0000 0.24180  0.43970  0.87630  Biso   1.000  O
  O33      1.0000 0.52370  0.92540  0.10540  Biso   1.000  O
  O34      1.0000 0.43610  0.82110  0.22500  Biso   1.000  O
  O35      1.0000 0.36220  0.81470  0.94290  Biso   1.000  O
  O36      1.0000 0.19790  0.75820  0.87630  Biso   1.000  O
  O37      1.0000 0.92540  0.52370  0.39460  Biso   1.000  O
  O38      1.0000 0.82110  0.43610  0.27500  Biso   1.000  O
  O39      1.0000 0.81470  0.36220  0.55710  Biso   1.000  O
  O40      1.0000 0.75820  0.19790  0.62370  Biso   1.000  O
  O41      1.0000 0.47630  0.40170  0.39460  Biso   1.000  O
  O42      1.0000 0.56390  0.38500  0.27500  Biso   1.000  O
  O43      1.0000 0.63780  0.45250  0.55710  Biso   1.000  O
  O44      1.0000 0.80210  0.56030  0.62370  Biso   1.000  O
  O45      1.0000 0.59830  0.07460  0.39460  Biso   1.000  O
  O46      1.0000 0.61500  0.17890  0.27500  Biso   1.000  O
  O47      1.0000 0.54750  0.18530  0.55710  Biso   1.000  O
  O48      1.0000 0.43970  0.24180  0.62370  Biso   1.000  O
