data_image0
_cell_length_a       5.1953
_cell_length_b       10.53
_cell_length_c       14.26
_cell_angle_alpha    74.29
_cell_angle_beta     89.02
_cell_angle_gamma    82.3

_symmetry_space_group_name_H-M    P 1
_symmetry_int_tables_number       1

loop_
  _symmetry_equiv_pos_as_xyz
  'x, y, z'

loop_
  _atom_site_label
  _atom_site_occupancy
  _atom_site_fract_x
  _atom_site_fract_y
  _atom_site_fract_z
  _atom_site_thermal_displace_type
  _atom_site_B_iso_or_equiv
  _atom_site_type_symbol
  Co1      1.0000 0.00000  0.50000  0.50000  Biso   1.000  Co
  Co2      1.0000 0.50000  0.00000  0.50000  Biso   1.000  Co
  P1       1.0000 0.91156  0.19730  0.47403  Biso   1.000  P
  P2       1.0000 0.08844  0.80270  0.52597  Biso   1.000  P
  H1       1.0000 0.37100  0.94640  0.32920  Biso   1.000  H
  H2       1.0000 0.67400  0.69800  0.46400  Biso   1.000  H
  H3       1.0000 0.51000  0.62000  0.48000  Biso   1.000  H
  H4       1.0000 0.07810  0.28080  0.27500  Biso   1.000  H
  H5       1.0000 0.98690  0.22770  0.13250  Biso   1.000  H
  H6       1.0000 0.68760  0.08270  0.13370  Biso   1.000  H
  H7       1.0000 0.07960  0.24530  0.70050  Biso   1.000  H
  H8       1.0000 0.78160  0.21270  0.83600  Biso   1.000  H
  H9       1.0000 0.56300  0.56400  0.65360  Biso   1.000  H
  H10      1.0000 0.25010  0.49440  0.78790  Biso   1.000  H
  H11      1.0000 0.29040  0.34380  0.84620  Biso   1.000  H
  H12      1.0000 0.71120  0.57670  0.86210  Biso   1.000  H
  H13      1.0000 0.20840  0.35810  0.00290  Biso   1.000  H
  H14      1.0000 0.62900  0.05360  0.67080  Biso   1.000  H
  H15      1.0000 0.32600  0.30200  0.53600  Biso   1.000  H
  H16      1.0000 0.49000  0.38000  0.52000  Biso   1.000  H
  H17      1.0000 0.92190  0.71920  0.72500  Biso   1.000  H
  H18      1.0000 0.01310  0.77230  0.86750  Biso   1.000  H
  H19      1.0000 0.31240  0.91730  0.86630  Biso   1.000  H
  H20      1.0000 0.92040  0.75470  0.29950  Biso   1.000  H
  H21      1.0000 0.21840  0.78730  0.16400  Biso   1.000  H
  H22      1.0000 0.43700  0.43600  0.34640  Biso   1.000  H
  H23      1.0000 0.74990  0.50560  0.21210  Biso   1.000  H
  H24      1.0000 0.70960  0.65620  0.15380  Biso   1.000  H
  H25      1.0000 0.28880  0.42330  0.13790  Biso   1.000  H
  H26      1.0000 0.79160  0.64190  0.99710  Biso   1.000  H
  C1       1.0000 0.83190  0.16740  0.35770  Biso   1.000  C
  C2       1.0000 0.95810  0.22290  0.27450  Biso   1.000  C
  C3       1.0000 0.90340  0.19110  0.18980  Biso   1.000  C
  C4       1.0000 0.72530  0.10540  0.19010  Biso   1.000  C
  C5       1.0000 0.60390  0.05360  0.27630  Biso   1.000  C
  C6       1.0000 0.93830  0.30580  0.70790  Biso   1.000  C
  C7       1.0000 0.77470  0.28740  0.78280  Biso   1.000  C
  C8       1.0000 0.65600  0.48080  0.68190  Biso   1.000  C
  C9       1.0000 0.37460  0.42360  0.82670  Biso   1.000  C
  C10      1.0000 0.44580  0.46130  0.91720  Biso   1.000  C
  C11      1.0000 0.62110  0.54440  0.91860  Biso   1.000  C
  C12      1.0000 0.32860  0.41710  0.99970  Biso   1.000  C
  C13      1.0000 0.16810  0.83260  0.64230  Biso   1.000  C
  C14      1.0000 0.04190  0.77710  0.72550  Biso   1.000  C
  C15      1.0000 0.09660  0.80890  0.81020  Biso   1.000  C
  C16      1.0000 0.27470  0.89460  0.80990  Biso   1.000  C
  C17      1.0000 0.39610  0.94640  0.72370  Biso   1.000  C
  C18      1.0000 0.06170  0.69420  0.29210  Biso   1.000  C
  C19      1.0000 0.22530  0.71260  0.21720  Biso   1.000  C
  C20      1.0000 0.34400  0.51920  0.31810  Biso   1.000  C
  C21      1.0000 0.62540  0.57640  0.17330  Biso   1.000  C
  C22      1.0000 0.55420  0.53870  0.08280  Biso   1.000  C
  C23      1.0000 0.37890  0.45560  0.08140  Biso   1.000  C
  C24      1.0000 0.67140  0.58290  0.00030  Biso   1.000  C
  N1       1.0000 0.65160  0.08490  0.35853  Biso   1.000  N
  N2       1.0000 0.86310  0.42920  0.64348  Biso   1.000  N
  N3       1.0000 0.59600  0.39950  0.76630  Biso   1.000  N
  N4       1.0000 0.34840  0.91510  0.64147  Biso   1.000  N
  N5       1.0000 0.13690  0.57080  0.35652  Biso   1.000  N
  N6       1.0000 0.40400  0.60050  0.23370  Biso   1.000  N
  O1       1.0000 0.82850  0.34445  0.46493  Biso   1.000  O
  O2       1.0000 0.75400  0.10629  0.54753  Biso   1.000  O
  O3       1.0000 0.20390  0.16184  0.48837  Biso   1.000  O
  O4       1.0000 0.43640  0.96830  0.27549  Biso   1.000  O
  O5       1.0000 0.65650  0.63460  0.45474  Biso   1.000  O
  O6       1.0000 0.17150  0.65555  0.53507  Biso   1.000  O
  O7       1.0000 0.24600  0.89371  0.45247  Biso   1.000  O
  O8       1.0000 0.79610  0.83816  0.51163  Biso   1.000  O
  O9       1.0000 0.56360  0.03170  0.72451  Biso   1.000  O
  O10      1.0000 0.34350  0.36540  0.54526  Biso   1.000  O
