data_OFUYUL_clean
_audit_creation_date              2015-05-19
_audit_creation_method            'Materials Studio'
_symmetry_space_group_name_H-M    'P1'
_symmetry_Int_Tables_number       1
_symmetry_cell_setting            triclinic
loop_
_symmetry_equiv_pos_as_xyz
  x,y,z
_cell_length_a                    18.3847
_cell_length_b                    12.9256
_cell_length_c                    14.5550
_cell_angle_alpha                 90.0000
_cell_angle_beta                  120.0683
_cell_angle_gamma                 90.0000
loop_
_atom_site_label
_atom_site_type_symbol
_atom_site_fract_x
_atom_site_fract_y
_atom_site_fract_z
_atom_site_U_iso_or_equiv
_atom_site_adp_type
_atom_site_occupancy
Zn1    Zn    0.18210   0.51378   0.50182   0.01267  Uiso   1.00
Zn2    Zn    0.65449   0.44707   0.25374   0.01267  Uiso   1.00
H3     H     0.49850   0.33080   0.71520   0.01267  Uiso   1.00
H4     H     0.49090   0.07460   0.55530   0.01267  Uiso   1.00
H5     H     0.28960   0.26190   0.43780   0.01267  Uiso   1.00
H6     H     0.95720   0.23750   0.23730   0.01267  Uiso   1.00
H7     H     0.73240   0.27280   0.21670   0.01267  Uiso   1.00
H8     H     0.93080   0.44050   0.42720   0.01267  Uiso   1.00
C9     C     0.34290   0.40050   0.59350   0.01267  Uiso   1.00
C10    C     0.38650   0.30920   0.58060   0.01267  Uiso   1.00
C11    C     0.46950   0.28600   0.65810   0.01267  Uiso   1.00
C12    C     0.50950   0.19680   0.65120   0.01267  Uiso   1.00
C13    C     0.46530   0.13400   0.56190   0.01267  Uiso   1.00
C14    C     0.38460   0.15740   0.48290   0.01267  Uiso   1.00
C15    C     0.34070   0.09430   0.38200   0.01267  Uiso   1.00
C16    C     0.34390   0.24570   0.49100   0.01267  Uiso   1.00
C17    C     0.04740   0.37820   0.38310   0.01267  Uiso   1.00
C18    C     0.95770   0.34430   0.34020   0.01267  Uiso   1.00
C19    C     0.92360   0.26940   0.25990   0.01267  Uiso   1.00
C20    C     0.83950   0.24320   0.21440   0.01267  Uiso   1.00
C21    C     0.80340   0.16230   0.12780   0.01267  Uiso   1.00
C22    C     0.78880   0.29110   0.24760   0.01267  Uiso   1.00
C23    C     0.82230   0.36630   0.32700   0.01267  Uiso   1.00
C24    C     0.90760   0.39140   0.37330   0.01267  Uiso   1.00
O25    O     0.38400   0.45780   0.67300   0.01267  Uiso   1.00
O26    O     0.26820   0.41410   0.52350   0.01267  Uiso   1.00
O27    O     0.58810   0.17710   0.72970   0.01267  Uiso   1.00
O28    O     0.37780   0.01180   0.38190   0.01267  Uiso   1.00
O29    O     0.27430   0.12390   0.30650   0.01267  Uiso   1.00
O30    O     0.07640   0.44200   0.45930   0.01267  Uiso   1.00
O31    O     0.08850   0.34640   0.34270   0.01267  Uiso   1.00
O32    O     0.85500   0.11770   0.10800   0.01267  Uiso   1.00
O33    O     0.72880   0.14050   0.08300   0.01267  Uiso   1.00
O34    O     0.77250   0.41520   0.35830   0.01267  Uiso   1.00
H35    H     0.61953   0.25447   0.74959   0.01267  Uiso   1.00
H36    H     0.22750   0.66217   0.61422   0.01267  Uiso   1.00
Zn37   Zn    0.81790   0.01378   0.99818   0.01267  Uiso   1.00
Zn38   Zn    0.34551   0.94707   0.24626   0.01267  Uiso   1.00
H39    H     0.50150   0.83080   0.78480   0.01267  Uiso   1.00
H40    H     0.50910   0.57460   0.94470   0.01267  Uiso   1.00
H41    H     0.71040   0.76190   0.06220   0.01267  Uiso   1.00
H42    H     0.04280   0.73750   0.26270   0.01267  Uiso   1.00
H43    H     0.26760   0.77280   0.28330   0.01267  Uiso   1.00
H44    H     0.06920   0.94050   0.07280   0.01267  Uiso   1.00
C45    C     0.65710   0.90050   0.90650   0.01267  Uiso   1.00
C46    C     0.61350   0.80920   0.91940   0.01267  Uiso   1.00
C47    C     0.53050   0.78600   0.84190   0.01267  Uiso   1.00
C48    C     0.49050   0.69680   0.84880   0.01267  Uiso   1.00
C49    C     0.53470   0.63400   0.93810   0.01267  Uiso   1.00
C50    C     0.61540   0.65740   0.01710   0.01267  Uiso   1.00
C51    C     0.65930   0.59430   0.11800   0.01267  Uiso   1.00
C52    C     0.65610   0.74570   0.00900   0.01267  Uiso   1.00
C53    C     0.95260   0.87820   0.11690   0.01267  Uiso   1.00
C54    C     0.04230   0.84430   0.15980   0.01267  Uiso   1.00
C55    C     0.07640   0.76940   0.24010   0.01267  Uiso   1.00
C56    C     0.16050   0.74320   0.28560   0.01267  Uiso   1.00
C57    C     0.19660   0.66230   0.37220   0.01267  Uiso   1.00
C58    C     0.21120   0.79110   0.25240   0.01267  Uiso   1.00
C59    C     0.17770   0.86630   0.17300   0.01267  Uiso   1.00
C60    C     0.09240   0.89140   0.12670   0.01267  Uiso   1.00
O61    O     0.61600   0.95780   0.82700   0.01267  Uiso   1.00
O62    O     0.73180   0.91410   0.97650   0.01267  Uiso   1.00
O63    O     0.41190   0.67710   0.77030   0.01267  Uiso   1.00
O64    O     0.62220   0.51180   0.11810   0.01267  Uiso   1.00
O65    O     0.72570   0.62390   0.19350   0.01267  Uiso   1.00
O66    O     0.92360   0.94200   0.04070   0.01267  Uiso   1.00
O67    O     0.91150   0.84640   0.15730   0.01267  Uiso   1.00
O68    O     0.14500   0.61770   0.39200   0.01267  Uiso   1.00
O69    O     0.27120   0.64050   0.41700   0.01267  Uiso   1.00
O70    O     0.22750   0.91520   0.14170   0.01267  Uiso   1.00
H71    H     0.38047   0.75447   0.75041   0.01267  Uiso   1.00
H72    H     0.77250   0.16217   0.88578   0.01267  Uiso   1.00
Zn73   Zn    0.81790   0.48622   0.49818   0.01267  Uiso   1.00
Zn74   Zn    0.34551   0.55293   0.74626   0.01267  Uiso   1.00
H75    H     0.50150   0.66920   0.28480   0.01267  Uiso   1.00
H76    H     0.50910   0.92540   0.44470   0.01267  Uiso   1.00
H77    H     0.71040   0.73810   0.56220   0.01267  Uiso   1.00
H78    H     0.04280   0.76250   0.76270   0.01267  Uiso   1.00
H79    H     0.26760   0.72720   0.78330   0.01267  Uiso   1.00
H80    H     0.06920   0.55950   0.57280   0.01267  Uiso   1.00
C81    C     0.65710   0.59950   0.40650   0.01267  Uiso   1.00
C82    C     0.61350   0.69080   0.41940   0.01267  Uiso   1.00
C83    C     0.53050   0.71400   0.34190   0.01267  Uiso   1.00
C84    C     0.49050   0.80320   0.34880   0.01267  Uiso   1.00
C85    C     0.53470   0.86600   0.43810   0.01267  Uiso   1.00
C86    C     0.61540   0.84260   0.51710   0.01267  Uiso   1.00
C87    C     0.65930   0.90570   0.61800   0.01267  Uiso   1.00
C88    C     0.65610   0.75430   0.50900   0.01267  Uiso   1.00
C89    C     0.95260   0.62180   0.61690   0.01267  Uiso   1.00
C90    C     0.04230   0.65570   0.65980   0.01267  Uiso   1.00
C91    C     0.07640   0.73060   0.74010   0.01267  Uiso   1.00
C92    C     0.16050   0.75680   0.78560   0.01267  Uiso   1.00
C93    C     0.19660   0.83770   0.87220   0.01267  Uiso   1.00
C94    C     0.21120   0.70890   0.75240   0.01267  Uiso   1.00
C95    C     0.17770   0.63370   0.67300   0.01267  Uiso   1.00
C96    C     0.09240   0.60860   0.62670   0.01267  Uiso   1.00
O97    O     0.61600   0.54220   0.32700   0.01267  Uiso   1.00
O98    O     0.73180   0.58590   0.47650   0.01267  Uiso   1.00
O99    O     0.41190   0.82290   0.27030   0.01267  Uiso   1.00
O100   O     0.62220   0.98820   0.61810   0.01267  Uiso   1.00
O101   O     0.72570   0.87610   0.69350   0.01267  Uiso   1.00
O102   O     0.92360   0.55800   0.54070   0.01267  Uiso   1.00
O103   O     0.91150   0.65360   0.65730   0.01267  Uiso   1.00
O104   O     0.14500   0.88230   0.89200   0.01267  Uiso   1.00
O105   O     0.27120   0.85950   0.91700   0.01267  Uiso   1.00
O106   O     0.22750   0.58480   0.64170   0.01267  Uiso   1.00
H107   H     0.38047   0.74553   0.25041   0.01267  Uiso   1.00
H108   H     0.77250   0.33783   0.38578   0.01267  Uiso   1.00
Zn109  Zn    0.18210   0.98622   0.00182   0.01267  Uiso   1.00
Zn110  Zn    0.65449   0.05293   0.75374   0.01267  Uiso   1.00
H111   H     0.49850   0.16920   0.21520   0.01267  Uiso   1.00
H112   H     0.49090   0.42540   0.05530   0.01267  Uiso   1.00
H113   H     0.28960   0.23810   0.93780   0.01267  Uiso   1.00
H114   H     0.95720   0.26250   0.73730   0.01267  Uiso   1.00
H115   H     0.73240   0.22720   0.71670   0.01267  Uiso   1.00
H116   H     0.93080   0.05950   0.92720   0.01267  Uiso   1.00
C117   C     0.34290   0.09950   0.09350   0.01267  Uiso   1.00
C118   C     0.38650   0.19080   0.08060   0.01267  Uiso   1.00
C119   C     0.46950   0.21400   0.15810   0.01267  Uiso   1.00
C120   C     0.50950   0.30320   0.15120   0.01267  Uiso   1.00
C121   C     0.46530   0.36600   0.06190   0.01267  Uiso   1.00
C122   C     0.38460   0.34260   0.98290   0.01267  Uiso   1.00
C123   C     0.34070   0.40570   0.88200   0.01267  Uiso   1.00
C124   C     0.34390   0.25430   0.99100   0.01267  Uiso   1.00
C125   C     0.04740   0.12180   0.88310   0.01267  Uiso   1.00
C126   C     0.95770   0.15570   0.84020   0.01267  Uiso   1.00
C127   C     0.92360   0.23060   0.75990   0.01267  Uiso   1.00
C128   C     0.83950   0.25680   0.71440   0.01267  Uiso   1.00
C129   C     0.80340   0.33770   0.62780   0.01267  Uiso   1.00
C130   C     0.78880   0.20890   0.74760   0.01267  Uiso   1.00
C131   C     0.82230   0.13370   0.82700   0.01267  Uiso   1.00
C132   C     0.90760   0.10860   0.87330   0.01267  Uiso   1.00
O133   O     0.38400   0.04220   0.17300   0.01267  Uiso   1.00
O134   O     0.26820   0.08590   0.02350   0.01267  Uiso   1.00
O135   O     0.58810   0.32290   0.22970   0.01267  Uiso   1.00
O136   O     0.37780   0.48820   0.88190   0.01267  Uiso   1.00
O137   O     0.27430   0.37610   0.80650   0.01267  Uiso   1.00
O138   O     0.07640   0.05800   0.95930   0.01267  Uiso   1.00
O139   O     0.08850   0.15360   0.84270   0.01267  Uiso   1.00
O140   O     0.85500   0.38230   0.60800   0.01267  Uiso   1.00
O141   O     0.72880   0.35950   0.58300   0.01267  Uiso   1.00
O142   O     0.77250   0.08480   0.85830   0.01267  Uiso   1.00
H143   H     0.61953   0.24553   0.24959   0.01267  Uiso   1.00
H144   H     0.22750   0.83783   0.11422   0.01267  Uiso   1.00
