data_image0
_cell_length_a       6.2312
_cell_length_b       9.366
_cell_length_c       9.45
_cell_angle_alpha    103.67
_cell_angle_beta     108.541
_cell_angle_gamma    95.229

_symmetry_space_group_name_H-M    "P 1"
_symmetry_int_tables_number       1

loop_
  _symmetry_equiv_pos_as_xyz
  'x, y, z'

loop_
  _atom_site_label
  _atom_site_occupancy
  _atom_site_fract_x
  _atom_site_fract_y
  _atom_site_fract_z
  _atom_site_thermal_displace_type
  _atom_site_B_iso_or_equiv
  _atom_site_type_symbol
  Mo1      1.0000 0.63653  0.26932  0.32193  Biso   1.000  Mo
  Mo2      1.0000 0.29176  0.36401  0.50893  Biso   1.000  Mo
  Cu1      1.0000 0.55129  0.87025  0.13525  Biso   1.000  Cu
  O1       1.0000 0.61310  0.20060  0.13290  Biso   1.000  O
  O2       1.0000 0.66320  0.11500  0.39920  Biso   1.000  O
  O3       1.0000 0.33400  0.28110  0.30370  Biso   1.000  O
  O4       1.0000 0.65230  0.42180  0.55060  Biso   1.000  O
  O5       1.0000 0.33190  0.20780  0.57320  Biso   1.000  O
  O6       1.0000 0.98510  0.33720  0.41260  Biso   1.000  O
  O7       1.0000 0.66610  0.49570  0.30990  Biso   1.000  O
  N1       1.0000 0.24540  0.92720  0.30230  Biso   1.000  N
  N2       1.0000 0.03190  0.92950  0.30360  Biso   1.000  N
  C1       1.0000 0.88340  0.88350  0.15680  Biso   1.000  C
  C2       1.0000 0.24130  0.88250  0.15710  Biso   1.000  C
  C3       1.0000 0.01360  0.85460  0.06300  Biso   1.000  C
  H1       1.0000 0.95730  0.82200  0.95490  Biso   1.000  H
  H2       1.0000 0.74200  0.42800  0.63700  Biso   1.000  H
  H3       1.0000 0.34700  0.88000  0.13100  Biso   1.000  H
  H4       1.0000 0.75000  0.88700  0.11900  Biso   1.000  H
  N3       1.0000 0.11660  0.11650  0.84320  Biso   1.000  N
  Mo3      1.0000 0.36347  0.73068  0.67807  Biso   1.000  Mo
  Mo4      1.0000 0.70824  0.63599  0.49107  Biso   1.000  Mo
  Cu2      1.0000 0.44871  0.12975  0.86475  Biso   1.000  Cu
  O8       1.0000 0.38690  0.79940  0.86710  Biso   1.000  O
  O9       1.0000 0.33680  0.88500  0.60080  Biso   1.000  O
  O10      1.0000 0.66600  0.71890  0.69630  Biso   1.000  O
  O11      1.0000 0.34770  0.57820  0.44940  Biso   1.000  O
  O12      1.0000 0.66810  0.79220  0.42680  Biso   1.000  O
  O13      1.0000 0.01490  0.66280  0.58740  Biso   1.000  O
  O14      1.0000 0.33390  0.50430  0.69010  Biso   1.000  O
  N4       1.0000 0.75460  0.07280  0.69770  Biso   1.000  N
  N5       1.0000 0.96810  0.07050  0.69640  Biso   1.000  N
  C4       1.0000 0.75870  0.11750  0.84290  Biso   1.000  C
  C5       1.0000 0.98640  0.14540  0.93700  Biso   1.000  C
  H5       1.0000 0.04270  0.17800  0.04510  Biso   1.000  H
  H6       1.0000 0.25800  0.57200  0.36300  Biso   1.000  H
  H7       1.0000 0.65300  0.12000  0.86900  Biso   1.000  H
  H8       1.0000 0.25000  0.11300  0.88100  Biso   1.000  H
  Cu3      1.0000 0.50000  0.00000  0.50000  Biso   1.000  Cu
  Cu4      1.0000 0.00000  0.00000  0.50000  Biso   1.000  Cu
