data_image0
_cell_length_a       10.334
_cell_length_b       11.5451
_cell_length_c       28.4469
_cell_angle_alpha    90
_cell_angle_beta     90
_cell_angle_gamma    115.309

_symmetry_space_group_name_H-M    P 1
_symmetry_int_tables_number       1

loop_
  _symmetry_equiv_pos_as_xyz
  'x, y, z'

loop_
  _atom_site_label
  _atom_site_occupancy
  _atom_site_fract_x
  _atom_site_fract_y
  _atom_site_fract_z
  _atom_site_thermal_displace_type
  _atom_site_B_iso_or_equiv
  _atom_site_type_symbol
  Zn1      1.0000 0.09027  0.00767  0.93767  Biso   1.000  Zn
  Zn2      1.0000 0.33054  0.33425  0.52206  Biso   1.000  Zn
  Zn3      1.0000 0.90973  0.49233  0.43767  Biso   1.000  Zn
  Zn4      1.0000 0.66946  0.16575  0.02206  Biso   1.000  Zn
  Zn5      1.0000 0.90973  0.99233  0.06233  Biso   1.000  Zn
  Zn6      1.0000 0.66946  0.66575  0.47794  Biso   1.000  Zn
  Zn7      1.0000 0.09027  0.50767  0.56233  Biso   1.000  Zn
  Zn8      1.0000 0.33054  0.83425  0.97794  Biso   1.000  Zn
  P1       1.0000 0.40577  0.12297  0.95489  Biso   1.000  P
  P2       1.0000 0.06415  0.83037  0.02287  Biso   1.000  P
  P3       1.0000 0.59423  0.37703  0.45489  Biso   1.000  P
  P4       1.0000 0.93585  0.66963  0.52287  Biso   1.000  P
  P5       1.0000 0.59423  0.87703  0.04511  Biso   1.000  P
  P6       1.0000 0.93585  0.16963  0.97713  Biso   1.000  P
  P7       1.0000 0.40577  0.62297  0.54511  Biso   1.000  P
  P8       1.0000 0.06415  0.33037  0.47713  Biso   1.000  P
  H1       1.0000 0.92920  0.03270  0.85710  Biso   1.000  H
  H2       1.0000 0.90670  0.00060  0.77720  Biso   1.000  H
  H3       1.0000 0.22140  0.88070  0.78280  Biso   1.000  H
  H4       1.0000 0.23860  0.91920  0.86280  Biso   1.000  H
  H5       1.0000 0.94470  0.86330  0.71080  Biso   1.000  H
  H6       1.0000 0.07480  0.00040  0.70260  Biso   1.000  H
  H7       1.0000 0.23720  0.90780  0.70080  Biso   1.000  H
  H8       1.0000 0.11120  0.77000  0.71250  Biso   1.000  H
  H9       1.0000 0.15160  0.77430  0.63180  Biso   1.000  H
  H10      1.0000 0.99930  0.77720  0.63860  Biso   1.000  H
  H11      1.0000 0.96880  0.97020  0.61510  Biso   1.000  H
  H12      1.0000 0.05380  0.15830  0.57260  Biso   1.000  H
  H13      1.0000 0.43220  0.15490  0.56010  Biso   1.000  H
  H14      1.0000 0.35890  0.97080  0.60440  Biso   1.000  H
  H15      1.0000 0.47749  0.19420  0.92060  Biso   1.000  H
  H16      1.0000 0.96572  0.72730  0.03454  Biso   1.000  H
  H17      1.0000 0.07080  0.46730  0.35710  Biso   1.000  H
  H18      1.0000 0.09330  0.49940  0.27720  Biso   1.000  H
  H19      1.0000 0.77860  0.61930  0.28280  Biso   1.000  H
  H20      1.0000 0.76140  0.58080  0.36280  Biso   1.000  H
  H21      1.0000 0.05530  0.63670  0.21080  Biso   1.000  H
  H22      1.0000 0.92520  0.49960  0.20260  Biso   1.000  H
  H23      1.0000 0.76280  0.59220  0.20080  Biso   1.000  H
  H24      1.0000 0.88880  0.73000  0.21250  Biso   1.000  H
  H25      1.0000 0.84840  0.72570  0.13180  Biso   1.000  H
  H26      1.0000 0.00070  0.72280  0.13860  Biso   1.000  H
  H27      1.0000 0.03120  0.52980  0.11510  Biso   1.000  H
  H28      1.0000 0.94620  0.34170  0.07260  Biso   1.000  H
  H29      1.0000 0.56780  0.34510  0.06010  Biso   1.000  H
  H30      1.0000 0.64110  0.52920  0.10440  Biso   1.000  H
  H31      1.0000 0.52251  0.30580  0.42060  Biso   1.000  H
  H32      1.0000 0.03428  0.77270  0.53454  Biso   1.000  H
  H33      1.0000 0.07080  0.96730  0.14290  Biso   1.000  H
  H34      1.0000 0.09330  0.99940  0.22280  Biso   1.000  H
  H35      1.0000 0.77860  0.11930  0.21720  Biso   1.000  H
  H36      1.0000 0.76140  0.08080  0.13720  Biso   1.000  H
  H37      1.0000 0.05530  0.13670  0.28920  Biso   1.000  H
  H38      1.0000 0.92520  0.99960  0.29740  Biso   1.000  H
  H39      1.0000 0.76280  0.09220  0.29920  Biso   1.000  H
  H40      1.0000 0.88880  0.23000  0.28750  Biso   1.000  H
  H41      1.0000 0.84840  0.22570  0.36820  Biso   1.000  H
  H42      1.0000 0.00070  0.22280  0.36140  Biso   1.000  H
  H43      1.0000 0.03120  0.02980  0.38490  Biso   1.000  H
  H44      1.0000 0.94620  0.84170  0.42740  Biso   1.000  H
  H45      1.0000 0.56780  0.84510  0.43990  Biso   1.000  H
  H46      1.0000 0.64110  0.02920  0.39560  Biso   1.000  H
  H47      1.0000 0.52251  0.80580  0.07940  Biso   1.000  H
  H48      1.0000 0.03428  0.27270  0.96546  Biso   1.000  H
  H49      1.0000 0.92920  0.53270  0.64290  Biso   1.000  H
  H50      1.0000 0.90670  0.50060  0.72280  Biso   1.000  H
  H51      1.0000 0.22140  0.38070  0.71720  Biso   1.000  H
  H52      1.0000 0.23860  0.41920  0.63720  Biso   1.000  H
  H53      1.0000 0.94470  0.36330  0.78920  Biso   1.000  H
  H54      1.0000 0.07480  0.50040  0.79740  Biso   1.000  H
  H55      1.0000 0.23720  0.40780  0.79920  Biso   1.000  H
  H56      1.0000 0.11120  0.27000  0.78750  Biso   1.000  H
  H57      1.0000 0.15160  0.27430  0.86820  Biso   1.000  H
  H58      1.0000 0.99930  0.27720  0.86140  Biso   1.000  H
  H59      1.0000 0.96880  0.47020  0.88490  Biso   1.000  H
  H60      1.0000 0.05380  0.65830  0.92740  Biso   1.000  H
  H61      1.0000 0.43220  0.65490  0.93990  Biso   1.000  H
  H62      1.0000 0.35890  0.47080  0.89560  Biso   1.000  H
  H63      1.0000 0.47749  0.69420  0.57940  Biso   1.000  H
  H64      1.0000 0.96572  0.22730  0.46546  Biso   1.000  H
  C1       1.0000 0.98973  0.00183  0.84167  Biso   1.000  C
  C2       1.0000 0.97549  0.98273  0.79401  Biso   1.000  C
  C3       1.0000 0.06254  0.93693  0.77035  Biso   1.000  C
  C4       1.0000 0.16061  0.91281  0.79732  Biso   1.000  C
  C5       1.0000 0.16989  0.93527  0.84513  Biso   1.000  C
  C6       1.0000 0.04701  0.91621  0.71797  Biso   1.000  C
  C7       1.0000 0.13401  0.85226  0.69621  Biso   1.000  C
  C8       1.0000 0.10369  0.82689  0.64340  Biso   1.000  C
  C9       1.0000 0.15454  0.94843  0.61505  Biso   1.000  C
  C10      1.0000 0.06528  0.00735  0.60452  Biso   1.000  C
  C11      1.0000 0.11617  0.11904  0.57888  Biso   1.000  C
  C12      1.0000 0.33707  0.11744  0.57192  Biso   1.000  C
  C13      1.0000 0.29369  0.00698  0.59804  Biso   1.000  C
  C14      1.0000 0.01027  0.49817  0.34167  Biso   1.000  C
  C15      1.0000 0.02451  0.51727  0.29401  Biso   1.000  C
  C16      1.0000 0.93746  0.56307  0.27035  Biso   1.000  C
  C17      1.0000 0.83939  0.58719  0.29732  Biso   1.000  C
  C18      1.0000 0.83011  0.56473  0.34513  Biso   1.000  C
  C19      1.0000 0.95299  0.58379  0.21797  Biso   1.000  C
  C20      1.0000 0.86599  0.64774  0.19621  Biso   1.000  C
  C21      1.0000 0.89631  0.67311  0.14340  Biso   1.000  C
  C22      1.0000 0.84546  0.55157  0.11505  Biso   1.000  C
  C23      1.0000 0.93472  0.49265  0.10452  Biso   1.000  C
  C24      1.0000 0.88383  0.38096  0.07888  Biso   1.000  C
  C25      1.0000 0.66293  0.38256  0.07192  Biso   1.000  C
  C26      1.0000 0.70631  0.49302  0.09804  Biso   1.000  C
  C27      1.0000 0.01027  0.99817  0.15833  Biso   1.000  C
  C28      1.0000 0.02451  0.01727  0.20599  Biso   1.000  C
  C29      1.0000 0.93746  0.06307  0.22965  Biso   1.000  C
  C30      1.0000 0.83939  0.08719  0.20268  Biso   1.000  C
  C31      1.0000 0.83011  0.06473  0.15487  Biso   1.000  C
  C32      1.0000 0.95299  0.08379  0.28203  Biso   1.000  C
  C33      1.0000 0.86599  0.14774  0.30379  Biso   1.000  C
  C34      1.0000 0.89631  0.17311  0.35660  Biso   1.000  C
  C35      1.0000 0.84546  0.05157  0.38495  Biso   1.000  C
  C36      1.0000 0.93472  0.99265  0.39548  Biso   1.000  C
  C37      1.0000 0.88383  0.88096  0.42112  Biso   1.000  C
  C38      1.0000 0.66293  0.88256  0.42808  Biso   1.000  C
  C39      1.0000 0.70631  0.99302  0.40196  Biso   1.000  C
  C40      1.0000 0.98973  0.50183  0.65833  Biso   1.000  C
  C41      1.0000 0.97549  0.48273  0.70599  Biso   1.000  C
  C42      1.0000 0.06254  0.43693  0.72965  Biso   1.000  C
  C43      1.0000 0.16061  0.41281  0.70268  Biso   1.000  C
  C44      1.0000 0.16989  0.43527  0.65487  Biso   1.000  C
  C45      1.0000 0.04701  0.41621  0.78203  Biso   1.000  C
  C46      1.0000 0.13401  0.35226  0.80379  Biso   1.000  C
  C47      1.0000 0.10369  0.32689  0.85660  Biso   1.000  C
  C48      1.0000 0.15454  0.44843  0.88495  Biso   1.000  C
  C49      1.0000 0.06528  0.50735  0.89548  Biso   1.000  C
  C50      1.0000 0.11617  0.61904  0.92112  Biso   1.000  C
  C51      1.0000 0.33707  0.61744  0.92808  Biso   1.000  C
  C52      1.0000 0.29369  0.50698  0.90196  Biso   1.000  C
  N1       1.0000 0.08539  0.97899  0.86767  Biso   1.000  N
  N2       1.0000 0.25098  0.17496  0.56229  Biso   1.000  N
  N3       1.0000 0.91461  0.52101  0.36767  Biso   1.000  N
  N4       1.0000 0.74902  0.32504  0.06229  Biso   1.000  N
  N5       1.0000 0.91461  0.02101  0.13233  Biso   1.000  N
  N6       1.0000 0.74902  0.82504  0.43771  Biso   1.000  N
  N7       1.0000 0.08539  0.47899  0.63233  Biso   1.000  N
  N8       1.0000 0.25098  0.67496  0.93771  Biso   1.000  N
  O1       1.0000 0.37110  0.98603  0.94125  Biso   1.000  O
  O2       1.0000 0.26972  0.14389  0.95995  Biso   1.000  O
  O3       1.0000 0.04390  0.84896  0.97104  Biso   1.000  O
  O4       1.0000 0.20411  0.81816  0.03121  Biso   1.000  O
  O5       1.0000 0.05671  0.93197  0.05492  Biso   1.000  O
  O6       1.0000 0.49728  0.17110  0.99838  Biso   1.000  O
  O7       1.0000 0.62890  0.51397  0.44125  Biso   1.000  O
  O8       1.0000 0.73028  0.35611  0.45995  Biso   1.000  O
  O9       1.0000 0.95610  0.65104  0.47104  Biso   1.000  O
  O10      1.0000 0.79589  0.68184  0.53121  Biso   1.000  O
  O11      1.0000 0.94329  0.56803  0.55492  Biso   1.000  O
  O12      1.0000 0.50272  0.32890  0.49838  Biso   1.000  O
  O13      1.0000 0.62890  0.01397  0.05875  Biso   1.000  O
  O14      1.0000 0.73028  0.85611  0.04005  Biso   1.000  O
  O15      1.0000 0.95610  0.15104  0.02896  Biso   1.000  O
  O16      1.0000 0.79589  0.18184  0.96879  Biso   1.000  O
  O17      1.0000 0.94329  0.06803  0.94508  Biso   1.000  O
  O18      1.0000 0.50272  0.82890  0.00162  Biso   1.000  O
  O19      1.0000 0.37110  0.48603  0.55875  Biso   1.000  O
  O20      1.0000 0.26972  0.64389  0.54005  Biso   1.000  O
  O21      1.0000 0.04390  0.34896  0.52896  Biso   1.000  O
  O22      1.0000 0.20411  0.31816  0.46879  Biso   1.000  O
  O23      1.0000 0.05671  0.43197  0.44508  Biso   1.000  O
  O24      1.0000 0.49728  0.67110  0.50162  Biso   1.000  O
