data_image0
_cell_length_a       9.6299
_cell_length_b       9.7698
_cell_length_c       24.5639
_cell_angle_alpha    90
_cell_angle_beta     90
_cell_angle_gamma    90

_symmetry_space_group_name_H-M    P 1
_symmetry_int_tables_number       1

loop_
  _symmetry_equiv_pos_as_xyz
  'x, y, z'

loop_
  _atom_site_label
  _atom_site_occupancy
  _atom_site_fract_x
  _atom_site_fract_y
  _atom_site_fract_z
  _atom_site_thermal_displace_type
  _atom_site_B_iso_or_equiv
  _atom_site_type_symbol
  Zn1      1.0000 0.50017  0.88751  0.98318  Biso   1.000  Zn
  Zn2      1.0000 0.36874  0.87930  0.50282  Biso   1.000  Zn
  Zn3      1.0000 0.99983  0.11249  0.48318  Biso   1.000  Zn
  Zn4      1.0000 0.13126  0.12070  0.00282  Biso   1.000  Zn
  Zn5      1.0000 0.49983  0.38751  0.51682  Biso   1.000  Zn
  Zn6      1.0000 0.63126  0.37930  0.99718  Biso   1.000  Zn
  Zn7      1.0000 0.00017  0.61249  0.01682  Biso   1.000  Zn
  Zn8      1.0000 0.86874  0.62070  0.49718  Biso   1.000  Zn
  P1       1.0000 0.72980  0.66146  0.94700  Biso   1.000  P
  P2       1.0000 0.41945  0.17008  0.93599  Biso   1.000  P
  P3       1.0000 0.77020  0.33854  0.44700  Biso   1.000  P
  P4       1.0000 0.08055  0.82992  0.43599  Biso   1.000  P
  P5       1.0000 0.27020  0.16146  0.55300  Biso   1.000  P
  P6       1.0000 0.58055  0.67008  0.56401  Biso   1.000  P
  P7       1.0000 0.22980  0.83854  0.05300  Biso   1.000  P
  P8       1.0000 0.91945  0.32992  0.06401  Biso   1.000  P
  H1       1.0000 0.74990  0.84900  0.05620  Biso   1.000  H
  H2       1.0000 0.83210  0.92880  0.13820  Biso   1.000  H
  H3       1.0000 0.51780  0.20070  0.14130  Biso   1.000  H
  H4       1.0000 0.44240  0.11380  0.05970  Biso   1.000  H
  H5       1.0000 0.83530  0.11260  0.20700  Biso   1.000  H
  H6       1.0000 0.71900  0.22940  0.20440  Biso   1.000  H
  H7       1.0000 0.55750  0.07330  0.24600  Biso   1.000  H
  H8       1.0000 0.68020  0.96370  0.25170  Biso   1.000  H
  H9       1.0000 0.68300  0.22640  0.30400  Biso   1.000  H
  H10      1.0000 0.80220  0.11370  0.31070  Biso   1.000  H
  H11      1.0000 0.78500  0.95850  0.38510  Biso   1.000  H
  H12      1.0000 0.66540  0.87240  0.45900  Biso   1.000  H
  H13      1.0000 0.32660  0.06530  0.41320  Biso   1.000  H
  H14      1.0000 0.43820  0.15490  0.33830  Biso   1.000  H
  H15      1.0000 0.80170  0.69030  0.90200  Biso   1.000  H
  H16      1.0000 0.39010  0.22330  0.88850  Biso   1.000  H
  H17      1.0000 0.75010  0.15100  0.55620  Biso   1.000  H
  H18      1.0000 0.66790  0.07120  0.63820  Biso   1.000  H
  H19      1.0000 0.98220  0.79930  0.64130  Biso   1.000  H
  H20      1.0000 0.05760  0.88620  0.55970  Biso   1.000  H
  H21      1.0000 0.66470  0.88740  0.70700  Biso   1.000  H
  H22      1.0000 0.78100  0.77060  0.70440  Biso   1.000  H
  H23      1.0000 0.94250  0.92670  0.74600  Biso   1.000  H
  H24      1.0000 0.81980  0.03630  0.75170  Biso   1.000  H
  H25      1.0000 0.81700  0.77360  0.80400  Biso   1.000  H
  H26      1.0000 0.69780  0.88630  0.81070  Biso   1.000  H
  H27      1.0000 0.71500  0.04150  0.88510  Biso   1.000  H
  H28      1.0000 0.83460  0.12760  0.95900  Biso   1.000  H
  H29      1.0000 0.17340  0.93470  0.91320  Biso   1.000  H
  H30      1.0000 0.06180  0.84510  0.83830  Biso   1.000  H
  H31      1.0000 0.69830  0.30970  0.40200  Biso   1.000  H
  H32      1.0000 0.10990  0.77670  0.38850  Biso   1.000  H
  H33      1.0000 0.25010  0.34900  0.44380  Biso   1.000  H
  H34      1.0000 0.16790  0.42880  0.36180  Biso   1.000  H
  H35      1.0000 0.48220  0.70070  0.35870  Biso   1.000  H
  H36      1.0000 0.55760  0.61380  0.44030  Biso   1.000  H
  H37      1.0000 0.16470  0.61260  0.29300  Biso   1.000  H
  H38      1.0000 0.28100  0.72940  0.29560  Biso   1.000  H
  H39      1.0000 0.44250  0.57330  0.25400  Biso   1.000  H
  H40      1.0000 0.31980  0.46370  0.24830  Biso   1.000  H
  H41      1.0000 0.31700  0.72640  0.19600  Biso   1.000  H
  H42      1.0000 0.19780  0.61370  0.18930  Biso   1.000  H
  H43      1.0000 0.21500  0.45850  0.11490  Biso   1.000  H
  H44      1.0000 0.33460  0.37240  0.04100  Biso   1.000  H
  H45      1.0000 0.67340  0.56530  0.08680  Biso   1.000  H
  H46      1.0000 0.56180  0.65490  0.16170  Biso   1.000  H
  H47      1.0000 0.19830  0.19030  0.59800  Biso   1.000  H
  H48      1.0000 0.60990  0.72330  0.61150  Biso   1.000  H
  H49      1.0000 0.24990  0.65100  0.94380  Biso   1.000  H
  H50      1.0000 0.33210  0.57120  0.86180  Biso   1.000  H
  H51      1.0000 0.01780  0.29930  0.85870  Biso   1.000  H
  H52      1.0000 0.94240  0.38620  0.94030  Biso   1.000  H
  H53      1.0000 0.33530  0.38740  0.79300  Biso   1.000  H
  H54      1.0000 0.21900  0.27060  0.79560  Biso   1.000  H
  H55      1.0000 0.05750  0.42670  0.75400  Biso   1.000  H
  H56      1.0000 0.18020  0.53630  0.74830  Biso   1.000  H
  H57      1.0000 0.18300  0.27360  0.69600  Biso   1.000  H
  H58      1.0000 0.30220  0.38630  0.68930  Biso   1.000  H
  H59      1.0000 0.28500  0.54150  0.61490  Biso   1.000  H
  H60      1.0000 0.16540  0.62760  0.54100  Biso   1.000  H
  H61      1.0000 0.82660  0.43470  0.58680  Biso   1.000  H
  H62      1.0000 0.93820  0.34510  0.66170  Biso   1.000  H
  H63      1.0000 0.30170  0.80970  0.09800  Biso   1.000  H
  H64      1.0000 0.89010  0.27670  0.11150  Biso   1.000  H
  C1       1.0000 0.70170  0.92110  0.07389  Biso   1.000  C
  C2       1.0000 0.75150  0.96910  0.12271  Biso   1.000  C
  C3       1.0000 0.68590  0.07480  0.14954  Biso   1.000  C
  C4       1.0000 0.56750  0.12800  0.12459  Biso   1.000  C
  C5       1.0000 0.52290  0.07550  0.07601  Biso   1.000  C
  C6       1.0000 0.73440  0.12920  0.20331  Biso   1.000  C
  C7       1.0000 0.65890  0.06280  0.25106  Biso   1.000  C
  C8       1.0000 0.70120  0.12670  0.30537  Biso   1.000  C
  C9       1.0000 0.62550  0.06690  0.35331  Biso   1.000  C
  C10      1.0000 0.69010  0.98190  0.39006  Biso   1.000  C
  C11      1.0000 0.61830  0.93040  0.43408  Biso   1.000  C
  C12      1.0000 0.42140  0.04270  0.40730  Biso   1.000  C
  C13      1.0000 0.48740  0.09700  0.36262  Biso   1.000  C
  C14      1.0000 0.79830  0.07890  0.57389  Biso   1.000  C
  C15      1.0000 0.74850  0.03090  0.62271  Biso   1.000  C
  C16      1.0000 0.81410  0.92520  0.64954  Biso   1.000  C
  C17      1.0000 0.93250  0.87200  0.62459  Biso   1.000  C
  C18      1.0000 0.97710  0.92450  0.57601  Biso   1.000  C
  C19      1.0000 0.76560  0.87080  0.70331  Biso   1.000  C
  C20      1.0000 0.84110  0.93720  0.75106  Biso   1.000  C
  C21      1.0000 0.79880  0.87330  0.80537  Biso   1.000  C
  C22      1.0000 0.87450  0.93310  0.85331  Biso   1.000  C
  C23      1.0000 0.80990  0.01810  0.89006  Biso   1.000  C
  C24      1.0000 0.88170  0.06960  0.93408  Biso   1.000  C
  C25      1.0000 0.07860  0.95730  0.90730  Biso   1.000  C
  C26      1.0000 0.01260  0.90300  0.86262  Biso   1.000  C
  C27      1.0000 0.29830  0.42110  0.42611  Biso   1.000  C
  C28      1.0000 0.24850  0.46910  0.37729  Biso   1.000  C
  C29      1.0000 0.31410  0.57480  0.35046  Biso   1.000  C
  C30      1.0000 0.43250  0.62800  0.37541  Biso   1.000  C
  C31      1.0000 0.47710  0.57550  0.42399  Biso   1.000  C
  C32      1.0000 0.26560  0.62920  0.29669  Biso   1.000  C
  C33      1.0000 0.34110  0.56280  0.24894  Biso   1.000  C
  C34      1.0000 0.29880  0.62670  0.19463  Biso   1.000  C
  C35      1.0000 0.37450  0.56690  0.14669  Biso   1.000  C
  C36      1.0000 0.30990  0.48190  0.10994  Biso   1.000  C
  C37      1.0000 0.38170  0.43040  0.06592  Biso   1.000  C
  C38      1.0000 0.57860  0.54270  0.09270  Biso   1.000  C
  C39      1.0000 0.51260  0.59700  0.13738  Biso   1.000  C
  C40      1.0000 0.20170  0.57890  0.92611  Biso   1.000  C
  C41      1.0000 0.25150  0.53090  0.87729  Biso   1.000  C
  C42      1.0000 0.18590  0.42520  0.85046  Biso   1.000  C
  C43      1.0000 0.06750  0.37200  0.87541  Biso   1.000  C
  C44      1.0000 0.02290  0.42450  0.92399  Biso   1.000  C
  C45      1.0000 0.23440  0.37080  0.79669  Biso   1.000  C
  C46      1.0000 0.15890  0.43720  0.74894  Biso   1.000  C
  C47      1.0000 0.20120  0.37330  0.69463  Biso   1.000  C
  C48      1.0000 0.12550  0.43310  0.64669  Biso   1.000  C
  C49      1.0000 0.19010  0.51810  0.60994  Biso   1.000  C
  C50      1.0000 0.11830  0.56960  0.56592  Biso   1.000  C
  C51      1.0000 0.92140  0.45730  0.59270  Biso   1.000  C
  C52      1.0000 0.98740  0.40300  0.63738  Biso   1.000  C
  N1       1.0000 0.58743  0.97266  0.05036  Biso   1.000  N
  N2       1.0000 0.48375  0.95993  0.44278  Biso   1.000  N
  N3       1.0000 0.91257  0.02734  0.55036  Biso   1.000  N
  N4       1.0000 0.01625  0.04007  0.94278  Biso   1.000  N
  N5       1.0000 0.41257  0.47266  0.44964  Biso   1.000  N
  N6       1.0000 0.51625  0.45993  0.05722  Biso   1.000  N
  N7       1.0000 0.08743  0.52734  0.94964  Biso   1.000  N
  N8       1.0000 0.98375  0.54007  0.55722  Biso   1.000  N
  O1       1.0000 0.60465  0.75204  0.94586  Biso   1.000  O
  O2       1.0000 0.44275  0.01771  0.92669  Biso   1.000  O
  O3       1.0000 0.82523  0.69245  0.99414  Biso   1.000  O
  O4       1.0000 0.69166  0.51051  0.94314  Biso   1.000  O
  O5       1.0000 0.29817  0.20078  0.97269  Biso   1.000  O
  O6       1.0000 0.55135  0.23743  0.95510  Biso   1.000  O
  O7       1.0000 0.89535  0.24796  0.44586  Biso   1.000  O
  O8       1.0000 0.05725  0.98229  0.42669  Biso   1.000  O
  O9       1.0000 0.67477  0.30755  0.49414  Biso   1.000  O
  O10      1.0000 0.80834  0.48949  0.44314  Biso   1.000  O
  O11      1.0000 0.20183  0.79922  0.47269  Biso   1.000  O
  O12      1.0000 0.94865  0.76257  0.45510  Biso   1.000  O
  O13      1.0000 0.39535  0.25204  0.55414  Biso   1.000  O
  O14      1.0000 0.55725  0.51771  0.57331  Biso   1.000  O
  O15      1.0000 0.17477  0.19245  0.50586  Biso   1.000  O
  O16      1.0000 0.30834  0.01051  0.55686  Biso   1.000  O
  O17      1.0000 0.70183  0.70078  0.52731  Biso   1.000  O
  O18      1.0000 0.44865  0.73743  0.54490  Biso   1.000  O
  O19      1.0000 0.10465  0.74796  0.05414  Biso   1.000  O
  O20      1.0000 0.94275  0.48229  0.07331  Biso   1.000  O
  O21      1.0000 0.32523  0.80755  0.00586  Biso   1.000  O
  O22      1.0000 0.19166  0.98949  0.05686  Biso   1.000  O
  O23      1.0000 0.79817  0.29922  0.02731  Biso   1.000  O
  O24      1.0000 0.05135  0.26257  0.04490  Biso   1.000  O
