data_image0
_cell_length_a       9.7714
_cell_length_b       9.9797
_cell_length_c       22.9229
_cell_angle_alpha    90
_cell_angle_beta     91.535
_cell_angle_gamma    90

_symmetry_space_group_name_H-M    P 1
_symmetry_int_tables_number       1

loop_
  _symmetry_equiv_pos_as_xyz
  'x, y, z'

loop_
  _atom_site_label
  _atom_site_occupancy
  _atom_site_fract_x
  _atom_site_fract_y
  _atom_site_fract_z
  _atom_site_thermal_displace_type
  _atom_site_B_iso_or_equiv
  _atom_site_type_symbol
  Zn1      1.0000 0.10752  0.31796  0.01087  Biso   1.000  Zn
  Zn2      1.0000 0.34638  0.35883  0.50370  Biso   1.000  Zn
  Zn3      1.0000 0.39248  0.81796  0.98913  Biso   1.000  Zn
  Zn4      1.0000 0.15362  0.85883  0.49630  Biso   1.000  Zn
  Zn5      1.0000 0.89248  0.68204  0.98913  Biso   1.000  Zn
  Zn6      1.0000 0.65362  0.64117  0.49630  Biso   1.000  Zn
  Zn7      1.0000 0.60752  0.18204  0.01087  Biso   1.000  Zn
  Zn8      1.0000 0.84638  0.14117  0.50370  Biso   1.000  Zn
  P1       1.0000 0.63098  0.33706  0.44619  Biso   1.000  P
  P2       1.0000 0.82776  0.41251  0.05985  Biso   1.000  P
  P3       1.0000 0.86902  0.83706  0.55381  Biso   1.000  P
  P4       1.0000 0.67224  0.91251  0.94015  Biso   1.000  P
  P5       1.0000 0.36902  0.66294  0.55381  Biso   1.000  P
  P6       1.0000 0.17224  0.58749  0.94015  Biso   1.000  P
  P7       1.0000 0.13098  0.16294  0.44619  Biso   1.000  P
  P8       1.0000 0.32776  0.08749  0.05985  Biso   1.000  P
  H1       1.0000 0.51940  0.42170  0.60810  Biso   1.000  H
  H2       1.0000 0.66310  0.31690  0.67540  Biso   1.000  H
  H3       1.0000 0.54410  0.96080  0.60680  Biso   1.000  H
  H4       1.0000 0.39930  0.07430  0.54260  Biso   1.000  H
  H5       1.0000 0.80270  0.02840  0.66790  Biso   1.000  H
  H6       1.0000 0.67570  0.96640  0.70080  Biso   1.000  H
  H7       1.0000 0.80620  0.21250  0.73440  Biso   1.000  H
  H8       1.0000 0.68200  0.14580  0.76820  Biso   1.000  H
  H9       1.0000 0.82190  0.95690  0.79070  Biso   1.000  H
  H10      1.0000 0.94570  0.02480  0.75770  Biso   1.000  H
  H11      1.0000 0.80690  0.28130  0.83410  Biso   1.000  H
  H12      1.0000 0.89470  0.37110  0.92020  Biso   1.000  H
  H13      1.0000 0.03730  0.95170  0.86430  Biso   1.000  H
  H14      1.0000 0.12100  0.04960  0.94940  Biso   1.000  H
  H15      1.0000 0.67850  0.33515  0.39470  Biso   1.000  H
  H16      1.0000 0.78920  0.46570  0.10830  Biso   1.000  H
  H17      1.0000 0.98060  0.92170  0.39190  Biso   1.000  H
  H18      1.0000 0.83690  0.81690  0.32460  Biso   1.000  H
  H19      1.0000 0.95590  0.46080  0.39320  Biso   1.000  H
  H20      1.0000 0.10070  0.57430  0.45740  Biso   1.000  H
  H21      1.0000 0.69730  0.52840  0.33210  Biso   1.000  H
  H22      1.0000 0.82430  0.46640  0.29920  Biso   1.000  H
  H23      1.0000 0.69380  0.71250  0.26560  Biso   1.000  H
  H24      1.0000 0.81800  0.64580  0.23180  Biso   1.000  H
  H25      1.0000 0.67810  0.45690  0.20930  Biso   1.000  H
  H26      1.0000 0.55430  0.52480  0.24230  Biso   1.000  H
  H27      1.0000 0.69310  0.78130  0.16590  Biso   1.000  H
  H28      1.0000 0.60530  0.87110  0.07980  Biso   1.000  H
  H29      1.0000 0.46270  0.45170  0.13570  Biso   1.000  H
  H30      1.0000 0.37900  0.54960  0.05060  Biso   1.000  H
  H31      1.0000 0.82150  0.83515  0.60530  Biso   1.000  H
  H32      1.0000 0.71080  0.96570  0.89170  Biso   1.000  H
  H33      1.0000 0.48060  0.57830  0.39190  Biso   1.000  H
  H34      1.0000 0.33690  0.68310  0.32460  Biso   1.000  H
  H35      1.0000 0.45590  0.03920  0.39320  Biso   1.000  H
  H36      1.0000 0.60070  0.92570  0.45740  Biso   1.000  H
  H37      1.0000 0.19730  0.97160  0.33210  Biso   1.000  H
  H38      1.0000 0.32430  0.03360  0.29920  Biso   1.000  H
  H39      1.0000 0.19380  0.78750  0.26560  Biso   1.000  H
  H40      1.0000 0.31800  0.85420  0.23180  Biso   1.000  H
  H41      1.0000 0.17810  0.04310  0.20930  Biso   1.000  H
  H42      1.0000 0.05430  0.97520  0.24230  Biso   1.000  H
  H43      1.0000 0.19310  0.71870  0.16590  Biso   1.000  H
  H44      1.0000 0.10530  0.62890  0.07980  Biso   1.000  H
  H45      1.0000 0.96270  0.04830  0.13570  Biso   1.000  H
  H46      1.0000 0.87900  0.95040  0.05060  Biso   1.000  H
  H47      1.0000 0.32150  0.66485  0.60530  Biso   1.000  H
  H48      1.0000 0.21080  0.53430  0.89170  Biso   1.000  H
  H49      1.0000 0.01940  0.07830  0.60810  Biso   1.000  H
  H50      1.0000 0.16310  0.18310  0.67540  Biso   1.000  H
  H51      1.0000 0.04410  0.53920  0.60680  Biso   1.000  H
  H52      1.0000 0.89930  0.42570  0.54260  Biso   1.000  H
  H53      1.0000 0.30270  0.47160  0.66790  Biso   1.000  H
  H54      1.0000 0.17570  0.53360  0.70080  Biso   1.000  H
  H55      1.0000 0.30620  0.28750  0.73440  Biso   1.000  H
  H56      1.0000 0.18200  0.35420  0.76820  Biso   1.000  H
  H57      1.0000 0.32190  0.54310  0.79070  Biso   1.000  H
  H58      1.0000 0.44570  0.47520  0.75770  Biso   1.000  H
  H59      1.0000 0.30690  0.21870  0.83410  Biso   1.000  H
  H60      1.0000 0.39470  0.12890  0.92020  Biso   1.000  H
  H61      1.0000 0.53730  0.54830  0.86430  Biso   1.000  H
  H62      1.0000 0.62100  0.45040  0.94940  Biso   1.000  H
  H63      1.0000 0.17850  0.16485  0.39470  Biso   1.000  H
  H64      1.0000 0.28920  0.03430  0.10830  Biso   1.000  H
  C1       1.0000 0.52380  0.32664  0.60816  Biso   1.000  C
  C2       1.0000 0.61109  0.26475  0.64820  Biso   1.000  C
  C3       1.0000 0.62259  0.12532  0.64852  Biso   1.000  C
  C4       1.0000 0.54061  0.05587  0.60805  Biso   1.000  C
  C5       1.0000 0.45414  0.12421  0.56965  Biso   1.000  C
  C6       1.0000 0.71956  0.05155  0.68944  Biso   1.000  C
  C7       1.0000 0.76355  0.12615  0.74493  Biso   1.000  C
  C8       1.0000 0.86510  0.04385  0.78161  Biso   1.000  C
  C9       1.0000 0.91484  0.10673  0.83809  Biso   1.000  C
  C10      1.0000 0.87240  0.23210  0.85674  Biso   1.000  C
  C11      1.0000 0.92540  0.28532  0.90830  Biso   1.000  C
  C12      1.0000 0.00772  0.03900  0.87449  Biso   1.000  C
  C13      1.0000 0.05727  0.09781  0.92539  Biso   1.000  C
  C14      1.0000 0.97620  0.82664  0.39184  Biso   1.000  C
  C15      1.0000 0.88891  0.76475  0.35180  Biso   1.000  C
  C16      1.0000 0.87741  0.62532  0.35148  Biso   1.000  C
  C17      1.0000 0.95939  0.55587  0.39195  Biso   1.000  C
  C18      1.0000 0.04586  0.62421  0.43035  Biso   1.000  C
  C19      1.0000 0.78044  0.55155  0.31056  Biso   1.000  C
  C20      1.0000 0.73645  0.62615  0.25507  Biso   1.000  C
  C21      1.0000 0.63490  0.54385  0.21839  Biso   1.000  C
  C22      1.0000 0.58516  0.60673  0.16191  Biso   1.000  C
  C23      1.0000 0.62760  0.73210  0.14326  Biso   1.000  C
  C24      1.0000 0.57460  0.78532  0.09170  Biso   1.000  C
  C25      1.0000 0.49228  0.53900  0.12551  Biso   1.000  C
  C26      1.0000 0.44273  0.59781  0.07461  Biso   1.000  C
  C27      1.0000 0.47620  0.67336  0.39184  Biso   1.000  C
  C28      1.0000 0.38891  0.73525  0.35180  Biso   1.000  C
  C29      1.0000 0.37741  0.87468  0.35148  Biso   1.000  C
  C30      1.0000 0.45939  0.94413  0.39195  Biso   1.000  C
  C31      1.0000 0.54586  0.87579  0.43035  Biso   1.000  C
  C32      1.0000 0.28044  0.94845  0.31056  Biso   1.000  C
  C33      1.0000 0.23645  0.87385  0.25507  Biso   1.000  C
  C34      1.0000 0.13490  0.95615  0.21839  Biso   1.000  C
  C35      1.0000 0.08516  0.89327  0.16191  Biso   1.000  C
  C36      1.0000 0.12760  0.76790  0.14326  Biso   1.000  C
  C37      1.0000 0.07460  0.71468  0.09170  Biso   1.000  C
  C38      1.0000 0.99228  0.96100  0.12551  Biso   1.000  C
  C39      1.0000 0.94273  0.90219  0.07461  Biso   1.000  C
  C40      1.0000 0.02380  0.17336  0.60816  Biso   1.000  C
  C41      1.0000 0.11109  0.23525  0.64820  Biso   1.000  C
  C42      1.0000 0.12259  0.37468  0.64852  Biso   1.000  C
  C43      1.0000 0.04061  0.44413  0.60805  Biso   1.000  C
  C44      1.0000 0.95414  0.37579  0.56965  Biso   1.000  C
  C45      1.0000 0.21956  0.44845  0.68944  Biso   1.000  C
  C46      1.0000 0.26355  0.37385  0.74493  Biso   1.000  C
  C47      1.0000 0.36510  0.45615  0.78161  Biso   1.000  C
  C48      1.0000 0.41484  0.39327  0.83809  Biso   1.000  C
  C49      1.0000 0.37240  0.26790  0.85674  Biso   1.000  C
  C50      1.0000 0.42540  0.21468  0.90830  Biso   1.000  C
  C51      1.0000 0.50772  0.46100  0.87449  Biso   1.000  C
  C52      1.0000 0.55727  0.40219  0.92539  Biso   1.000  C
  N1       1.0000 0.44487  0.25909  0.56921  Biso   1.000  N
  N2       1.0000 0.01817  0.22139  0.94222  Biso   1.000  N
  N3       1.0000 0.05513  0.75909  0.43079  Biso   1.000  N
  N4       1.0000 0.48183  0.72139  0.05778  Biso   1.000  N
  N5       1.0000 0.55513  0.74091  0.43079  Biso   1.000  N
  N6       1.0000 0.98183  0.77861  0.05778  Biso   1.000  N
  N7       1.0000 0.94487  0.24091  0.56921  Biso   1.000  N
  N8       1.0000 0.51817  0.27861  0.94222  Biso   1.000  N
  O1       1.0000 0.97885  0.37699  0.06909  Biso   1.000  O
  O2       1.0000 0.47449  0.34724  0.43883  Biso   1.000  O
  O3       1.0000 0.67393  0.20684  0.47479  Biso   1.000  O
  O4       1.0000 0.69313  0.45840  0.47651  Biso   1.000  O
  O5       1.0000 0.74016  0.29139  0.05027  Biso   1.000  O
  O6       1.0000 0.80405  0.51806  0.01308  Biso   1.000  O
  O7       1.0000 0.52115  0.87699  0.93091  Biso   1.000  O
  O8       1.0000 0.02551  0.84724  0.56117  Biso   1.000  O
  O9       1.0000 0.82607  0.70684  0.52521  Biso   1.000  O
  O10      1.0000 0.80687  0.95840  0.52349  Biso   1.000  O
  O11      1.0000 0.75984  0.79139  0.94973  Biso   1.000  O
  O12      1.0000 0.69595  0.01806  0.98692  Biso   1.000  O
  O13      1.0000 0.02115  0.62301  0.93091  Biso   1.000  O
  O14      1.0000 0.52551  0.65276  0.56117  Biso   1.000  O
  O15      1.0000 0.32607  0.79316  0.52521  Biso   1.000  O
  O16      1.0000 0.30687  0.54160  0.52349  Biso   1.000  O
  O17      1.0000 0.25984  0.70861  0.94973  Biso   1.000  O
  O18      1.0000 0.19595  0.48194  0.98692  Biso   1.000  O
  O19      1.0000 0.47885  0.12301  0.06909  Biso   1.000  O
  O20      1.0000 0.97449  0.15276  0.43883  Biso   1.000  O
  O21      1.0000 0.17393  0.29316  0.47479  Biso   1.000  O
  O22      1.0000 0.19313  0.04160  0.47651  Biso   1.000  O
  O23      1.0000 0.24016  0.20861  0.05027  Biso   1.000  O
  O24      1.0000 0.30405  0.98194  0.01308  Biso   1.000  O
