data_image0
_cell_length_a       11.7026
_cell_length_b       11.7026
_cell_length_c       9.2233
_cell_angle_alpha    90
_cell_angle_beta     90
_cell_angle_gamma    90

_symmetry_space_group_name_H-M    "P 1"
_symmetry_int_tables_number       1

loop_
  _symmetry_equiv_pos_as_xyz
  'x, y, z'

loop_
  _atom_site_label
  _atom_site_occupancy
  _atom_site_fract_x
  _atom_site_fract_y
  _atom_site_fract_z
  _atom_site_thermal_displace_type
  _atom_site_B_iso_or_equiv
  _atom_site_type_symbol
  Bi1      1.0000 0.50000  0.25000  0.62500  Biso   1.000  Bi
  Bi2      1.0000 0.00000  0.75000  0.12500  Biso   1.000  Bi
  Bi3      1.0000 0.00000  0.25000  0.87500  Biso   1.000  Bi
  Bi4      1.0000 0.50000  0.75000  0.37500  Biso   1.000  Bi
  O1       1.0000 0.50000  0.13000  0.40820  Biso   1.000  O
  O2       1.0000 0.50000  0.95230  0.32130  Biso   1.000  O
  C1       1.0000 0.50000  0.02450  0.42230  Biso   1.000  C
  O3       1.0000 0.00000  0.63000  0.90820  Biso   1.000  O
  O4       1.0000 0.00000  0.45230  0.82130  Biso   1.000  O
  C2       1.0000 0.00000  0.52450  0.92230  Biso   1.000  C
  O5       1.0000 0.00000  0.87000  0.90820  Biso   1.000  O
  O6       1.0000 0.00000  0.04770  0.82130  Biso   1.000  O
  C3       1.0000 0.00000  0.97550  0.92230  Biso   1.000  C
  O7       1.0000 0.50000  0.37000  0.40820  Biso   1.000  O
  O8       1.0000 0.50000  0.54770  0.32130  Biso   1.000  O
  C4       1.0000 0.50000  0.47550  0.42230  Biso   1.000  C
  O9       1.0000 0.12000  0.25000  0.65820  Biso   1.000  O
  O10      1.0000 0.29770  0.25000  0.57130  Biso   1.000  O
  C5       1.0000 0.22550  0.25000  0.67230  Biso   1.000  C
  O11      1.0000 0.38000  0.75000  0.15820  Biso   1.000  O
  O12      1.0000 0.20230  0.75000  0.07130  Biso   1.000  O
  C6       1.0000 0.27450  0.75000  0.17230  Biso   1.000  C
  O13      1.0000 0.00000  0.13000  0.09180  Biso   1.000  O
  O14      1.0000 0.00000  0.95230  0.17870  Biso   1.000  O
  C7       1.0000 0.00000  0.02450  0.07770  Biso   1.000  C
  O15      1.0000 0.50000  0.63000  0.59180  Biso   1.000  O
  O16      1.0000 0.50000  0.45230  0.67870  Biso   1.000  O
  C8       1.0000 0.50000  0.52450  0.57770  Biso   1.000  C
  O17      1.0000 0.50000  0.87000  0.59180  Biso   1.000  O
  O18      1.0000 0.50000  0.04770  0.67870  Biso   1.000  O
  C9       1.0000 0.50000  0.97550  0.57770  Biso   1.000  C
  O19      1.0000 0.00000  0.37000  0.09180  Biso   1.000  O
  O20      1.0000 0.00000  0.54770  0.17870  Biso   1.000  O
  C10      1.0000 0.00000  0.47550  0.07770  Biso   1.000  C
  O21      1.0000 0.38000  0.25000  0.84180  Biso   1.000  O
  O22      1.0000 0.20230  0.25000  0.92870  Biso   1.000  O
  C11      1.0000 0.27450  0.25000  0.82770  Biso   1.000  C
  O23      1.0000 0.12000  0.75000  0.34180  Biso   1.000  O
  O24      1.0000 0.29770  0.75000  0.42870  Biso   1.000  O
  C12      1.0000 0.22550  0.75000  0.32770  Biso   1.000  C
  O25      1.0000 0.88000  0.75000  0.34180  Biso   1.000  O
  O26      1.0000 0.70230  0.75000  0.42870  Biso   1.000  O
  C13      1.0000 0.77450  0.75000  0.32770  Biso   1.000  C
  O27      1.0000 0.62000  0.25000  0.84180  Biso   1.000  O
  O28      1.0000 0.79770  0.25000  0.92870  Biso   1.000  O
  C14      1.0000 0.72550  0.25000  0.82770  Biso   1.000  C
  O29      1.0000 0.62000  0.75000  0.15820  Biso   1.000  O
  O30      1.0000 0.79770  0.75000  0.07130  Biso   1.000  O
  C15      1.0000 0.72550  0.75000  0.17230  Biso   1.000  C
  O31      1.0000 0.88000  0.25000  0.65820  Biso   1.000  O
  O32      1.0000 0.70230  0.25000  0.57130  Biso   1.000  O
  C16      1.0000 0.77450  0.25000  0.67230  Biso   1.000  C
