data_image0
_cell_length_a       20.1319
_cell_length_b       20.1319
_cell_length_c       20.42
_cell_angle_alpha    61.4721
_cell_angle_beta     61.4721
_cell_angle_gamma    65.3388

_symmetry_space_group_name_H-M    P 1
_symmetry_int_tables_number       1

loop_
  _symmetry_equiv_pos_as_xyz
  'x, y, z'

loop_
  _atom_site_label
  _atom_site_occupancy
  _atom_site_fract_x
  _atom_site_fract_y
  _atom_site_fract_z
  _atom_site_thermal_displace_type
  _atom_site_B_iso_or_equiv
  _atom_site_type_symbol
  Zn1      1.0000 0.82463  0.35333  0.01605  Biso   1.000  Zn
  Zn2      1.0000 0.95604  0.42748  0.91856  Biso   1.000  Zn
  Zn3      1.0000 0.35333  0.82463  0.51605  Biso   1.000  Zn
  Zn4      1.0000 0.42748  0.95604  0.41856  Biso   1.000  Zn
  H1       1.0000 0.68160  0.49400  0.85920  Biso   1.000  H
  H2       1.0000 0.83840  0.61760  0.77000  Biso   1.000  H
  H3       1.0000 0.77630  0.71570  0.68470  Biso   1.000  H
  H4       1.0000 0.68590  0.81010  0.59390  Biso   1.000  H
  H5       1.0000 0.59430  0.86950  0.53170  Biso   1.000  H
  H6       1.0000 0.49460  0.68880  0.66940  Biso   1.000  H
  H7       1.0000 0.56190  0.53570  0.72970  Biso   1.000  H
  H8       1.0000 0.62000  0.48300  0.77620  Biso   1.000  H
  H9       1.0000 0.65070  0.53470  0.68640  Biso   1.000  H
  H10      1.0000 0.47650  0.60530  0.82790  Biso   1.000  H
  H11      1.0000 0.51190  0.64870  0.84540  Biso   1.000  H
  H12      1.0000 0.52960  0.55740  0.88020  Biso   1.000  H
  H13      1.0000 0.29130  0.09130  0.25640  Biso   1.000  H
  H14      1.0000 0.18040  0.92080  0.41320  Biso   1.000  H
  H15      1.0000 0.08860  0.97720  0.35550  Biso   1.000  H
  H16      1.0000 0.99320  0.07120  0.27020  Biso   1.000  H
  H17      1.0000 0.93020  0.16420  0.18340  Biso   1.000  H
  H18      1.0000 0.10300  0.27500  0.06790  Biso   1.000  H
  H19      1.0000 0.23420  0.24140  0.18170  Biso   1.000  H
  H20      1.0000 0.17460  0.29260  0.13690  Biso   1.000  H
  H21      1.0000 0.14460  0.24840  0.22900  Biso   1.000  H
  H22      1.0000 0.30740  0.16280  0.09450  Biso   1.000  H
  H23      1.0000 0.26580  0.11820  0.08590  Biso   1.000  H
  H24      1.0000 0.25150  0.20910  0.04530  Biso   1.000  H
  H25      1.0000 0.56490  0.98870  0.40510  Biso   1.000  H
  H26      1.0000 0.64750  0.06950  0.32170  Biso   1.000  H
  H27      1.0000 0.51820  0.18140  0.18610  Biso   1.000  H
  H28      1.0000 0.44220  0.09460  0.26950  Biso   1.000  H
  H29      1.0000 0.67060  0.19060  0.27190  Biso   1.000  H
  H30      1.0000 0.75290  0.27130  0.18580  Biso   1.000  H
  H31      1.0000 0.71140  0.29920  0.00930  Biso   1.000  H
  H32      1.0000 0.63510  0.21050  0.08800  Biso   1.000  H
  H33      1.0000 0.49400  0.68160  0.35920  Biso   1.000  H
  H34      1.0000 0.61760  0.83840  0.27000  Biso   1.000  H
  H35      1.0000 0.71570  0.77630  0.18470  Biso   1.000  H
  H36      1.0000 0.81010  0.68590  0.09390  Biso   1.000  H
  H37      1.0000 0.86950  0.59430  0.03170  Biso   1.000  H
  H38      1.0000 0.68880  0.49460  0.16940  Biso   1.000  H
  H39      1.0000 0.53570  0.56190  0.22970  Biso   1.000  H
  H40      1.0000 0.48300  0.62000  0.27620  Biso   1.000  H
  H41      1.0000 0.53470  0.65070  0.18640  Biso   1.000  H
  H42      1.0000 0.60530  0.47650  0.32790  Biso   1.000  H
  H43      1.0000 0.64870  0.51190  0.34540  Biso   1.000  H
  H44      1.0000 0.55740  0.52960  0.38020  Biso   1.000  H
  H45      1.0000 0.09130  0.29130  0.75640  Biso   1.000  H
  H46      1.0000 0.92080  0.18040  0.91320  Biso   1.000  H
  H47      1.0000 0.97720  0.08860  0.85550  Biso   1.000  H
  H48      1.0000 0.07120  0.99320  0.77020  Biso   1.000  H
  H49      1.0000 0.16420  0.93020  0.68340  Biso   1.000  H
  H50      1.0000 0.27500  0.10300  0.56790  Biso   1.000  H
  H51      1.0000 0.24140  0.23420  0.68170  Biso   1.000  H
  H52      1.0000 0.29260  0.17460  0.63690  Biso   1.000  H
  H53      1.0000 0.24840  0.14460  0.72900  Biso   1.000  H
  H54      1.0000 0.16280  0.30740  0.59450  Biso   1.000  H
  H55      1.0000 0.11820  0.26580  0.58590  Biso   1.000  H
  H56      1.0000 0.20910  0.25150  0.54530  Biso   1.000  H
  H57      1.0000 0.98870  0.56490  0.90510  Biso   1.000  H
  H58      1.0000 0.06950  0.64750  0.82170  Biso   1.000  H
  H59      1.0000 0.18140  0.51820  0.68610  Biso   1.000  H
  H60      1.0000 0.09460  0.44220  0.76950  Biso   1.000  H
  H61      1.0000 0.19060  0.67060  0.77190  Biso   1.000  H
  H62      1.0000 0.27130  0.75290  0.68580  Biso   1.000  H
  H63      1.0000 0.29920  0.71140  0.50930  Biso   1.000  H
  H64      1.0000 0.21050  0.63510  0.58800  Biso   1.000  H
  C1       1.0000 0.70100  0.53780  0.82310  Biso   1.000  C
  C2       1.0000 0.76790  0.54630  0.82190  Biso   1.000  C
  C3       1.0000 0.79450  0.61250  0.76990  Biso   1.000  C
  C4       1.0000 0.75820  0.67080  0.71850  Biso   1.000  C
  C5       1.0000 0.64820  0.78560  0.60850  Biso   1.000  C
  C6       1.0000 0.59310  0.82070  0.57160  Biso   1.000  C
  C7       1.0000 0.53650  0.78490  0.59280  Biso   1.000  C
  C8       1.0000 0.53310  0.71270  0.65390  Biso   1.000  C
  C9       1.0000 0.59350  0.59910  0.76030  Biso   1.000  C
  C10      1.0000 0.66520  0.59540  0.77020  Biso   1.000  C
  C11      1.0000 0.69350  0.66270  0.71690  Biso   1.000  C
  C12      1.0000 0.64530  0.71310  0.66740  Biso   1.000  C
  C13      1.0000 0.58630  0.67750  0.69080  Biso   1.000  C
  C14      1.0000 0.60790  0.53190  0.73590  Biso   1.000  C
  C15      1.0000 0.52100  0.60300  0.83550  Biso   1.000  C
  C16      1.0000 0.80860  0.48460  0.87830  Biso   1.000  C
  C17      1.0000 0.47940  0.82380  0.55060  Biso   1.000  C
  C18      1.0000 0.25100  0.06840  0.27490  Biso   1.000  C
  C19      1.0000 0.24480  0.99920  0.34110  Biso   1.000  C
  C20      1.0000 0.18400  0.96680  0.36940  Biso   1.000  C
  C21      1.0000 0.12940  0.00000  0.33520  Biso   1.000  C
  C22      1.0000 0.01460  0.11260  0.22980  Biso   1.000  C
  C23      1.0000 0.97720  0.16780  0.17790  Biso   1.000  C
  C24      1.0000 0.00930  0.23010  0.11630  Biso   1.000  C
  C25      1.0000 0.08060  0.23440  0.10880  Biso   1.000  C
  C26      1.0000 0.19230  0.17490  0.16540  Biso   1.000  C
  C27      1.0000 0.19790  0.10170  0.23810  Biso   1.000  C
  C28      1.0000 0.13450  0.06870  0.26910  Biso   1.000  C
  C29      1.0000 0.08410  0.11790  0.22260  Biso   1.000  C
  C30      1.0000 0.11700  0.17940  0.16150  Biso   1.000  C
  C31      1.0000 0.18580  0.24600  0.17960  Biso   1.000  C
  C32      1.0000 0.26060  0.16540  0.09090  Biso   1.000  C
  C33      1.0000 0.30320  0.96240  0.38260  Biso   1.000  C
  C34      1.0000 0.96740  0.29120  0.06060  Biso   1.000  C
  C35      1.0000 0.55570  0.02770  0.35940  Biso   1.000  C
  C36      1.0000 0.60540  0.07660  0.30970  Biso   1.000  C
  C37      1.0000 0.59280  0.13500  0.24350  Biso   1.000  C
  C38      1.0000 0.52990  0.14150  0.23010  Biso   1.000  C
  C39      1.0000 0.48380  0.08960  0.28110  Biso   1.000  C
  C40      1.0000 0.64460  0.18860  0.19070  Biso   1.000  C
  C41      1.0000 0.67980  0.20940  0.21770  Biso   1.000  C
  C42      1.0000 0.72930  0.25850  0.16530  Biso   1.000  C
  C43      1.0000 0.70640  0.27360  0.06270  Biso   1.000  C
  C44      1.0000 0.65810  0.22210  0.11030  Biso   1.000  C
  C45      1.0000 0.53780  0.70100  0.32310  Biso   1.000  C
  C46      1.0000 0.54630  0.76790  0.32190  Biso   1.000  C
  C47      1.0000 0.61250  0.79450  0.26990  Biso   1.000  C
  C48      1.0000 0.67080  0.75820  0.21850  Biso   1.000  C
  C49      1.0000 0.78560  0.64820  0.10850  Biso   1.000  C
  C50      1.0000 0.82070  0.59310  0.07160  Biso   1.000  C
  C51      1.0000 0.78490  0.53650  0.09280  Biso   1.000  C
  C52      1.0000 0.71270  0.53310  0.15390  Biso   1.000  C
  C53      1.0000 0.59910  0.59350  0.26030  Biso   1.000  C
  C54      1.0000 0.59540  0.66520  0.27020  Biso   1.000  C
  C55      1.0000 0.66270  0.69350  0.21690  Biso   1.000  C
  C56      1.0000 0.71310  0.64530  0.16740  Biso   1.000  C
  C57      1.0000 0.67750  0.58630  0.19080  Biso   1.000  C
  C58      1.0000 0.53190  0.60790  0.23590  Biso   1.000  C
  C59      1.0000 0.60300  0.52100  0.33550  Biso   1.000  C
  C60      1.0000 0.48460  0.80860  0.37830  Biso   1.000  C
  C61      1.0000 0.82380  0.47940  0.05060  Biso   1.000  C
  C62      1.0000 0.06840  0.25100  0.77490  Biso   1.000  C
  C63      1.0000 0.99920  0.24480  0.84110  Biso   1.000  C
  C64      1.0000 0.96680  0.18400  0.86940  Biso   1.000  C
  C65      1.0000 0.00000  0.12940  0.83520  Biso   1.000  C
  C66      1.0000 0.11260  0.01460  0.72980  Biso   1.000  C
  C67      1.0000 0.16780  0.97720  0.67790  Biso   1.000  C
  C68      1.0000 0.23010  0.00930  0.61630  Biso   1.000  C
  C69      1.0000 0.23440  0.08060  0.60880  Biso   1.000  C
  C70      1.0000 0.17490  0.19230  0.66540  Biso   1.000  C
  C71      1.0000 0.10170  0.19790  0.73810  Biso   1.000  C
  C72      1.0000 0.06870  0.13450  0.76910  Biso   1.000  C
  C73      1.0000 0.11790  0.08410  0.72260  Biso   1.000  C
  C74      1.0000 0.17940  0.11700  0.66150  Biso   1.000  C
  C75      1.0000 0.24600  0.18580  0.67960  Biso   1.000  C
  C76      1.0000 0.16540  0.26060  0.59090  Biso   1.000  C
  C77      1.0000 0.96240  0.30320  0.88260  Biso   1.000  C
  C78      1.0000 0.29120  0.96740  0.56060  Biso   1.000  C
  C79      1.0000 0.02770  0.55570  0.85940  Biso   1.000  C
  C80      1.0000 0.07660  0.60540  0.80970  Biso   1.000  C
  C81      1.0000 0.13500  0.59280  0.74350  Biso   1.000  C
  C82      1.0000 0.14150  0.52990  0.73010  Biso   1.000  C
  C83      1.0000 0.08960  0.48380  0.78110  Biso   1.000  C
  C84      1.0000 0.18860  0.64460  0.69070  Biso   1.000  C
  C85      1.0000 0.20940  0.67980  0.71770  Biso   1.000  C
  C86      1.0000 0.25850  0.72930  0.66530  Biso   1.000  C
  C87      1.0000 0.27360  0.70640  0.56270  Biso   1.000  C
  C88      1.0000 0.22210  0.65810  0.61030  Biso   1.000  C
  N1       1.0000 0.49576  0.03336  0.34530  Biso   1.000  N
  N2       1.0000 0.74472  0.28772  0.08900  Biso   1.000  N
  N3       1.0000 0.03336  0.49576  0.84530  Biso   1.000  N
  N4       1.0000 0.28772  0.74472  0.58900  Biso   1.000  N
  O1       1.0000 0.77431  0.43211  0.93430  Biso   1.000  O
  O2       1.0000 0.87271  0.48971  0.86730  Biso   1.000  O
  O3       1.0000 0.48331  0.89031  0.49880  Biso   1.000  O
  O4       1.0000 0.43242  0.78722  0.56920  Biso   1.000  O
  O5       1.0000 0.35427  0.99587  0.35890  Biso   1.000  O
  O6       1.0000 0.29615  0.89835  0.43810  Biso   1.000  O
  O7       1.0000 0.00274  0.33974  0.00100  Biso   1.000  O
  O8       1.0000 0.89899  0.28959  0.07930  Biso   1.000  O
  O9       1.0000 0.43211  0.77431  0.43430  Biso   1.000  O
  O10      1.0000 0.48971  0.87271  0.36730  Biso   1.000  O
  O11      1.0000 0.89031  0.48331  0.99880  Biso   1.000  O
  O12      1.0000 0.78722  0.43242  0.06920  Biso   1.000  O
  O13      1.0000 0.99587  0.35427  0.85890  Biso   1.000  O
  O14      1.0000 0.89835  0.29615  0.93810  Biso   1.000  O
  O15      1.0000 0.33974  0.00274  0.50100  Biso   1.000  O
  O16      1.0000 0.28959  0.89899  0.57930  Biso   1.000  O
  Zn5      1.0000 0.64667  0.17537  0.48395  Biso   1.000  Zn
  Zn6      1.0000 0.57252  0.04396  0.58144  Biso   1.000  Zn
  Zn7      1.0000 0.17537  0.64667  0.98395  Biso   1.000  Zn
  Zn8      1.0000 0.04396  0.57252  0.08144  Biso   1.000  Zn
  H65      1.0000 0.50600  0.31840  0.64080  Biso   1.000  H
  H66      1.0000 0.38240  0.16160  0.73000  Biso   1.000  H
  H67      1.0000 0.28430  0.22370  0.81530  Biso   1.000  H
  H68      1.0000 0.18990  0.31410  0.90610  Biso   1.000  H
  H69      1.0000 0.13050  0.40570  0.96830  Biso   1.000  H
  H70      1.0000 0.31120  0.50540  0.83060  Biso   1.000  H
  H71      1.0000 0.46430  0.43810  0.77030  Biso   1.000  H
  H72      1.0000 0.51700  0.38000  0.72380  Biso   1.000  H
  H73      1.0000 0.46530  0.34930  0.81360  Biso   1.000  H
  H74      1.0000 0.39470  0.52350  0.67210  Biso   1.000  H
  H75      1.0000 0.35130  0.48810  0.65460  Biso   1.000  H
  H76      1.0000 0.44260  0.47040  0.61980  Biso   1.000  H
  H77      1.0000 0.90870  0.70870  0.24360  Biso   1.000  H
  H78      1.0000 0.07920  0.81960  0.08680  Biso   1.000  H
  H79      1.0000 0.02280  0.91140  0.14450  Biso   1.000  H
  H80      1.0000 0.92880  0.00680  0.22980  Biso   1.000  H
  H81      1.0000 0.83580  0.06980  0.31660  Biso   1.000  H
  H82      1.0000 0.72500  0.89700  0.43210  Biso   1.000  H
  H83      1.0000 0.75860  0.76580  0.31830  Biso   1.000  H
  H84      1.0000 0.70740  0.82540  0.36310  Biso   1.000  H
  H85      1.0000 0.75160  0.85540  0.27100  Biso   1.000  H
  H86      1.0000 0.83720  0.69260  0.40550  Biso   1.000  H
  H87      1.0000 0.88180  0.73420  0.41410  Biso   1.000  H
  H88      1.0000 0.79090  0.74850  0.45470  Biso   1.000  H
  H89      1.0000 0.01130  0.43510  0.09490  Biso   1.000  H
  H90      1.0000 0.93050  0.35250  0.17830  Biso   1.000  H
  H91      1.0000 0.81860  0.48180  0.31390  Biso   1.000  H
  H92      1.0000 0.90540  0.55780  0.23050  Biso   1.000  H
  H93      1.0000 0.80940  0.32940  0.22810  Biso   1.000  H
  H94      1.0000 0.72870  0.24710  0.31420  Biso   1.000  H
  H95      1.0000 0.70080  0.28860  0.49070  Biso   1.000  H
  H96      1.0000 0.78950  0.36490  0.41200  Biso   1.000  H
  H97      1.0000 0.31840  0.50600  0.14080  Biso   1.000  H
  H98      1.0000 0.16160  0.38240  0.23000  Biso   1.000  H
  H99      1.0000 0.22370  0.28430  0.31530  Biso   1.000  H
  H100     1.0000 0.31410  0.18990  0.40610  Biso   1.000  H
  H101     1.0000 0.40570  0.13050  0.46830  Biso   1.000  H
  H102     1.0000 0.50540  0.31120  0.33060  Biso   1.000  H
  H103     1.0000 0.43810  0.46430  0.27030  Biso   1.000  H
  H104     1.0000 0.38000  0.51700  0.22380  Biso   1.000  H
  H105     1.0000 0.34930  0.46530  0.31360  Biso   1.000  H
  H106     1.0000 0.52350  0.39470  0.17210  Biso   1.000  H
  H107     1.0000 0.48810  0.35130  0.15460  Biso   1.000  H
  H108     1.0000 0.47040  0.44260  0.11980  Biso   1.000  H
  H109     1.0000 0.70870  0.90870  0.74360  Biso   1.000  H
  H110     1.0000 0.81960  0.07920  0.58680  Biso   1.000  H
  H111     1.0000 0.91140  0.02280  0.64450  Biso   1.000  H
  H112     1.0000 0.00680  0.92880  0.72980  Biso   1.000  H
  H113     1.0000 0.06980  0.83580  0.81660  Biso   1.000  H
  H114     1.0000 0.89700  0.72500  0.93210  Biso   1.000  H
  H115     1.0000 0.76580  0.75860  0.81830  Biso   1.000  H
  H116     1.0000 0.82540  0.70740  0.86310  Biso   1.000  H
  H117     1.0000 0.85540  0.75160  0.77100  Biso   1.000  H
  H118     1.0000 0.69260  0.83720  0.90550  Biso   1.000  H
  H119     1.0000 0.73420  0.88180  0.91410  Biso   1.000  H
  H120     1.0000 0.74850  0.79090  0.95470  Biso   1.000  H
  H121     1.0000 0.43510  0.01130  0.59490  Biso   1.000  H
  H122     1.0000 0.35250  0.93050  0.67830  Biso   1.000  H
  H123     1.0000 0.48180  0.81860  0.81390  Biso   1.000  H
  H124     1.0000 0.55780  0.90540  0.73050  Biso   1.000  H
  H125     1.0000 0.32940  0.80940  0.72810  Biso   1.000  H
  H126     1.0000 0.24710  0.72870  0.81420  Biso   1.000  H
  H127     1.0000 0.28860  0.70080  0.99070  Biso   1.000  H
  H128     1.0000 0.36490  0.78950  0.91200  Biso   1.000  H
  C89      1.0000 0.46220  0.29900  0.67690  Biso   1.000  C
  C90      1.0000 0.45370  0.23210  0.67810  Biso   1.000  C
  C91      1.0000 0.38750  0.20550  0.73010  Biso   1.000  C
  C92      1.0000 0.32920  0.24180  0.78150  Biso   1.000  C
  C93      1.0000 0.21440  0.35180  0.89150  Biso   1.000  C
  C94      1.0000 0.17930  0.40690  0.92840  Biso   1.000  C
  C95      1.0000 0.21510  0.46350  0.90720  Biso   1.000  C
  C96      1.0000 0.28730  0.46690  0.84610  Biso   1.000  C
  C97      1.0000 0.40090  0.40650  0.73970  Biso   1.000  C
  C98      1.0000 0.40460  0.33480  0.72980  Biso   1.000  C
  C99      1.0000 0.33730  0.30650  0.78310  Biso   1.000  C
  C100     1.0000 0.28690  0.35470  0.83260  Biso   1.000  C
  C101     1.0000 0.32250  0.41370  0.80920  Biso   1.000  C
  C102     1.0000 0.46810  0.39210  0.76410  Biso   1.000  C
  C103     1.0000 0.39700  0.47900  0.66450  Biso   1.000  C
  C104     1.0000 0.51540  0.19140  0.62170  Biso   1.000  C
  C105     1.0000 0.17620  0.52060  0.94940  Biso   1.000  C
  C106     1.0000 0.93160  0.74900  0.22510  Biso   1.000  C
  C107     1.0000 0.00080  0.75520  0.15890  Biso   1.000  C
  C108     1.0000 0.03320  0.81600  0.13060  Biso   1.000  C
  C109     1.0000 0.00000  0.87060  0.16480  Biso   1.000  C
  C110     1.0000 0.88740  0.98540  0.27020  Biso   1.000  C
  C111     1.0000 0.83220  0.02280  0.32210  Biso   1.000  C
  C112     1.0000 0.76990  0.99070  0.38370  Biso   1.000  C
  C113     1.0000 0.76560  0.91940  0.39120  Biso   1.000  C
  C114     1.0000 0.82510  0.80770  0.33460  Biso   1.000  C
  C115     1.0000 0.89830  0.80210  0.26190  Biso   1.000  C
  C116     1.0000 0.93130  0.86550  0.23090  Biso   1.000  C
  C117     1.0000 0.88210  0.91590  0.27740  Biso   1.000  C
  C118     1.0000 0.82060  0.88300  0.33850  Biso   1.000  C
  C119     1.0000 0.75400  0.81420  0.32040  Biso   1.000  C
  C120     1.0000 0.83460  0.73940  0.40910  Biso   1.000  C
  C121     1.0000 0.03760  0.69680  0.11740  Biso   1.000  C
  C122     1.0000 0.70880  0.03260  0.43940  Biso   1.000  C
  C123     1.0000 0.97230  0.44430  0.14060  Biso   1.000  C
  C124     1.0000 0.92340  0.39460  0.19030  Biso   1.000  C
  C125     1.0000 0.86500  0.40720  0.25650  Biso   1.000  C
  C126     1.0000 0.85850  0.47010  0.26990  Biso   1.000  C
  C127     1.0000 0.91040  0.51620  0.21890  Biso   1.000  C
  C128     1.0000 0.81140  0.35540  0.30930  Biso   1.000  C
  C129     1.0000 0.79060  0.32020  0.28230  Biso   1.000  C
  C130     1.0000 0.74150  0.27070  0.33470  Biso   1.000  C
  C131     1.0000 0.72640  0.29360  0.43730  Biso   1.000  C
  C132     1.0000 0.77790  0.34190  0.38970  Biso   1.000  C
  C133     1.0000 0.29900  0.46220  0.17690  Biso   1.000  C
  C134     1.0000 0.23210  0.45370  0.17810  Biso   1.000  C
  C135     1.0000 0.20550  0.38750  0.23010  Biso   1.000  C
  C136     1.0000 0.24180  0.32920  0.28150  Biso   1.000  C
  C137     1.0000 0.35180  0.21440  0.39150  Biso   1.000  C
  C138     1.0000 0.40690  0.17930  0.42840  Biso   1.000  C
  C139     1.0000 0.46350  0.21510  0.40720  Biso   1.000  C
  C140     1.0000 0.46690  0.28730  0.34610  Biso   1.000  C
  C141     1.0000 0.40650  0.40090  0.23970  Biso   1.000  C
  C142     1.0000 0.33480  0.40460  0.22980  Biso   1.000  C
  C143     1.0000 0.30650  0.33730  0.28310  Biso   1.000  C
  C144     1.0000 0.35470  0.28690  0.33260  Biso   1.000  C
  C145     1.0000 0.41370  0.32250  0.30920  Biso   1.000  C
  C146     1.0000 0.39210  0.46810  0.26410  Biso   1.000  C
  C147     1.0000 0.47900  0.39700  0.16450  Biso   1.000  C
  C148     1.0000 0.19140  0.51540  0.12170  Biso   1.000  C
  C149     1.0000 0.52060  0.17620  0.44940  Biso   1.000  C
  C150     1.0000 0.74900  0.93160  0.72510  Biso   1.000  C
  C151     1.0000 0.75520  0.00080  0.65890  Biso   1.000  C
  C152     1.0000 0.81600  0.03320  0.63060  Biso   1.000  C
  C153     1.0000 0.87060  0.00000  0.66480  Biso   1.000  C
  C154     1.0000 0.98540  0.88740  0.77020  Biso   1.000  C
  C155     1.0000 0.02280  0.83220  0.82210  Biso   1.000  C
  C156     1.0000 0.99070  0.76990  0.88370  Biso   1.000  C
  C157     1.0000 0.91940  0.76560  0.89120  Biso   1.000  C
  C158     1.0000 0.80770  0.82510  0.83460  Biso   1.000  C
  C159     1.0000 0.80210  0.89830  0.76190  Biso   1.000  C
  C160     1.0000 0.86550  0.93130  0.73090  Biso   1.000  C
  C161     1.0000 0.91590  0.88210  0.77740  Biso   1.000  C
  C162     1.0000 0.88300  0.82060  0.83850  Biso   1.000  C
  C163     1.0000 0.81420  0.75400  0.82040  Biso   1.000  C
  C164     1.0000 0.73940  0.83460  0.90910  Biso   1.000  C
  C165     1.0000 0.69680  0.03760  0.61740  Biso   1.000  C
  C166     1.0000 0.03260  0.70880  0.93940  Biso   1.000  C
  C167     1.0000 0.44430  0.97230  0.64060  Biso   1.000  C
  C168     1.0000 0.39460  0.92340  0.69030  Biso   1.000  C
  C169     1.0000 0.40720  0.86500  0.75650  Biso   1.000  C
  C170     1.0000 0.47010  0.85850  0.76990  Biso   1.000  C
  C171     1.0000 0.51620  0.91040  0.71890  Biso   1.000  C
  C172     1.0000 0.35540  0.81140  0.80930  Biso   1.000  C
  C173     1.0000 0.32020  0.79060  0.78230  Biso   1.000  C
  C174     1.0000 0.27070  0.74150  0.83470  Biso   1.000  C
  C175     1.0000 0.29360  0.72640  0.93730  Biso   1.000  C
  C176     1.0000 0.34190  0.77790  0.88970  Biso   1.000  C
  N5       1.0000 0.96664  0.50424  0.15470  Biso   1.000  N
  N6       1.0000 0.71228  0.25528  0.41100  Biso   1.000  N
  N7       1.0000 0.50424  0.96664  0.65470  Biso   1.000  N
  N8       1.0000 0.25528  0.71228  0.91100  Biso   1.000  N
  O17      1.0000 0.56789  0.22569  0.56570  Biso   1.000  O
  O18      1.0000 0.51029  0.12729  0.63270  Biso   1.000  O
  O19      1.0000 0.10969  0.51669  0.00120  Biso   1.000  O
  O20      1.0000 0.21278  0.56758  0.93080  Biso   1.000  O
  O21      1.0000 0.00413  0.64573  0.14110  Biso   1.000  O
  O22      1.0000 0.10165  0.70385  0.06190  Biso   1.000  O
  O23      1.0000 0.66026  0.99726  0.49900  Biso   1.000  O
  O24      1.0000 0.71041  0.10101  0.42070  Biso   1.000  O
  O25      1.0000 0.22569  0.56789  0.06570  Biso   1.000  O
  O26      1.0000 0.12729  0.51029  0.13270  Biso   1.000  O
  O27      1.0000 0.51669  0.10969  0.50120  Biso   1.000  O
  O28      1.0000 0.56758  0.21278  0.43080  Biso   1.000  O
  O29      1.0000 0.64573  0.00413  0.64110  Biso   1.000  O
  O30      1.0000 0.70385  0.10165  0.56190  Biso   1.000  O
  O31      1.0000 0.99726  0.66026  0.99900  Biso   1.000  O
  O32      1.0000 0.10101  0.71041  0.92070  Biso   1.000  O
