data_image0
_cell_length_a       11.1832
_cell_length_b       18.5775
_cell_length_c       21.475
_cell_angle_alpha    94.6112
_cell_angle_beta     90
_cell_angle_gamma    107.517

_symmetry_space_group_name_H-M    P 1
_symmetry_int_tables_number       1

loop_
  _symmetry_equiv_pos_as_xyz
  'x, y, z'

loop_
  _atom_site_label
  _atom_site_occupancy
  _atom_site_fract_x
  _atom_site_fract_y
  _atom_site_fract_z
  _atom_site_thermal_displace_type
  _atom_site_B_iso_or_equiv
  _atom_site_type_symbol
  Co1      1.0000 0.24531  0.65196  0.23996  Biso   1.000  Co
  Co2      1.0000 0.17968  0.80454  0.18016  Biso   1.000  Co
  Co3      1.0000 0.68070  0.25744  0.37342  Biso   1.000  Co
  Co4      1.0000 0.74621  0.72104  0.56376  Biso   1.000  Co
  Co5      1.0000 0.68513  0.85940  0.50460  Biso   1.000  Co
  Co6      1.0000 0.59335  0.34804  0.26004  Biso   1.000  Co
  Co7      1.0000 0.37514  0.19546  0.31984  Biso   1.000  Co
  Co8      1.0000 0.42326  0.74256  0.12658  Biso   1.000  Co
  Co9      1.0000 0.02517  0.27896  0.93624  Biso   1.000  Co
  Co10     1.0000 0.82573  0.14060  0.99540  Biso   1.000  Co
  Co11     1.0000 0.75469  0.34804  0.76004  Biso   1.000  Co
  Co12     1.0000 0.82032  0.19546  0.81984  Biso   1.000  Co
  Co13     1.0000 0.31930  0.74256  0.62658  Biso   1.000  Co
  Co14     1.0000 0.25379  0.27896  0.43624  Biso   1.000  Co
  Co15     1.0000 0.31487  0.14060  0.49540  Biso   1.000  Co
  Co16     1.0000 0.40665  0.65196  0.73996  Biso   1.000  Co
  Co17     1.0000 0.62486  0.80454  0.68016  Biso   1.000  Co
  Co18     1.0000 0.57674  0.25744  0.87342  Biso   1.000  Co
  Co19     1.0000 0.97483  0.72104  0.06376  Biso   1.000  Co
  Co20     1.0000 0.17427  0.85940  0.00460  Biso   1.000  Co
  H1       1.0000 0.19830  0.67700  0.12990  Biso   1.000  H
  H2       1.0000 0.19470  0.75700  0.06930  Biso   1.000  H
  H3       1.0000 0.76890  0.87600  0.39070  Biso   1.000  H
  H4       1.0000 0.80050  0.95300  0.42300  Biso   1.000  H
  H5       1.0000 0.71520  0.46720  0.34040  Biso   1.000  H
  H6       1.0000 0.58300  0.46660  0.33910  Biso   1.000  H
  H7       1.0000 0.81370  0.96180  0.58910  Biso   1.000  H
  H8       1.0000 0.68060  0.95900  0.59630  Biso   1.000  H
  H9       1.0000 0.18180  0.65060  0.35630  Biso   1.000  H
  H10      1.0000 0.13470  0.57140  0.32870  Biso   1.000  H
  H11      1.0000 0.37920  0.96840  0.29800  Biso   1.000  H
  H12      1.0000 0.71630  0.04000  0.38970  Biso   1.000  H
  H13      1.0000 0.53960  0.81520  0.35480  Biso   1.000  H
  H14      1.0000 0.77010  0.70680  0.19490  Biso   1.000  H
  H15      1.0000 0.50600  0.53880  0.27120  Biso   1.000  H
  H16      1.0000 0.87300  0.55100  0.28590  Biso   1.000  H
  H17      1.0000 0.84090  0.20960  0.45860  Biso   1.000  H
  H18      1.0000 0.95350  0.04460  0.53000  Biso   1.000  H
  H19      1.0000 0.58970  0.04060  0.54050  Biso   1.000  H
  H20      1.0000 0.55640  0.54400  0.44480  Biso   1.000  H
  H21      1.0000 0.21520  0.48060  0.35720  Biso   1.000  H
  H22      1.0000 0.41220  0.70320  0.38570  Biso   1.000  H
  H23      1.0000 0.01300  0.87300  0.18500  Biso   1.000  H
  H24      1.0000 0.10840  0.91480  0.22700  Biso   1.000  H
  H25      1.0000 0.52130  0.32300  0.37010  Biso   1.000  H
  H26      1.0000 0.43770  0.24300  0.43070  Biso   1.000  H
  H27      1.0000 0.89290  0.12400  0.10930  Biso   1.000  H
  H28      1.0000 0.84750  0.04700  0.07700  Biso   1.000  H
  H29      1.0000 0.24800  0.53280  0.15960  Biso   1.000  H
  H30      1.0000 0.11640  0.53340  0.16090  Biso   1.000  H
  H31      1.0000 0.85190  0.03820  0.91090  Biso   1.000  H
  H32      1.0000 0.72160  0.04100  0.90370  Biso   1.000  H
  H33      1.0000 0.53120  0.34940  0.14370  Biso   1.000  H
  H34      1.0000 0.56330  0.42860  0.17130  Biso   1.000  H
  H35      1.0000 0.41080  0.03160  0.20200  Biso   1.000  H
  H36      1.0000 0.67630  0.96000  0.11030  Biso   1.000  H
  H37      1.0000 0.72440  0.18480  0.14520  Biso   1.000  H
  H38      1.0000 0.06330  0.29320  0.30510  Biso   1.000  H
  H39      1.0000 0.96720  0.46120  0.22880  Biso   1.000  H
  H40      1.0000 0.32200  0.44900  0.21410  Biso   1.000  H
  H41      1.0000 0.63130  0.79040  0.04140  Biso   1.000  H
  H42      1.0000 0.90890  0.95540  0.97000  Biso   1.000  H
  H43      1.0000 0.54910  0.95940  0.95950  Biso   1.000  H
  H44      1.0000 0.01240  0.45600  0.05520  Biso   1.000  H
  H45      1.0000 0.73460  0.51940  0.14280  Biso   1.000  H
  H46      1.0000 0.70900  0.29680  0.11430  Biso   1.000  H
  H47      1.0000 0.14000  0.12700  0.31500  Biso   1.000  H
  H48      1.0000 0.19360  0.08520  0.27300  Biso   1.000  H
  H49      1.0000 0.80170  0.32300  0.87010  Biso   1.000  H
  H50      1.0000 0.80530  0.24300  0.93070  Biso   1.000  H
  H51      1.0000 0.23110  0.12400  0.60930  Biso   1.000  H
  H52      1.0000 0.19950  0.04700  0.57700  Biso   1.000  H
  H53      1.0000 0.28480  0.53280  0.65960  Biso   1.000  H
  H54      1.0000 0.41700  0.53340  0.66090  Biso   1.000  H
  H55      1.0000 0.18630  0.03820  0.41090  Biso   1.000  H
  H56      1.0000 0.31940  0.04100  0.40370  Biso   1.000  H
  H57      1.0000 0.81820  0.34940  0.64370  Biso   1.000  H
  H58      1.0000 0.86530  0.42860  0.67130  Biso   1.000  H
  H59      1.0000 0.62080  0.03160  0.70200  Biso   1.000  H
  H60      1.0000 0.28370  0.96000  0.61030  Biso   1.000  H
  H61      1.0000 0.46040  0.18480  0.64520  Biso   1.000  H
  H62      1.0000 0.22990  0.29320  0.80510  Biso   1.000  H
  H63      1.0000 0.49400  0.46120  0.72880  Biso   1.000  H
  H64      1.0000 0.12700  0.44900  0.71410  Biso   1.000  H
  H65      1.0000 0.15910  0.79040  0.54140  Biso   1.000  H
  H66      1.0000 0.04650  0.95540  0.47000  Biso   1.000  H
  H67      1.0000 0.41030  0.95940  0.45950  Biso   1.000  H
  H68      1.0000 0.44360  0.45600  0.55520  Biso   1.000  H
  H69      1.0000 0.78480  0.51940  0.64280  Biso   1.000  H
  H70      1.0000 0.58780  0.29680  0.61430  Biso   1.000  H
  H71      1.0000 0.98700  0.12700  0.81500  Biso   1.000  H
  H72      1.0000 0.89160  0.08520  0.77300  Biso   1.000  H
  H73      1.0000 0.47870  0.67700  0.62990  Biso   1.000  H
  H74      1.0000 0.56230  0.75700  0.56930  Biso   1.000  H
  H75      1.0000 0.10710  0.87600  0.89070  Biso   1.000  H
  H76      1.0000 0.15250  0.95300  0.92300  Biso   1.000  H
  H77      1.0000 0.75200  0.46720  0.84040  Biso   1.000  H
  H78      1.0000 0.88360  0.46660  0.83910  Biso   1.000  H
  H79      1.0000 0.14810  0.96180  0.08910  Biso   1.000  H
  H80      1.0000 0.27840  0.95900  0.09630  Biso   1.000  H
  H81      1.0000 0.46880  0.65060  0.85630  Biso   1.000  H
  H82      1.0000 0.43670  0.57140  0.82870  Biso   1.000  H
  H83      1.0000 0.58920  0.96840  0.79800  Biso   1.000  H
  H84      1.0000 0.32370  0.04000  0.88970  Biso   1.000  H
  H85      1.0000 0.27560  0.81520  0.85480  Biso   1.000  H
  H86      1.0000 0.93670  0.70680  0.69490  Biso   1.000  H
  H87      1.0000 0.03280  0.53880  0.77120  Biso   1.000  H
  H88      1.0000 0.67800  0.55100  0.78590  Biso   1.000  H
  H89      1.0000 0.36870  0.20960  0.95860  Biso   1.000  H
  H90      1.0000 0.09110  0.04460  0.03000  Biso   1.000  H
  H91      1.0000 0.45090  0.04060  0.04050  Biso   1.000  H
  H92      1.0000 0.98760  0.54400  0.94480  Biso   1.000  H
  H93      1.0000 0.26540  0.48060  0.85720  Biso   1.000  H
  H94      1.0000 0.29100  0.70320  0.88570  Biso   1.000  H
  H95      1.0000 0.86000  0.87300  0.68500  Biso   1.000  H
  H96      1.0000 0.80640  0.91480  0.72700  Biso   1.000  H
  C1       1.0000 0.44327  0.88254  0.32240  Biso   1.000  C
  C2       1.0000 0.44648  0.95736  0.31810  Biso   1.000  C
  C3       1.0000 0.54822  0.01604  0.34310  Biso   1.000  C
  C4       1.0000 0.64676  0.99992  0.37250  Biso   1.000  C
  C5       1.0000 0.64355  0.92510  0.37690  Biso   1.000  C
  C6       1.0000 0.54181  0.86642  0.35180  Biso   1.000  C
  C7       1.0000 0.33598  0.81796  0.29290  Biso   1.000  C
  C8       1.0000 0.55108  0.09596  0.33990  Biso   1.000  C
  C9       1.0000 0.84139  0.63458  0.23850  Biso   1.000  C
  C10      1.0000 0.74829  0.66298  0.21760  Biso   1.000  C
  C11      1.0000 0.62333  0.62726  0.22980  Biso   1.000  C
  C12      1.0000 0.59137  0.56314  0.26290  Biso   1.000  C
  C13      1.0000 0.68447  0.53474  0.28380  Biso   1.000  C
  C14      1.0000 0.80942  0.57044  0.27160  Biso   1.000  C
  C15      1.0000 0.97775  0.67410  0.22600  Biso   1.000  C
  C16      1.0000 0.52007  0.65714  0.20860  Biso   1.000  C
  C17      1.0000 0.70038  0.13016  0.49770  Biso   1.000  C
  C18      1.0000 0.82211  0.16442  0.47940  Biso   1.000  C
  C19      1.0000 0.91645  0.13250  0.49140  Biso   1.000  C
  C20      1.0000 0.88897  0.06634  0.52180  Biso   1.000  C
  C21      1.0000 0.76724  0.03208  0.54010  Biso   1.000  C
  C22      1.0000 0.67289  0.06398  0.52800  Biso   1.000  C
  C23      1.0000 0.59387  0.16074  0.48300  Biso   1.000  C
  C24      1.0000 0.05019  0.16798  0.47390  Biso   1.000  C
  C25      1.0000 0.50117  0.63254  0.41890  Biso   1.000  C
  C26      1.0000 0.49079  0.55698  0.42490  Biso   1.000  C
  C27      1.0000 0.38418  0.50036  0.40190  Biso   1.000  C
  C28      1.0000 0.28806  0.51932  0.37290  Biso   1.000  C
  C29      1.0000 0.29844  0.59488  0.36680  Biso   1.000  C
  C30      1.0000 0.40505  0.65150  0.38980  Biso   1.000  C
  C31      1.0000 0.60931  0.69442  0.44860  Biso   1.000  C
  C32      1.0000 0.36793  0.41946  0.41010  Biso   1.000  C
  C33      1.0000 0.56073  0.11746  0.17760  Biso   1.000  C
  C34      1.0000 0.48912  0.04264  0.18190  Biso   1.000  C
  C35      1.0000 0.53218  0.98396  0.15690  Biso   1.000  C
  C36      1.0000 0.64684  0.00008  0.12750  Biso   1.000  C
  C37      1.0000 0.71845  0.07490  0.12310  Biso   1.000  C
  C38      1.0000 0.67539  0.13358  0.14820  Biso   1.000  C
  C39      1.0000 0.51802  0.18204  0.20710  Biso   1.000  C
  C40      1.0000 0.45512  0.90404  0.16010  Biso   1.000  C
  C41      1.0000 0.20681  0.36542  0.26150  Biso   1.000  C
  C42      1.0000 0.08531  0.33702  0.28240  Biso   1.000  C
  C43      1.0000 0.99607  0.37274  0.27020  Biso   1.000  C
  C44      1.0000 0.02823  0.43686  0.23710  Biso   1.000  C
  C45      1.0000 0.14973  0.46526  0.21620  Biso   1.000  C
  C46      1.0000 0.23898  0.42956  0.22840  Biso   1.000  C
  C47      1.0000 0.30365  0.32590  0.27400  Biso   1.000  C
  C48      1.0000 0.86293  0.34286  0.29140  Biso   1.000  C
  C49      1.0000 0.57022  0.86984  0.00230  Biso   1.000  C
  C50      1.0000 0.65769  0.83558  0.02060  Biso   1.000  C
  C51      1.0000 0.78395  0.86750  0.00860  Biso   1.000  C
  C52      1.0000 0.82263  0.93366  0.97820  Biso   1.000  C
  C53      1.0000 0.73516  0.96792  0.95990  Biso   1.000  C
  C54      1.0000 0.60891  0.93602  0.97200  Biso   1.000  C
  C55      1.0000 0.43313  0.83926  0.01700  Biso   1.000  C
  C56      1.0000 0.88221  0.83202  0.02610  Biso   1.000  C
  C57      1.0000 0.86863  0.36746  0.08110  Biso   1.000  C
  C58      1.0000 0.93381  0.44302  0.07510  Biso   1.000  C
  C59      1.0000 0.88382  0.49964  0.09810  Biso   1.000  C
  C60      1.0000 0.76874  0.48068  0.12710  Biso   1.000  C
  C61      1.0000 0.70356  0.40512  0.13320  Biso   1.000  C
  C62      1.0000 0.75355  0.34850  0.11020  Biso   1.000  C
  C63      1.0000 0.91489  0.30558  0.05140  Biso   1.000  C
  C64      1.0000 0.94847  0.58054  0.08990  Biso   1.000  C
  C65      1.0000 0.55673  0.11746  0.67760  Biso   1.000  C
  C66      1.0000 0.55352  0.04264  0.68190  Biso   1.000  C
  C67      1.0000 0.45178  0.98396  0.65690  Biso   1.000  C
  C68      1.0000 0.35324  0.00008  0.62750  Biso   1.000  C
  C69      1.0000 0.35645  0.07490  0.62310  Biso   1.000  C
  C70      1.0000 0.45819  0.13358  0.64820  Biso   1.000  C
  C71      1.0000 0.66402  0.18204  0.70710  Biso   1.000  C
  C72      1.0000 0.44892  0.90404  0.66010  Biso   1.000  C
  C73      1.0000 0.15861  0.36542  0.76150  Biso   1.000  C
  C74      1.0000 0.25171  0.33702  0.78240  Biso   1.000  C
  C75      1.0000 0.37667  0.37274  0.77020  Biso   1.000  C
  C76      1.0000 0.40863  0.43686  0.73710  Biso   1.000  C
  C77      1.0000 0.31553  0.46526  0.71620  Biso   1.000  C
  C78      1.0000 0.19058  0.42956  0.72840  Biso   1.000  C
  C79      1.0000 0.02225  0.32590  0.77400  Biso   1.000  C
  C80      1.0000 0.47993  0.34286  0.79140  Biso   1.000  C
  C81      1.0000 0.29962  0.86984  0.50230  Biso   1.000  C
  C82      1.0000 0.17789  0.83558  0.52060  Biso   1.000  C
  C83      1.0000 0.08355  0.86750  0.50860  Biso   1.000  C
  C84      1.0000 0.11103  0.93366  0.47820  Biso   1.000  C
  C85      1.0000 0.23276  0.96792  0.45990  Biso   1.000  C
  C86      1.0000 0.32711  0.93602  0.47200  Biso   1.000  C
  C87      1.0000 0.40613  0.83926  0.51700  Biso   1.000  C
  C88      1.0000 0.94981  0.83202  0.52610  Biso   1.000  C
  C89      1.0000 0.49883  0.36746  0.58110  Biso   1.000  C
  C90      1.0000 0.50921  0.44302  0.57510  Biso   1.000  C
  C91      1.0000 0.61582  0.49964  0.59810  Biso   1.000  C
  C92      1.0000 0.71194  0.48068  0.62710  Biso   1.000  C
  C93      1.0000 0.70156  0.40512  0.63320  Biso   1.000  C
  C94      1.0000 0.59495  0.34850  0.61020  Biso   1.000  C
  C95      1.0000 0.39069  0.30558  0.55140  Biso   1.000  C
  C96      1.0000 0.63207  0.58054  0.58990  Biso   1.000  C
  C97      1.0000 0.43927  0.88254  0.82240  Biso   1.000  C
  C98      1.0000 0.51088  0.95736  0.81810  Biso   1.000  C
  C99      1.0000 0.46782  0.01604  0.84310  Biso   1.000  C
  C100     1.0000 0.35316  0.99992  0.87250  Biso   1.000  C
  C101     1.0000 0.28155  0.92510  0.87690  Biso   1.000  C
  C102     1.0000 0.32461  0.86642  0.85180  Biso   1.000  C
  C103     1.0000 0.48198  0.81796  0.79290  Biso   1.000  C
  C104     1.0000 0.54488  0.09596  0.83990  Biso   1.000  C
  C105     1.0000 0.79319  0.63458  0.73850  Biso   1.000  C
  C106     1.0000 0.91469  0.66298  0.71760  Biso   1.000  C
  C107     1.0000 0.00393  0.62726  0.72980  Biso   1.000  C
  C108     1.0000 0.97177  0.56314  0.76290  Biso   1.000  C
  C109     1.0000 0.85027  0.53474  0.78380  Biso   1.000  C
  C110     1.0000 0.76102  0.57044  0.77160  Biso   1.000  C
  C111     1.0000 0.69635  0.67410  0.72600  Biso   1.000  C
  C112     1.0000 0.13707  0.65714  0.70860  Biso   1.000  C
  C113     1.0000 0.42978  0.13016  0.99770  Biso   1.000  C
  C114     1.0000 0.34231  0.16442  0.97940  Biso   1.000  C
  C115     1.0000 0.21605  0.13250  0.99140  Biso   1.000  C
  C116     1.0000 0.17737  0.06634  0.02180  Biso   1.000  C
  C117     1.0000 0.26484  0.03208  0.04010  Biso   1.000  C
  C118     1.0000 0.39109  0.06398  0.02800  Biso   1.000  C
  C119     1.0000 0.56687  0.16074  0.98300  Biso   1.000  C
  C120     1.0000 0.11779  0.16798  0.97390  Biso   1.000  C
  C121     1.0000 0.13137  0.63254  0.91890  Biso   1.000  C
  C122     1.0000 0.06619  0.55698  0.92490  Biso   1.000  C
  C123     1.0000 0.11618  0.50036  0.90190  Biso   1.000  C
  C124     1.0000 0.23126  0.51932  0.87290  Biso   1.000  C
  C125     1.0000 0.29644  0.59488  0.86680  Biso   1.000  C
  C126     1.0000 0.24645  0.65150  0.88980  Biso   1.000  C
  C127     1.0000 0.08511  0.69442  0.94860  Biso   1.000  C
  C128     1.0000 0.05153  0.41946  0.91010  Biso   1.000  C
  N1       1.0000 0.73637  0.90854  0.41480  Biso   1.000  N
  N2       1.0000 0.64920  0.46520  0.31400  Biso   1.000  N
  N3       1.0000 0.74238  0.96156  0.56750  Biso   1.000  N
  N4       1.0000 0.20417  0.61354  0.33240  Biso   1.000  N
  N5       1.0000 0.82783  0.09146  0.08520  Biso   1.000  N
  N6       1.0000 0.18400  0.53480  0.18600  Biso   1.000  N
  N7       1.0000 0.78082  0.03844  0.93250  Biso   1.000  N
  N8       1.0000 0.59063  0.38646  0.16760  Biso   1.000  N
  N9       1.0000 0.26363  0.09146  0.58520  Biso   1.000  N
  N10      1.0000 0.35080  0.53480  0.68600  Biso   1.000  N
  N11      1.0000 0.25762  0.03844  0.43250  Biso   1.000  N
  N12      1.0000 0.79583  0.38646  0.66760  Biso   1.000  N
  N13      1.0000 0.17217  0.90854  0.91480  Biso   1.000  N
  N14      1.0000 0.81600  0.46520  0.81400  Biso   1.000  N
  N15      1.0000 0.21918  0.96156  0.06750  Biso   1.000  N
  N16      1.0000 0.40937  0.61354  0.83240  Biso   1.000  N
  O1       1.0000 0.34939  0.75358  0.28950  Biso   1.000  O
  O2       1.0000 0.23965  0.83310  0.27350  Biso   1.000  O
  O3       1.0000 0.44655  0.10850  0.33870  Biso   1.000  O
  O4       1.0000 0.65537  0.14694  0.33970  Biso   1.000  O
  O5       1.0000 0.05523  0.64366  0.24510  Biso   1.000  O
  O6       1.0000 0.00401  0.73282  0.19770  Biso   1.000  O
  O7       1.0000 0.54870  0.70540  0.16800  Biso   1.000  O
  O8       1.0000 0.41561  0.63222  0.23110  Biso   1.000  O
  O9       1.0000 0.48784  0.12268  0.49770  Biso   1.000  O
  O10      1.0000 0.61695  0.22190  0.45710  Biso   1.000  O
  O11      1.0000 0.07241  0.22002  0.43710  Biso   1.000  O
  O12      1.0000 0.13026  0.14332  0.49630  Biso   1.000  O
  O13      1.0000 0.60481  0.76102  0.44760  Biso   1.000  O
  O14      1.0000 0.69557  0.67654  0.47490  Biso   1.000  O
  O15      1.0000 0.46094  0.39608  0.41540  Biso   1.000  O
  O16      1.0000 0.25561  0.37662  0.40940  Biso   1.000  O
  O17      1.0000 0.25474  0.71248  0.16260  Biso   1.000  O
  O18      1.0000 0.14348  0.79116  0.08220  Biso   1.000  O
  O19      1.0000 0.09061  0.89062  0.19270  Biso   1.000  O
  O20      1.0000 0.59581  0.24642  0.21050  Biso   1.000  O
  O21      1.0000 0.40655  0.16690  0.22650  Biso   1.000  O
  O22      1.0000 0.33805  0.89150  0.16130  Biso   1.000  O
  O23      1.0000 0.50843  0.85306  0.16030  Biso   1.000  O
  O24      1.0000 0.41157  0.35634  0.25490  Biso   1.000  O
  O25      1.0000 0.27119  0.26718  0.30230  Biso   1.000  O
  O26      1.0000 0.84330  0.29460  0.33200  Biso   1.000  O
  O27      1.0000 0.78339  0.36778  0.26890  Biso   1.000  O
  O28      1.0000 0.36516  0.87732  0.00230  Biso   1.000  O
  O29      1.0000 0.39505  0.77810  0.04290  Biso   1.000  O
  O30      1.0000 0.85239  0.77998  0.06290  Biso   1.000  O
  O31      1.0000 0.98694  0.85668  0.00370  Biso   1.000  O
  O32      1.0000 0.84379  0.23898  0.05240  Biso   1.000  O
  O33      1.0000 0.01903  0.32346  0.02510  Biso   1.000  O
  O34      1.0000 0.06486  0.60392  0.08460  Biso   1.000  O
  O35      1.0000 0.87899  0.62338  0.09060  Biso   1.000  O
  O36      1.0000 0.54226  0.28752  0.33740  Biso   1.000  O
  O37      1.0000 0.35232  0.20884  0.41780  Biso   1.000  O
  O38      1.0000 0.19999  0.10938  0.30730  Biso   1.000  O
  O39      1.0000 0.65061  0.24642  0.71050  Biso   1.000  O
  O40      1.0000 0.76035  0.16690  0.72650  Biso   1.000  O
  O41      1.0000 0.55345  0.89150  0.66130  Biso   1.000  O
  O42      1.0000 0.34463  0.85306  0.66030  Biso   1.000  O
  O43      1.0000 0.94477  0.35634  0.75490  Biso   1.000  O
  O44      1.0000 0.99599  0.26718  0.80230  Biso   1.000  O
  O45      1.0000 0.45130  0.29460  0.83200  Biso   1.000  O
  O46      1.0000 0.58439  0.36778  0.76890  Biso   1.000  O
  O47      1.0000 0.51216  0.87732  0.50230  Biso   1.000  O
  O48      1.0000 0.38305  0.77810  0.54290  Biso   1.000  O
  O49      1.0000 0.92759  0.77998  0.56290  Biso   1.000  O
  O50      1.0000 0.86974  0.85668  0.50370  Biso   1.000  O
  O51      1.0000 0.39519  0.23898  0.55240  Biso   1.000  O
  O52      1.0000 0.30443  0.32346  0.52510  Biso   1.000  O
  O53      1.0000 0.53906  0.60392  0.58460  Biso   1.000  O
  O54      1.0000 0.74439  0.62338  0.59060  Biso   1.000  O
  O55      1.0000 0.74526  0.28752  0.83740  Biso   1.000  O
  O56      1.0000 0.85652  0.20884  0.91780  Biso   1.000  O
  O57      1.0000 0.90939  0.10938  0.80730  Biso   1.000  O
  O58      1.0000 0.40419  0.75358  0.78950  Biso   1.000  O
  O59      1.0000 0.59345  0.83310  0.77350  Biso   1.000  O
  O60      1.0000 0.66195  0.10850  0.83870  Biso   1.000  O
  O61      1.0000 0.49157  0.14694  0.83970  Biso   1.000  O
  O62      1.0000 0.58843  0.64366  0.74510  Biso   1.000  O
  O63      1.0000 0.72881  0.73282  0.69770  Biso   1.000  O
  O64      1.0000 0.15670  0.70540  0.66800  Biso   1.000  O
  O65      1.0000 0.21661  0.63222  0.73110  Biso   1.000  O
  O66      1.0000 0.63484  0.12268  0.99770  Biso   1.000  O
  O67      1.0000 0.60495  0.22190  0.95710  Biso   1.000  O
  O68      1.0000 0.14761  0.22002  0.93710  Biso   1.000  O
  O69      1.0000 0.01306  0.14332  0.99630  Biso   1.000  O
  O70      1.0000 0.15621  0.76102  0.94760  Biso   1.000  O
  O71      1.0000 0.98097  0.67654  0.97490  Biso   1.000  O
  O72      1.0000 0.93514  0.39608  0.91540  Biso   1.000  O
  O73      1.0000 0.12101  0.37662  0.90940  Biso   1.000  O
  O74      1.0000 0.45774  0.71248  0.66260  Biso   1.000  O
  O75      1.0000 0.64768  0.79116  0.58220  Biso   1.000  O
  O76      1.0000 0.80001  0.89062  0.69270  Biso   1.000  O
