data_image0
_cell_length_a       16.72
_cell_length_b       17.081
_cell_length_c       18.432
_cell_angle_alpha    90
_cell_angle_beta     90
_cell_angle_gamma    90

_symmetry_space_group_name_H-M    P 1
_symmetry_int_tables_number       1

loop_
  _symmetry_equiv_pos_as_xyz
  'x, y, z'

loop_
  _atom_site_label
  _atom_site_occupancy
  _atom_site_fract_x
  _atom_site_fract_y
  _atom_site_fract_z
  _atom_site_thermal_displace_type
  _atom_site_B_iso_or_equiv
  _atom_site_type_symbol
  Cd1      1.0000 0.77687  0.99150  0.51910  Biso   1.000  Cd
  Cd2      1.0000 0.27687  0.50850  0.48090  Biso   1.000  Cd
  Cd3      1.0000 0.27687  0.99150  0.98090  Biso   1.000  Cd
  Cd4      1.0000 0.77687  0.50850  0.01910  Biso   1.000  Cd
  H1       1.0000 0.59750  0.93920  0.61360  Biso   1.000  H
  H2       1.0000 0.47860  0.02230  0.61900  Biso   1.000  H
  H3       1.0000 0.64080  0.12310  0.49280  Biso   1.000  H
  H4       1.0000 0.38730  0.11340  0.55320  Biso   1.000  H
  H5       1.0000 0.31080  0.22410  0.53490  Biso   1.000  H
  H6       1.0000 0.51050  0.35160  0.50960  Biso   1.000  H
  H7       1.0000 0.58700  0.24230  0.53060  Biso   1.000  H
  H8       1.0000 0.68970  0.04610  0.35820  Biso   1.000  H
  H9       1.0000 0.68720  0.96940  0.24530  Biso   1.000  H
  H10      1.0000 0.81390  0.85530  0.39370  Biso   1.000  H
  H11      1.0000 0.77390  0.73960  0.33140  Biso   1.000  H
  H12      1.0000 0.79160  0.63680  0.25020  Biso   1.000  H
  H13      1.0000 0.77660  0.78460  0.08270  Biso   1.000  H
  H14      1.0000 0.76440  0.88930  0.16160  Biso   1.000  H
  H15      1.0000 0.09750  0.56080  0.38640  Biso   1.000  H
  H16      1.0000 0.97860  0.47770  0.38100  Biso   1.000  H
  H17      1.0000 0.14080  0.37690  0.50720  Biso   1.000  H
  H18      1.0000 0.88730  0.38660  0.44680  Biso   1.000  H
  H19      1.0000 0.81080  0.27590  0.46510  Biso   1.000  H
  H20      1.0000 0.01050  0.14840  0.49040  Biso   1.000  H
  H21      1.0000 0.08700  0.25770  0.46940  Biso   1.000  H
  H22      1.0000 0.18970  0.45390  0.64180  Biso   1.000  H
  H23      1.0000 0.18720  0.53060  0.75470  Biso   1.000  H
  H24      1.0000 0.31390  0.64470  0.60630  Biso   1.000  H
  H25      1.0000 0.27390  0.76040  0.66860  Biso   1.000  H
  H26      1.0000 0.29160  0.86320  0.74980  Biso   1.000  H
  H27      1.0000 0.27660  0.71540  0.91730  Biso   1.000  H
  H28      1.0000 0.26440  0.61070  0.83840  Biso   1.000  H
  H29      1.0000 0.09750  0.93920  0.88640  Biso   1.000  H
  H30      1.0000 0.97860  0.02230  0.88100  Biso   1.000  H
  H31      1.0000 0.14080  0.12310  0.00720  Biso   1.000  H
  H32      1.0000 0.88730  0.11340  0.94680  Biso   1.000  H
  H33      1.0000 0.81080  0.22410  0.96510  Biso   1.000  H
  H34      1.0000 0.01050  0.35160  0.99040  Biso   1.000  H
  H35      1.0000 0.08700  0.24230  0.96940  Biso   1.000  H
  H36      1.0000 0.18970  0.04610  0.14180  Biso   1.000  H
  H37      1.0000 0.18720  0.96940  0.25470  Biso   1.000  H
  H38      1.0000 0.31390  0.85530  0.10630  Biso   1.000  H
  H39      1.0000 0.27390  0.73960  0.16860  Biso   1.000  H
  H40      1.0000 0.29160  0.63680  0.24980  Biso   1.000  H
  H41      1.0000 0.27660  0.78460  0.41730  Biso   1.000  H
  H42      1.0000 0.26440  0.88930  0.33840  Biso   1.000  H
  H43      1.0000 0.59750  0.56080  0.11360  Biso   1.000  H
  H44      1.0000 0.47860  0.47770  0.11900  Biso   1.000  H
  H45      1.0000 0.64080  0.37690  0.99280  Biso   1.000  H
  H46      1.0000 0.38730  0.38660  0.05320  Biso   1.000  H
  H47      1.0000 0.31080  0.27590  0.03490  Biso   1.000  H
  H48      1.0000 0.51050  0.14840  0.00960  Biso   1.000  H
  H49      1.0000 0.58700  0.25770  0.03060  Biso   1.000  H
  H50      1.0000 0.68970  0.45390  0.85820  Biso   1.000  H
  H51      1.0000 0.68720  0.53060  0.74530  Biso   1.000  H
  H52      1.0000 0.81390  0.64470  0.89370  Biso   1.000  H
  H53      1.0000 0.77390  0.76040  0.83140  Biso   1.000  H
  H54      1.0000 0.79160  0.86320  0.75020  Biso   1.000  H
  H55      1.0000 0.77660  0.71540  0.58270  Biso   1.000  H
  H56      1.0000 0.76440  0.61070  0.66160  Biso   1.000  H
  C1       1.0000 0.59140  0.98690  0.59000  Biso   1.000  C
  C2       1.0000 0.52560  0.03260  0.59380  Biso   1.000  C
  C3       1.0000 0.61590  0.08790  0.52400  Biso   1.000  C
  C4       1.0000 0.49400  0.16610  0.54170  Biso   1.000  C
  C5       1.0000 0.41200  0.16120  0.54420  Biso   1.000  C
  C6       1.0000 0.36630  0.22760  0.53340  Biso   1.000  C
  C7       1.0000 0.40240  0.29960  0.52030  Biso   1.000  C
  C8       1.0000 0.48580  0.30390  0.51870  Biso   1.000  C
  C9       1.0000 0.53160  0.23860  0.53030  Biso   1.000  C
  C10      1.0000 0.35240  0.37050  0.50840  Biso   1.000  C
  C11      1.0000 0.71460  0.99810  0.35100  Biso   1.000  C
  C12      1.0000 0.71270  0.95580  0.28840  Biso   1.000  C
  C13      1.0000 0.78290  0.89330  0.37100  Biso   1.000  C
  C14      1.0000 0.76820  0.82470  0.25270  Biso   1.000  C
  C15      1.0000 0.77560  0.74850  0.28170  Biso   1.000  C
  C16      1.0000 0.78530  0.68740  0.23260  Biso   1.000  C
  C17      1.0000 0.78600  0.69970  0.15900  Biso   1.000  C
  C18      1.0000 0.77710  0.77600  0.13250  Biso   1.000  C
  C19      1.0000 0.76910  0.83860  0.17940  Biso   1.000  C
  C20      1.0000 0.79280  0.63100  0.10840  Biso   1.000  C
  C21      1.0000 0.09140  0.51310  0.41000  Biso   1.000  C
  C22      1.0000 0.02560  0.46740  0.40620  Biso   1.000  C
  C23      1.0000 0.11590  0.41210  0.47600  Biso   1.000  C
  C24      1.0000 0.99400  0.33390  0.45830  Biso   1.000  C
  C25      1.0000 0.91200  0.33880  0.45580  Biso   1.000  C
  C26      1.0000 0.86630  0.27240  0.46660  Biso   1.000  C
  C27      1.0000 0.90240  0.20040  0.47970  Biso   1.000  C
  C28      1.0000 0.98580  0.19610  0.48130  Biso   1.000  C
  C29      1.0000 0.03160  0.26140  0.46970  Biso   1.000  C
  C30      1.0000 0.85240  0.12950  0.49160  Biso   1.000  C
  C31      1.0000 0.21460  0.50190  0.64900  Biso   1.000  C
  C32      1.0000 0.21270  0.54420  0.71160  Biso   1.000  C
  C33      1.0000 0.28290  0.60670  0.62900  Biso   1.000  C
  C34      1.0000 0.26820  0.67530  0.74730  Biso   1.000  C
  C35      1.0000 0.27560  0.75150  0.71830  Biso   1.000  C
  C36      1.0000 0.28530  0.81260  0.76740  Biso   1.000  C
  C37      1.0000 0.28600  0.80030  0.84100  Biso   1.000  C
  C38      1.0000 0.27710  0.72400  0.86750  Biso   1.000  C
  C39      1.0000 0.26910  0.66140  0.82060  Biso   1.000  C
  C40      1.0000 0.29280  0.86900  0.89160  Biso   1.000  C
  C41      1.0000 0.09140  0.98690  0.91000  Biso   1.000  C
  C42      1.0000 0.02560  0.03260  0.90620  Biso   1.000  C
  C43      1.0000 0.11590  0.08790  0.97600  Biso   1.000  C
  C44      1.0000 0.99400  0.16610  0.95830  Biso   1.000  C
  C45      1.0000 0.91200  0.16120  0.95580  Biso   1.000  C
  C46      1.0000 0.86630  0.22760  0.96660  Biso   1.000  C
  C47      1.0000 0.90240  0.29960  0.97970  Biso   1.000  C
  C48      1.0000 0.98580  0.30390  0.98130  Biso   1.000  C
  C49      1.0000 0.03160  0.23860  0.96970  Biso   1.000  C
  C50      1.0000 0.85240  0.37050  0.99160  Biso   1.000  C
  C51      1.0000 0.21460  0.99810  0.14900  Biso   1.000  C
  C52      1.0000 0.21270  0.95580  0.21160  Biso   1.000  C
  C53      1.0000 0.28290  0.89330  0.12900  Biso   1.000  C
  C54      1.0000 0.26820  0.82470  0.24730  Biso   1.000  C
  C55      1.0000 0.27560  0.74850  0.21830  Biso   1.000  C
  C56      1.0000 0.28530  0.68740  0.26740  Biso   1.000  C
  C57      1.0000 0.28600  0.69970  0.34100  Biso   1.000  C
  C58      1.0000 0.27710  0.77600  0.36750  Biso   1.000  C
  C59      1.0000 0.26910  0.83860  0.32060  Biso   1.000  C
  C60      1.0000 0.29280  0.63100  0.39160  Biso   1.000  C
  C61      1.0000 0.59140  0.51310  0.09000  Biso   1.000  C
  C62      1.0000 0.52560  0.46740  0.09380  Biso   1.000  C
  C63      1.0000 0.61590  0.41210  0.02400  Biso   1.000  C
  C64      1.0000 0.49400  0.33390  0.04170  Biso   1.000  C
  C65      1.0000 0.41200  0.33880  0.04420  Biso   1.000  C
  C66      1.0000 0.36630  0.27240  0.03340  Biso   1.000  C
  C67      1.0000 0.40240  0.20040  0.02030  Biso   1.000  C
  C68      1.0000 0.48580  0.19610  0.01870  Biso   1.000  C
  C69      1.0000 0.53160  0.26140  0.03030  Biso   1.000  C
  C70      1.0000 0.35240  0.12950  0.00840  Biso   1.000  C
  C71      1.0000 0.71460  0.50190  0.85100  Biso   1.000  C
  C72      1.0000 0.71270  0.54420  0.78840  Biso   1.000  C
  C73      1.0000 0.78290  0.60670  0.87100  Biso   1.000  C
  C74      1.0000 0.76820  0.67530  0.75270  Biso   1.000  C
  C75      1.0000 0.77560  0.75150  0.78170  Biso   1.000  C
  C76      1.0000 0.78530  0.81260  0.73260  Biso   1.000  C
  C77      1.0000 0.78600  0.80030  0.65900  Biso   1.000  C
  C78      1.0000 0.77710  0.72400  0.63250  Biso   1.000  C
  C79      1.0000 0.76910  0.66140  0.67940  Biso   1.000  C
  C80      1.0000 0.79280  0.86900  0.60840  Biso   1.000  C
  N1       1.0000 0.64870  0.02130  0.54590  Biso   1.000  N
  N2       1.0000 0.54260  0.09860  0.55190  Biso   1.000  N
  N3       1.0000 0.75940  0.95840  0.40200  Biso   1.000  N
  N4       1.0000 0.75640  0.88850  0.30190  Biso   1.000  N
  N5       1.0000 0.14870  0.47870  0.45410  Biso   1.000  N
  N6       1.0000 0.04260  0.40140  0.44810  Biso   1.000  N
  N7       1.0000 0.25940  0.54160  0.59800  Biso   1.000  N
  N8       1.0000 0.25640  0.61150  0.69810  Biso   1.000  N
  N9       1.0000 0.14870  0.02130  0.95410  Biso   1.000  N
  N10      1.0000 0.04260  0.09860  0.94810  Biso   1.000  N
  N11      1.0000 0.25940  0.95840  0.09800  Biso   1.000  N
  N12      1.0000 0.25640  0.88850  0.19810  Biso   1.000  N
  N13      1.0000 0.64870  0.47870  0.04590  Biso   1.000  N
  N14      1.0000 0.54260  0.40140  0.05190  Biso   1.000  N
  N15      1.0000 0.75940  0.54160  0.90200  Biso   1.000  N
  N16      1.0000 0.75640  0.61150  0.80190  Biso   1.000  N
  O1       1.0000 0.38470  0.43190  0.48340  Biso   1.000  O
  O2       1.0000 0.27900  0.36800  0.52220  Biso   1.000  O
  O3       1.0000 0.79870  0.64450  0.04070  Biso   1.000  O
  O4       1.0000 0.79000  0.56340  0.13370  Biso   1.000  O
  O5       1.0000 0.88470  0.06810  0.51660  Biso   1.000  O
  O6       1.0000 0.77900  0.13200  0.47780  Biso   1.000  O
  O7       1.0000 0.29870  0.85550  0.95930  Biso   1.000  O
  O8       1.0000 0.29000  0.93660  0.86630  Biso   1.000  O
  O9       1.0000 0.88470  0.43190  0.01660  Biso   1.000  O
  O10      1.0000 0.77900  0.36800  0.97780  Biso   1.000  O
  O11      1.0000 0.29870  0.64450  0.45930  Biso   1.000  O
  O12      1.0000 0.29000  0.56340  0.36630  Biso   1.000  O
  O13      1.0000 0.38470  0.06810  0.98340  Biso   1.000  O
  O14      1.0000 0.27900  0.13200  0.02220  Biso   1.000  O
  O15      1.0000 0.79870  0.85550  0.54070  Biso   1.000  O
  O16      1.0000 0.79000  0.93660  0.63370  Biso   1.000  O
  Cd5      1.0000 0.72313  0.00850  0.01910  Biso   1.000  Cd
  Cd6      1.0000 0.22313  0.49150  0.98090  Biso   1.000  Cd
  Cd7      1.0000 0.22313  0.00850  0.48090  Biso   1.000  Cd
  Cd8      1.0000 0.72313  0.49150  0.51910  Biso   1.000  Cd
  H57      1.0000 0.90250  0.06080  0.11360  Biso   1.000  H
  H58      1.0000 0.02140  0.97770  0.11900  Biso   1.000  H
  H59      1.0000 0.85920  0.87690  0.99280  Biso   1.000  H
  H60      1.0000 0.11270  0.88660  0.05320  Biso   1.000  H
  H61      1.0000 0.18920  0.77590  0.03490  Biso   1.000  H
  H62      1.0000 0.98950  0.64840  0.00960  Biso   1.000  H
  H63      1.0000 0.91300  0.75770  0.03060  Biso   1.000  H
  H64      1.0000 0.81030  0.95390  0.85820  Biso   1.000  H
  H65      1.0000 0.81280  0.03060  0.74530  Biso   1.000  H
  H66      1.0000 0.68610  0.14470  0.89370  Biso   1.000  H
  H67      1.0000 0.72610  0.26040  0.83140  Biso   1.000  H
  H68      1.0000 0.70840  0.36320  0.75020  Biso   1.000  H
  H69      1.0000 0.72340  0.21540  0.58270  Biso   1.000  H
  H70      1.0000 0.73560  0.11070  0.66160  Biso   1.000  H
  H71      1.0000 0.40250  0.43920  0.88640  Biso   1.000  H
  H72      1.0000 0.52140  0.52230  0.88100  Biso   1.000  H
  H73      1.0000 0.35920  0.62310  0.00720  Biso   1.000  H
  H74      1.0000 0.61270  0.61340  0.94680  Biso   1.000  H
  H75      1.0000 0.68920  0.72410  0.96510  Biso   1.000  H
  H76      1.0000 0.48950  0.85160  0.99040  Biso   1.000  H
  H77      1.0000 0.41300  0.74230  0.96940  Biso   1.000  H
  H78      1.0000 0.31030  0.54610  0.14180  Biso   1.000  H
  H79      1.0000 0.31280  0.46940  0.25470  Biso   1.000  H
  H80      1.0000 0.18610  0.35530  0.10630  Biso   1.000  H
  H81      1.0000 0.22610  0.23960  0.16860  Biso   1.000  H
  H82      1.0000 0.20840  0.13680  0.24980  Biso   1.000  H
  H83      1.0000 0.22340  0.28460  0.41730  Biso   1.000  H
  H84      1.0000 0.23560  0.38930  0.33840  Biso   1.000  H
  H85      1.0000 0.40250  0.06080  0.38640  Biso   1.000  H
  H86      1.0000 0.52140  0.97770  0.38100  Biso   1.000  H
  H87      1.0000 0.35920  0.87690  0.50720  Biso   1.000  H
  H88      1.0000 0.61270  0.88660  0.44680  Biso   1.000  H
  H89      1.0000 0.68920  0.77590  0.46510  Biso   1.000  H
  H90      1.0000 0.48950  0.64840  0.49040  Biso   1.000  H
  H91      1.0000 0.41300  0.75770  0.46940  Biso   1.000  H
  H92      1.0000 0.31030  0.95390  0.64180  Biso   1.000  H
  H93      1.0000 0.31280  0.03060  0.75470  Biso   1.000  H
  H94      1.0000 0.18610  0.14470  0.60630  Biso   1.000  H
  H95      1.0000 0.22610  0.26040  0.66860  Biso   1.000  H
  H96      1.0000 0.20840  0.36320  0.74980  Biso   1.000  H
  H97      1.0000 0.22340  0.21540  0.91730  Biso   1.000  H
  H98      1.0000 0.23560  0.11070  0.83840  Biso   1.000  H
  H99      1.0000 0.90250  0.43920  0.61360  Biso   1.000  H
  H100     1.0000 0.02140  0.52230  0.61900  Biso   1.000  H
  H101     1.0000 0.85920  0.62310  0.49280  Biso   1.000  H
  H102     1.0000 0.11270  0.61340  0.55320  Biso   1.000  H
  H103     1.0000 0.18920  0.72410  0.53490  Biso   1.000  H
  H104     1.0000 0.98950  0.85160  0.50960  Biso   1.000  H
  H105     1.0000 0.91300  0.74230  0.53060  Biso   1.000  H
  H106     1.0000 0.81030  0.54610  0.35820  Biso   1.000  H
  H107     1.0000 0.81280  0.46940  0.24530  Biso   1.000  H
  H108     1.0000 0.68610  0.35530  0.39370  Biso   1.000  H
  H109     1.0000 0.72610  0.23960  0.33140  Biso   1.000  H
  H110     1.0000 0.70840  0.13680  0.25020  Biso   1.000  H
  H111     1.0000 0.72340  0.28460  0.08270  Biso   1.000  H
  H112     1.0000 0.73560  0.38930  0.16160  Biso   1.000  H
  C81      1.0000 0.90860  0.01310  0.09000  Biso   1.000  C
  C82      1.0000 0.97440  0.96740  0.09380  Biso   1.000  C
  C83      1.0000 0.88410  0.91210  0.02400  Biso   1.000  C
  C84      1.0000 0.00600  0.83390  0.04170  Biso   1.000  C
  C85      1.0000 0.08800  0.83880  0.04420  Biso   1.000  C
  C86      1.0000 0.13370  0.77240  0.03340  Biso   1.000  C
  C87      1.0000 0.09760  0.70040  0.02030  Biso   1.000  C
  C88      1.0000 0.01420  0.69610  0.01870  Biso   1.000  C
  C89      1.0000 0.96840  0.76140  0.03030  Biso   1.000  C
  C90      1.0000 0.14760  0.62950  0.00840  Biso   1.000  C
  C91      1.0000 0.78540  0.00190  0.85100  Biso   1.000  C
  C92      1.0000 0.78730  0.04420  0.78840  Biso   1.000  C
  C93      1.0000 0.71710  0.10670  0.87100  Biso   1.000  C
  C94      1.0000 0.73180  0.17530  0.75270  Biso   1.000  C
  C95      1.0000 0.72440  0.25150  0.78170  Biso   1.000  C
  C96      1.0000 0.71470  0.31260  0.73260  Biso   1.000  C
  C97      1.0000 0.71400  0.30030  0.65900  Biso   1.000  C
  C98      1.0000 0.72290  0.22400  0.63250  Biso   1.000  C
  C99      1.0000 0.73090  0.16140  0.67940  Biso   1.000  C
  C100     1.0000 0.70720  0.36900  0.60840  Biso   1.000  C
  C101     1.0000 0.40860  0.48690  0.91000  Biso   1.000  C
  C102     1.0000 0.47440  0.53260  0.90620  Biso   1.000  C
  C103     1.0000 0.38410  0.58790  0.97600  Biso   1.000  C
  C104     1.0000 0.50600  0.66610  0.95830  Biso   1.000  C
  C105     1.0000 0.58800  0.66120  0.95580  Biso   1.000  C
  C106     1.0000 0.63370  0.72760  0.96660  Biso   1.000  C
  C107     1.0000 0.59760  0.79960  0.97970  Biso   1.000  C
  C108     1.0000 0.51420  0.80390  0.98130  Biso   1.000  C
  C109     1.0000 0.46840  0.73860  0.96970  Biso   1.000  C
  C110     1.0000 0.64760  0.87050  0.99160  Biso   1.000  C
  C111     1.0000 0.28540  0.49810  0.14900  Biso   1.000  C
  C112     1.0000 0.28730  0.45580  0.21160  Biso   1.000  C
  C113     1.0000 0.21710  0.39330  0.12900  Biso   1.000  C
  C114     1.0000 0.23180  0.32470  0.24730  Biso   1.000  C
  C115     1.0000 0.22440  0.24850  0.21830  Biso   1.000  C
  C116     1.0000 0.21470  0.18740  0.26740  Biso   1.000  C
  C117     1.0000 0.21400  0.19970  0.34100  Biso   1.000  C
  C118     1.0000 0.22290  0.27600  0.36750  Biso   1.000  C
  C119     1.0000 0.23090  0.33860  0.32060  Biso   1.000  C
  C120     1.0000 0.20720  0.13100  0.39160  Biso   1.000  C
  C121     1.0000 0.40860  0.01310  0.41000  Biso   1.000  C
  C122     1.0000 0.47440  0.96740  0.40620  Biso   1.000  C
  C123     1.0000 0.38410  0.91210  0.47600  Biso   1.000  C
  C124     1.0000 0.50600  0.83390  0.45830  Biso   1.000  C
  C125     1.0000 0.58800  0.83880  0.45580  Biso   1.000  C
  C126     1.0000 0.63370  0.77240  0.46660  Biso   1.000  C
  C127     1.0000 0.59760  0.70040  0.47970  Biso   1.000  C
  C128     1.0000 0.51420  0.69610  0.48130  Biso   1.000  C
  C129     1.0000 0.46840  0.76140  0.46970  Biso   1.000  C
  C130     1.0000 0.64760  0.62950  0.49160  Biso   1.000  C
  C131     1.0000 0.28540  0.00190  0.64900  Biso   1.000  C
  C132     1.0000 0.28730  0.04420  0.71160  Biso   1.000  C
  C133     1.0000 0.21710  0.10670  0.62900  Biso   1.000  C
  C134     1.0000 0.23180  0.17530  0.74730  Biso   1.000  C
  C135     1.0000 0.22440  0.25150  0.71830  Biso   1.000  C
  C136     1.0000 0.21470  0.31260  0.76740  Biso   1.000  C
  C137     1.0000 0.21400  0.30030  0.84100  Biso   1.000  C
  C138     1.0000 0.22290  0.22400  0.86750  Biso   1.000  C
  C139     1.0000 0.23090  0.16140  0.82060  Biso   1.000  C
  C140     1.0000 0.20720  0.36900  0.89160  Biso   1.000  C
  C141     1.0000 0.90860  0.48690  0.59000  Biso   1.000  C
  C142     1.0000 0.97440  0.53260  0.59380  Biso   1.000  C
  C143     1.0000 0.88410  0.58790  0.52400  Biso   1.000  C
  C144     1.0000 0.00600  0.66610  0.54170  Biso   1.000  C
  C145     1.0000 0.08800  0.66120  0.54420  Biso   1.000  C
  C146     1.0000 0.13370  0.72760  0.53340  Biso   1.000  C
  C147     1.0000 0.09760  0.79960  0.52030  Biso   1.000  C
  C148     1.0000 0.01420  0.80390  0.51870  Biso   1.000  C
  C149     1.0000 0.96840  0.73860  0.53030  Biso   1.000  C
  C150     1.0000 0.14760  0.87050  0.50840  Biso   1.000  C
  C151     1.0000 0.78540  0.49810  0.35100  Biso   1.000  C
  C152     1.0000 0.78730  0.45580  0.28840  Biso   1.000  C
  C153     1.0000 0.71710  0.39330  0.37100  Biso   1.000  C
  C154     1.0000 0.73180  0.32470  0.25270  Biso   1.000  C
  C155     1.0000 0.72440  0.24850  0.28170  Biso   1.000  C
  C156     1.0000 0.71470  0.18740  0.23260  Biso   1.000  C
  C157     1.0000 0.71400  0.19970  0.15900  Biso   1.000  C
  C158     1.0000 0.72290  0.27600  0.13250  Biso   1.000  C
  C159     1.0000 0.73090  0.33860  0.17940  Biso   1.000  C
  C160     1.0000 0.70720  0.13100  0.10840  Biso   1.000  C
  N17      1.0000 0.85130  0.97870  0.04590  Biso   1.000  N
  N18      1.0000 0.95740  0.90140  0.05190  Biso   1.000  N
  N19      1.0000 0.74060  0.04160  0.90200  Biso   1.000  N
  N20      1.0000 0.74360  0.11150  0.80190  Biso   1.000  N
  N21      1.0000 0.35130  0.52130  0.95410  Biso   1.000  N
  N22      1.0000 0.45740  0.59860  0.94810  Biso   1.000  N
  N23      1.0000 0.24060  0.45840  0.09800  Biso   1.000  N
  N24      1.0000 0.24360  0.38850  0.19810  Biso   1.000  N
  N25      1.0000 0.35130  0.97870  0.45410  Biso   1.000  N
  N26      1.0000 0.45740  0.90140  0.44810  Biso   1.000  N
  N27      1.0000 0.24060  0.04160  0.59800  Biso   1.000  N
  N28      1.0000 0.24360  0.11150  0.69810  Biso   1.000  N
  N29      1.0000 0.85130  0.52130  0.54590  Biso   1.000  N
  N30      1.0000 0.95740  0.59860  0.55190  Biso   1.000  N
  N31      1.0000 0.74060  0.45840  0.40200  Biso   1.000  N
  N32      1.0000 0.74360  0.38850  0.30190  Biso   1.000  N
  O17      1.0000 0.11530  0.56810  0.98340  Biso   1.000  O
  O18      1.0000 0.22100  0.63200  0.02220  Biso   1.000  O
  O19      1.0000 0.70130  0.35550  0.54070  Biso   1.000  O
  O20      1.0000 0.71000  0.43660  0.63370  Biso   1.000  O
  O21      1.0000 0.61530  0.93190  0.01660  Biso   1.000  O
  O22      1.0000 0.72100  0.86800  0.97780  Biso   1.000  O
  O23      1.0000 0.20130  0.14450  0.45930  Biso   1.000  O
  O24      1.0000 0.21000  0.06340  0.36630  Biso   1.000  O
  O25      1.0000 0.61530  0.56810  0.51660  Biso   1.000  O
  O26      1.0000 0.72100  0.63200  0.47780  Biso   1.000  O
  O27      1.0000 0.20130  0.35550  0.95930  Biso   1.000  O
  O28      1.0000 0.21000  0.43660  0.86630  Biso   1.000  O
  O29      1.0000 0.11530  0.93190  0.48340  Biso   1.000  O
  O30      1.0000 0.22100  0.86800  0.52220  Biso   1.000  O
  O31      1.0000 0.70130  0.14450  0.04070  Biso   1.000  O
  O32      1.0000 0.71000  0.06340  0.13370  Biso   1.000  O
