data_image0
_cell_length_a       8.254
_cell_length_b       18.006
_cell_length_c       18.896
_cell_angle_alpha    90
_cell_angle_beta     90
_cell_angle_gamma    90

_symmetry_space_group_name_H-M    P 1
_symmetry_int_tables_number       1

loop_
  _symmetry_equiv_pos_as_xyz
  'x, y, z'

loop_
  _atom_site_label
  _atom_site_occupancy
  _atom_site_fract_x
  _atom_site_fract_y
  _atom_site_fract_z
  _atom_site_thermal_displace_type
  _atom_site_B_iso_or_equiv
  _atom_site_type_symbol
  Cd1      1.0000 0.48731  0.09337  0.02727  Biso   1.000  Cd
  Cd2      1.0000 0.51269  0.59337  0.97273  Biso   1.000  Cd
  Cd3      1.0000 0.51269  0.09337  0.52727  Biso   1.000  Cd
  Cd4      1.0000 0.48731  0.59337  0.47273  Biso   1.000  Cd
  H1       1.0000 0.64890  0.08490  0.86410  Biso   1.000  H
  H2       1.0000 0.50130  0.07190  0.75050  Biso   1.000  H
  H3       1.0000 0.18400  0.10850  0.90540  Biso   1.000  H
  H4       1.0000 0.00150  0.03420  0.82800  Biso   1.000  H
  H5       1.0000 0.78420  0.03700  0.75060  Biso   1.000  H
  H6       1.0000 0.06640  0.13150  0.60220  Biso   1.000  H
  H7       1.0000 0.28410  0.12980  0.68010  Biso   1.000  H
  H8       1.0000 0.41800  0.25250  0.13010  Biso   1.000  H
  H9       1.0000 0.60050  0.36080  0.13490  Biso   1.000  H
  H10      1.0000 0.78630  0.21070  0.00360  Biso   1.000  H
  H11      1.0000 0.74200  0.44440  0.03870  Biso   1.000  H
  H12      1.0000 0.95760  0.52330  0.01260  Biso   1.000  H
  H13      1.0000 0.26610  0.35130  0.02400  Biso   1.000  H
  H14      1.0000 0.05240  0.27130  0.04980  Biso   1.000  H
  H15      1.0000 0.35110  0.58490  0.13590  Biso   1.000  H
  H16      1.0000 0.49870  0.57190  0.24950  Biso   1.000  H
  H17      1.0000 0.81600  0.60850  0.09460  Biso   1.000  H
  H18      1.0000 0.99850  0.53420  0.17200  Biso   1.000  H
  H19      1.0000 0.21580  0.53700  0.24940  Biso   1.000  H
  H20      1.0000 0.93360  0.63150  0.39780  Biso   1.000  H
  H21      1.0000 0.71590  0.62980  0.31990  Biso   1.000  H
  H22      1.0000 0.58200  0.75250  0.86990  Biso   1.000  H
  H23      1.0000 0.39950  0.86080  0.86510  Biso   1.000  H
  H24      1.0000 0.21370  0.71070  0.99640  Biso   1.000  H
  H25      1.0000 0.25800  0.94440  0.96130  Biso   1.000  H
  H26      1.0000 0.04240  0.02330  0.98740  Biso   1.000  H
  H27      1.0000 0.73390  0.85130  0.97600  Biso   1.000  H
  H28      1.0000 0.94760  0.77130  0.95020  Biso   1.000  H
  H29      1.0000 0.35110  0.08490  0.36410  Biso   1.000  H
  H30      1.0000 0.49870  0.07190  0.25050  Biso   1.000  H
  H31      1.0000 0.81600  0.10850  0.40540  Biso   1.000  H
  H32      1.0000 0.99850  0.03420  0.32800  Biso   1.000  H
  H33      1.0000 0.21580  0.03700  0.25060  Biso   1.000  H
  H34      1.0000 0.93360  0.13150  0.10220  Biso   1.000  H
  H35      1.0000 0.71590  0.12980  0.18010  Biso   1.000  H
  H36      1.0000 0.58200  0.25250  0.63010  Biso   1.000  H
  H37      1.0000 0.39950  0.36080  0.63490  Biso   1.000  H
  H38      1.0000 0.21370  0.21070  0.50360  Biso   1.000  H
  H39      1.0000 0.25800  0.44440  0.53870  Biso   1.000  H
  H40      1.0000 0.04240  0.52330  0.51260  Biso   1.000  H
  H41      1.0000 0.73390  0.35130  0.52400  Biso   1.000  H
  H42      1.0000 0.94760  0.27130  0.54980  Biso   1.000  H
  H43      1.0000 0.64890  0.58490  0.63590  Biso   1.000  H
  H44      1.0000 0.50130  0.57190  0.74950  Biso   1.000  H
  H45      1.0000 0.18400  0.60850  0.59460  Biso   1.000  H
  H46      1.0000 0.00150  0.53420  0.67200  Biso   1.000  H
  H47      1.0000 0.78420  0.53700  0.74940  Biso   1.000  H
  H48      1.0000 0.06640  0.63150  0.89780  Biso   1.000  H
  H49      1.0000 0.28410  0.62980  0.81990  Biso   1.000  H
  H50      1.0000 0.41800  0.75250  0.36990  Biso   1.000  H
  H51      1.0000 0.60050  0.86080  0.36510  Biso   1.000  H
  H52      1.0000 0.78630  0.71070  0.49640  Biso   1.000  H
  H53      1.0000 0.74200  0.94440  0.46130  Biso   1.000  H
  H54      1.0000 0.95760  0.02330  0.48740  Biso   1.000  H
  H55      1.0000 0.26610  0.85130  0.47600  Biso   1.000  H
  H56      1.0000 0.05240  0.77130  0.45020  Biso   1.000  H
  C1       1.0000 0.53730  0.08790  0.85810  Biso   1.000  C
  C2       1.0000 0.45610  0.08020  0.79490  Biso   1.000  C
  C3       1.0000 0.28090  0.10060  0.88150  Biso   1.000  C
  C4       1.0000 0.16150  0.08580  0.76250  Biso   1.000  C
  C5       1.0000 0.01320  0.05490  0.78320  Biso   1.000  C
  C6       1.0000 0.88420  0.05550  0.73640  Biso   1.000  C
  C7       1.0000 0.90250  0.08370  0.66810  Biso   1.000  C
  C8       1.0000 0.05320  0.11230  0.64750  Biso   1.000  C
  C9       1.0000 0.18330  0.11220  0.69440  Biso   1.000  C
  C10      1.0000 0.76300  0.08820  0.61720  Biso   1.000  C
  C11      1.0000 0.51460  0.25790  0.10530  Biso   1.000  C
  C12      1.0000 0.61540  0.31810  0.10800  Biso   1.000  C
  C13      1.0000 0.71740  0.23450  0.03520  Biso   1.000  C
  C14      1.0000 0.87800  0.35110  0.04780  Biso   1.000  C
  C15      1.0000 0.84710  0.42590  0.03610  Biso   1.000  C
  C16      1.0000 0.97660  0.47310  0.02030  Biso   1.000  C
  C17      1.0000 0.13400  0.44550  0.01610  Biso   1.000  C
  C18      1.0000 0.16120  0.36990  0.02710  Biso   1.000  C
  C19      1.0000 0.03390  0.32170  0.04280  Biso   1.000  C
  C20      1.0000 0.27250  0.49730  0.00020  Biso   1.000  C
  C21      1.0000 0.46270  0.58790  0.14190  Biso   1.000  C
  C22      1.0000 0.54390  0.58020  0.20510  Biso   1.000  C
  C23      1.0000 0.71910  0.60060  0.11850  Biso   1.000  C
  C24      1.0000 0.83850  0.58580  0.23750  Biso   1.000  C
  C25      1.0000 0.98680  0.55490  0.21680  Biso   1.000  C
  C26      1.0000 0.11580  0.55550  0.26360  Biso   1.000  C
  C27      1.0000 0.09750  0.58370  0.33190  Biso   1.000  C
  C28      1.0000 0.94680  0.61230  0.35250  Biso   1.000  C
  C29      1.0000 0.81670  0.61220  0.30560  Biso   1.000  C
  C30      1.0000 0.23700  0.58820  0.38280  Biso   1.000  C
  C31      1.0000 0.48540  0.75790  0.89470  Biso   1.000  C
  C32      1.0000 0.38460  0.81810  0.89200  Biso   1.000  C
  C33      1.0000 0.28260  0.73450  0.96480  Biso   1.000  C
  C34      1.0000 0.12200  0.85110  0.95220  Biso   1.000  C
  C35      1.0000 0.15290  0.92590  0.96390  Biso   1.000  C
  C36      1.0000 0.02340  0.97310  0.97970  Biso   1.000  C
  C37      1.0000 0.86600  0.94550  0.98390  Biso   1.000  C
  C38      1.0000 0.83880  0.86990  0.97290  Biso   1.000  C
  C39      1.0000 0.96610  0.82170  0.95720  Biso   1.000  C
  C40      1.0000 0.72750  0.99730  0.99980  Biso   1.000  C
  C41      1.0000 0.46270  0.08790  0.35810  Biso   1.000  C
  C42      1.0000 0.54390  0.08020  0.29490  Biso   1.000  C
  C43      1.0000 0.71910  0.10060  0.38150  Biso   1.000  C
  C44      1.0000 0.83850  0.08580  0.26250  Biso   1.000  C
  C45      1.0000 0.98680  0.05490  0.28320  Biso   1.000  C
  C46      1.0000 0.11580  0.05550  0.23640  Biso   1.000  C
  C47      1.0000 0.09750  0.08370  0.16810  Biso   1.000  C
  C48      1.0000 0.94680  0.11230  0.14750  Biso   1.000  C
  C49      1.0000 0.81670  0.11220  0.19440  Biso   1.000  C
  C50      1.0000 0.23700  0.08820  0.11720  Biso   1.000  C
  C51      1.0000 0.48540  0.25790  0.60530  Biso   1.000  C
  C52      1.0000 0.38460  0.31810  0.60800  Biso   1.000  C
  C53      1.0000 0.28260  0.23450  0.53520  Biso   1.000  C
  C54      1.0000 0.12200  0.35110  0.54780  Biso   1.000  C
  C55      1.0000 0.15290  0.42590  0.53610  Biso   1.000  C
  C56      1.0000 0.02340  0.47310  0.52030  Biso   1.000  C
  C57      1.0000 0.86600  0.44550  0.51610  Biso   1.000  C
  C58      1.0000 0.83880  0.36990  0.52710  Biso   1.000  C
  C59      1.0000 0.96610  0.32170  0.54280  Biso   1.000  C
  C60      1.0000 0.72750  0.49730  0.50020  Biso   1.000  C
  C61      1.0000 0.53730  0.58790  0.64190  Biso   1.000  C
  C62      1.0000 0.45610  0.58020  0.70510  Biso   1.000  C
  C63      1.0000 0.28090  0.60060  0.61850  Biso   1.000  C
  C64      1.0000 0.16150  0.58580  0.73750  Biso   1.000  C
  C65      1.0000 0.01320  0.55490  0.71680  Biso   1.000  C
  C66      1.0000 0.88420  0.55550  0.76360  Biso   1.000  C
  C67      1.0000 0.90250  0.58370  0.83190  Biso   1.000  C
  C68      1.0000 0.05320  0.61230  0.85250  Biso   1.000  C
  C69      1.0000 0.18330  0.61220  0.80560  Biso   1.000  C
  C70      1.0000 0.76300  0.58820  0.88280  Biso   1.000  C
  C71      1.0000 0.51460  0.75790  0.39470  Biso   1.000  C
  C72      1.0000 0.61540  0.81810  0.39200  Biso   1.000  C
  C73      1.0000 0.71740  0.73450  0.46480  Biso   1.000  C
  C74      1.0000 0.87800  0.85110  0.45220  Biso   1.000  C
  C75      1.0000 0.84710  0.92590  0.46390  Biso   1.000  C
  C76      1.0000 0.97660  0.97310  0.47970  Biso   1.000  C
  C77      1.0000 0.13400  0.94550  0.48390  Biso   1.000  C
  C78      1.0000 0.16120  0.86990  0.47290  Biso   1.000  C
  C79      1.0000 0.03390  0.82170  0.45720  Biso   1.000  C
  C80      1.0000 0.27250  0.99730  0.49980  Biso   1.000  C
  N1       1.0000 0.42490  0.10100  0.91110  Biso   1.000  N
  N2       1.0000 0.29320  0.08720  0.81110  Biso   1.000  N
  N3       1.0000 0.58160  0.20600  0.05880  Biso   1.000  N
  N4       1.0000 0.74510  0.30320  0.06260  Biso   1.000  N
  N5       1.0000 0.57510  0.60100  0.08890  Biso   1.000  N
  N6       1.0000 0.70680  0.58720  0.18890  Biso   1.000  N
  N7       1.0000 0.41840  0.70600  0.94120  Biso   1.000  N
  N8       1.0000 0.25490  0.80320  0.93740  Biso   1.000  N
  N9       1.0000 0.57510  0.10100  0.41110  Biso   1.000  N
  N10      1.0000 0.70680  0.08720  0.31110  Biso   1.000  N
  N11      1.0000 0.41840  0.20600  0.55880  Biso   1.000  N
  N12      1.0000 0.25490  0.30320  0.56260  Biso   1.000  N
  N13      1.0000 0.42490  0.60100  0.58890  Biso   1.000  N
  N14      1.0000 0.29320  0.58720  0.68890  Biso   1.000  N
  N15      1.0000 0.58160  0.70600  0.44120  Biso   1.000  N
  N16      1.0000 0.74510  0.80320  0.43740  Biso   1.000  N
  O1       1.0000 0.62680  0.06120  0.63610  Biso   1.000  O
  O2       1.0000 0.78520  0.11770  0.55740  Biso   1.000  O
  O3       1.0000 0.24170  0.56610  0.99840  Biso   1.000  O
  O4       1.0000 0.41320  0.47200  0.98900  Biso   1.000  O
  O5       1.0000 0.37320  0.56120  0.36390  Biso   1.000  O
  O6       1.0000 0.21480  0.61770  0.44260  Biso   1.000  O
  O7       1.0000 0.75830  0.06610  0.00160  Biso   1.000  O
  O8       1.0000 0.58680  0.97200  0.01100  Biso   1.000  O
  O9       1.0000 0.37320  0.06120  0.13610  Biso   1.000  O
  O10      1.0000 0.21480  0.11770  0.05740  Biso   1.000  O
  O11      1.0000 0.75830  0.56610  0.49840  Biso   1.000  O
  O12      1.0000 0.58680  0.47200  0.48900  Biso   1.000  O
  O13      1.0000 0.62680  0.56120  0.86390  Biso   1.000  O
  O14      1.0000 0.78520  0.61770  0.94260  Biso   1.000  O
  O15      1.0000 0.24170  0.06610  0.50160  Biso   1.000  O
  O16      1.0000 0.41320  0.97200  0.51100  Biso   1.000  O
