data_image0
_cell_length_a       16.0857
_cell_length_b       9.1973
_cell_length_c       15.4216
_cell_angle_alpha    90
_cell_angle_beta     112.033
_cell_angle_gamma    90

_symmetry_space_group_name_H-M    "P 1"
_symmetry_int_tables_number       1

loop_
  _symmetry_equiv_pos_as_xyz
  'x, y, z'

loop_
  _atom_site_label
  _atom_site_occupancy
  _atom_site_fract_x
  _atom_site_fract_y
  _atom_site_fract_z
  _atom_site_thermal_displace_type
  _atom_site_B_iso_or_equiv
  _atom_site_type_symbol
  As1      1.0000 0.71917  0.44957  0.84055  Biso   1.000  As
  As2      1.0000 0.77730  0.20336  0.11857  Biso   1.000  As
  As3      1.0000 0.52912  0.72967  0.04077  Biso   1.000  As
  Zn1      1.0000 0.89358  0.25085  0.97465  Biso   1.000  Zn
  Zn2      1.0000 0.64665  0.46904  0.01269  Biso   1.000  Zn
  Zn3      1.0000 0.59249  0.43346  0.62934  Biso   1.000  Zn
  O1       1.0000 0.71550  0.52390  0.93720  Biso   1.000  O
  O2       1.0000 0.79210  0.31470  0.85470  Biso   1.000  O
  O3       1.0000 0.61700  0.40430  0.76390  Biso   1.000  O
  O4       1.0000 0.75610  0.59400  0.79140  Biso   1.000  O
  H1       1.0000 0.76020  0.56760  0.74240  Biso   1.000  H
  O5       1.0000 0.72790  0.36200  0.11950  Biso   1.000  O
  O6       1.0000 0.80930  0.16890  0.03080  Biso   1.000  O
  O7       1.0000 0.71210  0.05960  0.12240  Biso   1.000  O
  O8       1.0000 0.87170  0.19630  0.22000  Biso   1.000  O
  H2       1.0000 0.85790  0.21310  0.26500  Biso   1.000  H
  O9       1.0000 0.53480  0.87820  0.10520  Biso   1.000  O
  O10      1.0000 0.63260  0.66270  0.06160  Biso   1.000  O
  O11      1.0000 0.48190  0.76770  0.92570  Biso   1.000  O
  O12      1.0000 0.46670  0.60780  0.07030  Biso   1.000  O
  O13      1.0000 0.93130  0.44030  0.05820  Biso   1.000  O
  O14      1.0000 0.00220  0.13650  0.07970  Biso   1.000  O
  O15      1.0000 0.08680  0.93470  0.10060  Biso   1.000  O
  O16      1.0000 0.01530  0.64000  0.08060  Biso   1.000  O
  C1       1.0000 0.98530  0.52340  0.03980  Biso   1.000  C
  C2       1.0000 0.02550  0.02120  0.05220  Biso   1.000  C
  As4      1.0000 0.28083  0.94957  0.65945  Biso   1.000  As
  As5      1.0000 0.22270  0.70336  0.38143  Biso   1.000  As
  As6      1.0000 0.47088  0.22967  0.45923  Biso   1.000  As
  Zn4      1.0000 0.10642  0.75085  0.52535  Biso   1.000  Zn
  Zn5      1.0000 0.35335  0.96904  0.48731  Biso   1.000  Zn
  Zn6      1.0000 0.40751  0.93346  0.87066  Biso   1.000  Zn
  O17      1.0000 0.28450  0.02390  0.56280  Biso   1.000  O
  O18      1.0000 0.20790  0.81470  0.64530  Biso   1.000  O
  O19      1.0000 0.38300  0.90430  0.73610  Biso   1.000  O
  O20      1.0000 0.24390  0.09400  0.70860  Biso   1.000  O
  H3       1.0000 0.23980  0.06760  0.75760  Biso   1.000  H
  O21      1.0000 0.27210  0.86200  0.38050  Biso   1.000  O
  O22      1.0000 0.19070  0.66890  0.46920  Biso   1.000  O
  O23      1.0000 0.28790  0.55960  0.37760  Biso   1.000  O
  O24      1.0000 0.12830  0.69630  0.28000  Biso   1.000  O
  H4       1.0000 0.14210  0.71310  0.23500  Biso   1.000  H
  O25      1.0000 0.46520  0.37820  0.39480  Biso   1.000  O
  O26      1.0000 0.36740  0.16270  0.43840  Biso   1.000  O
  O27      1.0000 0.51810  0.26770  0.57430  Biso   1.000  O
  O28      1.0000 0.53330  0.10780  0.42970  Biso   1.000  O
  O29      1.0000 0.06870  0.94030  0.44180  Biso   1.000  O
  O30      1.0000 0.99780  0.63650  0.42030  Biso   1.000  O
  O31      1.0000 0.91320  0.43470  0.39940  Biso   1.000  O
  O32      1.0000 0.98470  0.14000  0.41940  Biso   1.000  O
  C3       1.0000 0.01470  0.02340  0.46020  Biso   1.000  C
  C4       1.0000 0.97450  0.52120  0.44780  Biso   1.000  C
  As7      1.0000 0.28083  0.55043  0.15945  Biso   1.000  As
  As8      1.0000 0.22270  0.79664  0.88143  Biso   1.000  As
  As9      1.0000 0.47088  0.27033  0.95923  Biso   1.000  As
  Zn7      1.0000 0.10642  0.74915  0.02535  Biso   1.000  Zn
  Zn8      1.0000 0.35335  0.53096  0.98731  Biso   1.000  Zn
  Zn9      1.0000 0.40751  0.56654  0.37066  Biso   1.000  Zn
  O33      1.0000 0.28450  0.47610  0.06280  Biso   1.000  O
  O34      1.0000 0.20790  0.68530  0.14530  Biso   1.000  O
  O35      1.0000 0.38300  0.59570  0.23610  Biso   1.000  O
  O36      1.0000 0.24390  0.40600  0.20860  Biso   1.000  O
  H5       1.0000 0.23980  0.43240  0.25760  Biso   1.000  H
  O37      1.0000 0.27210  0.63800  0.88050  Biso   1.000  O
  O38      1.0000 0.19070  0.83110  0.96920  Biso   1.000  O
  O39      1.0000 0.28790  0.94040  0.87760  Biso   1.000  O
  O40      1.0000 0.12830  0.80370  0.78000  Biso   1.000  O
  H6       1.0000 0.14210  0.78690  0.73500  Biso   1.000  H
  O41      1.0000 0.46520  0.12180  0.89480  Biso   1.000  O
  O42      1.0000 0.36740  0.33730  0.93840  Biso   1.000  O
  O43      1.0000 0.51810  0.23230  0.07430  Biso   1.000  O
  O44      1.0000 0.53330  0.39220  0.92970  Biso   1.000  O
  O45      1.0000 0.06870  0.55970  0.94180  Biso   1.000  O
  O46      1.0000 0.99780  0.86350  0.92030  Biso   1.000  O
  O47      1.0000 0.91320  0.06530  0.89940  Biso   1.000  O
  O48      1.0000 0.98470  0.36000  0.91940  Biso   1.000  O
  C5       1.0000 0.01470  0.47660  0.96020  Biso   1.000  C
  C6       1.0000 0.97450  0.97880  0.94780  Biso   1.000  C
  As10     1.0000 0.71917  0.05043  0.34055  Biso   1.000  As
  As11     1.0000 0.77730  0.29664  0.61857  Biso   1.000  As
  As12     1.0000 0.52912  0.77033  0.54077  Biso   1.000  As
  Zn10     1.0000 0.89358  0.24915  0.47465  Biso   1.000  Zn
  Zn11     1.0000 0.64665  0.03096  0.51269  Biso   1.000  Zn
  Zn12     1.0000 0.59249  0.06654  0.12934  Biso   1.000  Zn
  O49      1.0000 0.71550  0.97610  0.43720  Biso   1.000  O
  O50      1.0000 0.79210  0.18530  0.35470  Biso   1.000  O
  O51      1.0000 0.61700  0.09570  0.26390  Biso   1.000  O
  O52      1.0000 0.75610  0.90600  0.29140  Biso   1.000  O
  H7       1.0000 0.76020  0.93240  0.24240  Biso   1.000  H
  O53      1.0000 0.72790  0.13800  0.61950  Biso   1.000  O
  O54      1.0000 0.80930  0.33110  0.53080  Biso   1.000  O
  O55      1.0000 0.71210  0.44040  0.62240  Biso   1.000  O
  O56      1.0000 0.87170  0.30370  0.72000  Biso   1.000  O
  H8       1.0000 0.85790  0.28690  0.76500  Biso   1.000  H
  O57      1.0000 0.53480  0.62180  0.60520  Biso   1.000  O
  O58      1.0000 0.63260  0.83730  0.56160  Biso   1.000  O
  O59      1.0000 0.48190  0.73230  0.42570  Biso   1.000  O
  O60      1.0000 0.46670  0.89220  0.57030  Biso   1.000  O
  O61      1.0000 0.93130  0.05970  0.55820  Biso   1.000  O
  O62      1.0000 0.00220  0.36350  0.57970  Biso   1.000  O
  O63      1.0000 0.08680  0.56530  0.60060  Biso   1.000  O
  O64      1.0000 0.01530  0.86000  0.58060  Biso   1.000  O
  C7       1.0000 0.98530  0.97660  0.53980  Biso   1.000  C
  C8       1.0000 0.02550  0.47880  0.55220  Biso   1.000  C
