data_image0
_cell_length_a       13.9822
_cell_length_b       13.9822
_cell_length_c       6.2233
_cell_angle_alpha    90
_cell_angle_beta     90
_cell_angle_gamma    90

_symmetry_space_group_name_H-M    "P 1"
_symmetry_int_tables_number       1

loop_
  _symmetry_equiv_pos_as_xyz
  'x, y, z'

loop_
  _atom_site_label
  _atom_site_occupancy
  _atom_site_fract_x
  _atom_site_fract_y
  _atom_site_fract_z
  _atom_site_thermal_displace_type
  _atom_site_B_iso_or_equiv
  _atom_site_type_symbol
  N1       1.0000 0.64090  0.70440  0.07370  Biso   1.000  N
  C1       1.0000 0.55490  0.62750  0.83550  Biso   1.000  C
  C2       1.0000 0.49700  0.69760  0.91540  Biso   1.000  C
  C3       1.0000 0.64060  0.63280  0.92950  Biso   1.000  C
  C4       1.0000 0.55280  0.74180  0.06260  Biso   1.000  C
  C5       1.0000 0.52470  0.56190  0.66460  Biso   1.000  C
  C6       1.0000 0.55550  0.46720  0.66840  Biso   1.000  C
  H1       1.0000 0.59230  0.44490  0.78230  Biso   1.000  H
  C7       1.0000 0.46890  0.59320  0.49730  Biso   1.000  C
  H2       1.0000 0.44730  0.65610  0.49590  Biso   1.000  H
  H3       1.0000 0.69900  0.59700  0.91900  Biso   1.000  H
  H4       1.0000 0.54100  0.79300  0.15500  Biso   1.000  H
  N2       1.0000 0.44510  0.37250  0.16450  Biso   1.000  N
  N3       1.0000 0.85910  0.79560  0.07370  Biso   1.000  N
  C8       1.0000 0.94510  0.87250  0.83550  Biso   1.000  C
  C9       1.0000 0.00300  0.80240  0.91540  Biso   1.000  C
  C10      1.0000 0.85940  0.86720  0.92950  Biso   1.000  C
  C11      1.0000 0.94720  0.75820  0.06260  Biso   1.000  C
  C12      1.0000 0.97530  0.93810  0.66460  Biso   1.000  C
  C13      1.0000 0.94450  0.03280  0.66840  Biso   1.000  C
  H5       1.0000 0.90770  0.05510  0.78230  Biso   1.000  H
  C14      1.0000 0.03110  0.90680  0.49730  Biso   1.000  C
  H6       1.0000 0.05270  0.84390  0.49590  Biso   1.000  H
  H7       1.0000 0.80100  0.90300  0.91900  Biso   1.000  H
  H8       1.0000 0.95900  0.70700  0.15500  Biso   1.000  H
  N4       1.0000 0.05490  0.12750  0.16450  Biso   1.000  N
  N5       1.0000 0.29560  0.14090  0.57370  Biso   1.000  N
  C15      1.0000 0.37250  0.05490  0.33550  Biso   1.000  C
  C16      1.0000 0.30240  0.99700  0.41540  Biso   1.000  C
  C17      1.0000 0.36720  0.14060  0.42950  Biso   1.000  C
  C18      1.0000 0.25820  0.05280  0.56260  Biso   1.000  C
  C19      1.0000 0.43810  0.02470  0.16460  Biso   1.000  C
  C20      1.0000 0.53280  0.05550  0.16840  Biso   1.000  C
  H9       1.0000 0.55510  0.09230  0.28230  Biso   1.000  H
  C21      1.0000 0.40680  0.96890  0.99730  Biso   1.000  C
  H10      1.0000 0.34390  0.94730  0.99590  Biso   1.000  H
  H11      1.0000 0.40300  0.19900  0.41900  Biso   1.000  H
  H12      1.0000 0.20700  0.04100  0.65500  Biso   1.000  H
  N6       1.0000 0.62750  0.94510  0.66450  Biso   1.000  N
  N7       1.0000 0.20440  0.35910  0.57370  Biso   1.000  N
  C22      1.0000 0.12750  0.44510  0.33550  Biso   1.000  C
  C23      1.0000 0.19760  0.50300  0.41540  Biso   1.000  C
  C24      1.0000 0.13280  0.35940  0.42950  Biso   1.000  C
  C25      1.0000 0.24180  0.44720  0.56260  Biso   1.000  C
  C26      1.0000 0.06190  0.47530  0.16460  Biso   1.000  C
  C27      1.0000 0.96720  0.44450  0.16840  Biso   1.000  C
  H13      1.0000 0.94490  0.40770  0.28230  Biso   1.000  H
  C28      1.0000 0.09320  0.53110  0.99730  Biso   1.000  C
  H14      1.0000 0.15610  0.55270  0.99590  Biso   1.000  H
  H15      1.0000 0.09700  0.30100  0.41900  Biso   1.000  H
  H16      1.0000 0.29300  0.45900  0.65500  Biso   1.000  H
  N8       1.0000 0.87250  0.55490  0.66450  Biso   1.000  N
  N9       1.0000 0.35910  0.29560  0.92630  Biso   1.000  N
  C29      1.0000 0.50300  0.30240  0.08460  Biso   1.000  C
  C30      1.0000 0.35940  0.36720  0.07050  Biso   1.000  C
  C31      1.0000 0.44720  0.25820  0.93740  Biso   1.000  C
  C32      1.0000 0.47530  0.43810  0.33540  Biso   1.000  C
  C33      1.0000 0.44450  0.53280  0.33160  Biso   1.000  C
  H17      1.0000 0.40770  0.55510  0.21770  Biso   1.000  H
  C34      1.0000 0.53110  0.40680  0.50270  Biso   1.000  C
  H18      1.0000 0.55270  0.34390  0.50410  Biso   1.000  H
  H19      1.0000 0.30100  0.40300  0.08100  Biso   1.000  H
  H20      1.0000 0.45900  0.20700  0.84500  Biso   1.000  H
  N10      1.0000 0.14090  0.20440  0.92630  Biso   1.000  N
  C35      1.0000 0.99700  0.19760  0.08460  Biso   1.000  C
  C36      1.0000 0.14060  0.13280  0.07050  Biso   1.000  C
  C37      1.0000 0.05280  0.24180  0.93740  Biso   1.000  C
  C38      1.0000 0.02470  0.06190  0.33540  Biso   1.000  C
  C39      1.0000 0.05550  0.96720  0.33160  Biso   1.000  C
  H21      1.0000 0.09230  0.94490  0.21770  Biso   1.000  H
  C40      1.0000 0.96890  0.09320  0.50270  Biso   1.000  C
  H22      1.0000 0.94730  0.15610  0.50410  Biso   1.000  H
  H23      1.0000 0.19900  0.09700  0.08100  Biso   1.000  H
  H24      1.0000 0.04100  0.29300  0.84500  Biso   1.000  H
  N11      1.0000 0.70440  0.85910  0.42630  Biso   1.000  N
  C41      1.0000 0.69760  0.00300  0.58460  Biso   1.000  C
  C42      1.0000 0.63280  0.85940  0.57050  Biso   1.000  C
  C43      1.0000 0.74180  0.94720  0.43740  Biso   1.000  C
  C44      1.0000 0.56190  0.97530  0.83540  Biso   1.000  C
  C45      1.0000 0.46720  0.94450  0.83160  Biso   1.000  C
  H25      1.0000 0.44490  0.90770  0.71770  Biso   1.000  H
  C46      1.0000 0.59320  0.03110  0.00270  Biso   1.000  C
  H26      1.0000 0.65610  0.05270  0.00410  Biso   1.000  H
  H27      1.0000 0.59700  0.80100  0.58100  Biso   1.000  H
  H28      1.0000 0.79300  0.95900  0.34500  Biso   1.000  H
  N12      1.0000 0.79560  0.64090  0.42630  Biso   1.000  N
  C47      1.0000 0.80240  0.49700  0.58460  Biso   1.000  C
  C48      1.0000 0.86720  0.64060  0.57050  Biso   1.000  C
  C49      1.0000 0.75820  0.55280  0.43740  Biso   1.000  C
  C50      1.0000 0.93810  0.52470  0.83540  Biso   1.000  C
  C51      1.0000 0.03280  0.55550  0.83160  Biso   1.000  C
  H29      1.0000 0.05510  0.59230  0.71770  Biso   1.000  H
  C52      1.0000 0.90680  0.46890  0.00270  Biso   1.000  C
  H30      1.0000 0.84390  0.44730  0.00410  Biso   1.000  H
  H31      1.0000 0.90300  0.69900  0.58100  Biso   1.000  H
  H32      1.0000 0.70700  0.54100  0.34500  Biso   1.000  H
  Zn1      1.0000 0.75000  0.75000  0.25000  Biso   1.000  Zn
  Zn2      1.0000 0.25000  0.25000  0.75000  Biso   1.000  Zn
