data_image0
_cell_length_a       3.4926
_cell_length_b       9.828
_cell_length_c       17.185
_cell_angle_alpha    90
_cell_angle_beta     93.753
_cell_angle_gamma    90

_symmetry_space_group_name_H-M    P 1
_symmetry_int_tables_number       1

loop_
  _symmetry_equiv_pos_as_xyz
  'x, y, z'

loop_
  _atom_site_label
  _atom_site_occupancy
  _atom_site_fract_x
  _atom_site_fract_y
  _atom_site_fract_z
  _atom_site_thermal_displace_type
  _atom_site_B_iso_or_equiv
  _atom_site_type_symbol
  Cu1      1.0000 0.58112  0.24095  0.72802  Biso   1.000  Cu
  Cu2      1.0000 0.12930  0.45535  0.60664  Biso   1.000  Cu
  Cu3      1.0000 0.08112  0.75905  0.22802  Biso   1.000  Cu
  Cu4      1.0000 0.62930  0.54465  0.10664  Biso   1.000  Cu
  H1       1.0000 0.61090  0.78300  0.71580  Biso   1.000  H
  H2       1.0000 0.94610  0.54250  0.89700  Biso   1.000  H
  H3       1.0000 0.08800  0.95020  0.91280  Biso   1.000  H
  H4       1.0000 0.11090  0.21700  0.21580  Biso   1.000  H
  H5       1.0000 0.44610  0.45750  0.39700  Biso   1.000  H
  H6       1.0000 0.58800  0.04980  0.41280  Biso   1.000  H
  C1       1.0000 0.83950  0.88710  0.80890  Biso   1.000  C
  C2       1.0000 0.71700  0.77350  0.76660  Biso   1.000  C
  C3       1.0000 0.75200  0.64550  0.80040  Biso   1.000  C
  C4       1.0000 0.91900  0.62900  0.87540  Biso   1.000  C
  C5       1.0000 0.04700  0.74320  0.91820  Biso   1.000  C
  C6       1.0000 0.00530  0.87360  0.88470  Biso   1.000  C
  C7       1.0000 0.77000  0.02520  0.77550  Biso   1.000  C
  C8       1.0000 0.60800  0.52540  0.75260  Biso   1.000  C
  C9       1.0000 0.23900  0.73100  0.99870  Biso   1.000  C
  C10      1.0000 0.33950  0.11290  0.30890  Biso   1.000  C
  C11      1.0000 0.21700  0.22650  0.26660  Biso   1.000  C
  C12      1.0000 0.25200  0.35450  0.30040  Biso   1.000  C
  C13      1.0000 0.41900  0.37100  0.37540  Biso   1.000  C
  C14      1.0000 0.54700  0.25680  0.41820  Biso   1.000  C
  C15      1.0000 0.50530  0.12640  0.38470  Biso   1.000  C
  C16      1.0000 0.27000  0.97480  0.27550  Biso   1.000  C
  C17      1.0000 0.10800  0.47460  0.25260  Biso   1.000  C
  C18      1.0000 0.73900  0.26900  0.49870  Biso   1.000  C
  O1       1.0000 0.58110  0.04020  0.71040  Biso   1.000  O
  O2       1.0000 0.88660  0.13170  0.81220  Biso   1.000  O
  O3       1.0000 0.63020  0.40900  0.78560  Biso   1.000  O
  O4       1.0000 0.13820  0.28780  0.66310  Biso   1.000  O
  O5       1.0000 0.49320  0.54610  0.68330  Biso   1.000  O
  O6       1.0000 0.09500  0.63050  0.55630  Biso   1.000  O
  O7       1.0000 0.24890  0.60920  0.02700  Biso   1.000  O
  O8       1.0000 0.37650  0.83180  0.03190  Biso   1.000  O
  O9       1.0000 0.08110  0.95980  0.21040  Biso   1.000  O
  O10      1.0000 0.38660  0.86830  0.31220  Biso   1.000  O
  O11      1.0000 0.13020  0.59100  0.28560  Biso   1.000  O
  O12      1.0000 0.63820  0.71220  0.16310  Biso   1.000  O
  O13      1.0000 0.99320  0.45390  0.18330  Biso   1.000  O
  O14      1.0000 0.59500  0.36950  0.05630  Biso   1.000  O
  O15      1.0000 0.74890  0.39080  0.52700  Biso   1.000  O
  O16      1.0000 0.87650  0.16820  0.53190  Biso   1.000  O
