data_image0
_cell_length_a       9.0167
_cell_length_b       15.1313
_cell_length_c       16.8284
_cell_angle_alpha    90
_cell_angle_beta     90
_cell_angle_gamma    103.841

_symmetry_space_group_name_H-M    P 1
_symmetry_int_tables_number       1

loop_
  _symmetry_equiv_pos_as_xyz
  'x, y, z'

loop_
  _atom_site_label
  _atom_site_occupancy
  _atom_site_fract_x
  _atom_site_fract_y
  _atom_site_fract_z
  _atom_site_thermal_displace_type
  _atom_site_B_iso_or_equiv
  _atom_site_type_symbol
  Pr1      1.0000 0.43271  0.03854  0.89087  Biso   1.000  Pr
  Pr2      1.0000 0.06729  0.96146  0.39087  Biso   1.000  Pr
  Pr3      1.0000 0.56729  0.96146  0.10913  Biso   1.000  Pr
  Pr4      1.0000 0.93271  0.03854  0.60913  Biso   1.000  Pr
  H1       1.0000 0.99560  0.86150  0.99120  Biso   1.000  H
  H2       1.0000 0.96690  0.91190  0.06900  Biso   1.000  H
  H3       1.0000 0.14630  0.78370  0.94670  Biso   1.000  H
  H4       1.0000 0.24230  0.66560  0.90000  Biso   1.000  H
  H5       1.0000 0.13460  0.53220  0.10510  Biso   1.000  H
  H6       1.0000 0.03480  0.64870  0.15100  Biso   1.000  H
  H7       1.0000 0.15120  0.42050  0.04360  Biso   1.000  H
  H8       1.0000 0.65160  0.36570  0.76000  Biso   1.000  H
  H9       1.0000 0.56820  0.49270  0.79170  Biso   1.000  H
  H10      1.0000 0.45030  0.26960  0.05310  Biso   1.000  H
  H11      1.0000 0.28860  0.20180  0.05840  Biso   1.000  H
  H12      1.0000 0.65210  0.24020  0.72160  Biso   1.000  H
  H13      1.0000 0.77810  0.22550  0.78120  Biso   1.000  H
  H14      1.0000 0.16830  0.92920  0.80810  Biso   1.000  H
  H15      1.0000 0.22820  0.87190  0.85470  Biso   1.000  H
  H16      1.0000 0.50440  0.13850  0.49120  Biso   1.000  H
  H17      1.0000 0.53310  0.08810  0.56900  Biso   1.000  H
  H18      1.0000 0.35370  0.21630  0.44670  Biso   1.000  H
  H19      1.0000 0.25770  0.33440  0.40000  Biso   1.000  H
  H20      1.0000 0.36540  0.46780  0.60510  Biso   1.000  H
  H21      1.0000 0.46520  0.35130  0.65100  Biso   1.000  H
  H22      1.0000 0.34880  0.57950  0.54360  Biso   1.000  H
  H23      1.0000 0.84840  0.63430  0.26000  Biso   1.000  H
  H24      1.0000 0.93180  0.50730  0.29170  Biso   1.000  H
  H25      1.0000 0.04970  0.73040  0.55310  Biso   1.000  H
  H26      1.0000 0.21140  0.79820  0.55840  Biso   1.000  H
  H27      1.0000 0.84790  0.75980  0.22160  Biso   1.000  H
  H28      1.0000 0.72190  0.77450  0.28120  Biso   1.000  H
  H29      1.0000 0.33170  0.07080  0.30810  Biso   1.000  H
  H30      1.0000 0.27180  0.12810  0.35470  Biso   1.000  H
  H31      1.0000 0.00440  0.13850  0.00880  Biso   1.000  H
  H32      1.0000 0.03310  0.08810  0.93100  Biso   1.000  H
  H33      1.0000 0.85370  0.21630  0.05330  Biso   1.000  H
  H34      1.0000 0.75770  0.33440  0.10000  Biso   1.000  H
  H35      1.0000 0.86540  0.46780  0.89490  Biso   1.000  H
  H36      1.0000 0.96520  0.35130  0.84900  Biso   1.000  H
  H37      1.0000 0.84880  0.57950  0.95640  Biso   1.000  H
  H38      1.0000 0.34840  0.63430  0.24000  Biso   1.000  H
  H39      1.0000 0.43180  0.50730  0.20830  Biso   1.000  H
  H40      1.0000 0.54970  0.73040  0.94690  Biso   1.000  H
  H41      1.0000 0.71140  0.79820  0.94160  Biso   1.000  H
  H42      1.0000 0.34790  0.75980  0.27840  Biso   1.000  H
  H43      1.0000 0.22190  0.77450  0.21880  Biso   1.000  H
  H44      1.0000 0.83170  0.07080  0.19190  Biso   1.000  H
  H45      1.0000 0.77180  0.12810  0.14530  Biso   1.000  H
  H46      1.0000 0.49560  0.86150  0.50880  Biso   1.000  H
  H47      1.0000 0.46690  0.91190  0.43100  Biso   1.000  H
  H48      1.0000 0.64630  0.78370  0.55330  Biso   1.000  H
  H49      1.0000 0.74230  0.66560  0.60000  Biso   1.000  H
  H50      1.0000 0.63460  0.53220  0.39490  Biso   1.000  H
  H51      1.0000 0.53480  0.64870  0.34900  Biso   1.000  H
  H52      1.0000 0.65120  0.42050  0.45640  Biso   1.000  H
  H53      1.0000 0.15160  0.36570  0.74000  Biso   1.000  H
  H54      1.0000 0.06820  0.49270  0.70830  Biso   1.000  H
  H55      1.0000 0.95030  0.26960  0.44690  Biso   1.000  H
  H56      1.0000 0.78860  0.20180  0.44160  Biso   1.000  H
  H57      1.0000 0.15210  0.24020  0.77840  Biso   1.000  H
  H58      1.0000 0.27810  0.22550  0.71880  Biso   1.000  H
  H59      1.0000 0.66830  0.92920  0.69190  Biso   1.000  H
  H60      1.0000 0.72820  0.87190  0.64530  Biso   1.000  H
  C1       1.0000 0.19400  0.93770  0.03970  Biso   1.000  C
  C2       1.0000 0.03280  0.87740  0.04470  Biso   1.000  C
  C3       1.0000 0.08290  0.72960  0.05460  Biso   1.000  C
  C4       1.0000 0.14410  0.73340  0.97890  Biso   1.000  C
  C5       1.0000 0.20210  0.66210  0.95110  Biso   1.000  C
  C6       1.0000 0.20220  0.58560  0.99690  Biso   1.000  C
  C7       1.0000 0.13770  0.58240  0.07280  Biso   1.000  C
  C8       1.0000 0.07840  0.65280  0.10060  Biso   1.000  C
  C9       1.0000 0.37770  0.52050  0.90390  Biso   1.000  C
  C10      1.0000 0.26640  0.50910  0.96840  Biso   1.000  C
  C11      1.0000 0.22320  0.42680  0.00310  Biso   1.000  C
  C12      1.0000 0.37780  0.35770  0.92480  Biso   1.000  C
  C13      1.0000 0.43190  0.28010  0.90890  Biso   1.000  C
  C14      1.0000 0.53040  0.28310  0.84490  Biso   1.000  C
  C15      1.0000 0.58280  0.36370  0.80150  Biso   1.000  C
  C16      1.0000 0.53230  0.43940  0.82050  Biso   1.000  C
  C17      1.0000 0.42850  0.43840  0.88170  Biso   1.000  C
  C18      1.0000 0.39170  0.20940  0.03820  Biso   1.000  C
  C19      1.0000 0.46370  0.13770  0.07370  Biso   1.000  C
  C20      1.0000 0.67350  0.20170  0.76410  Biso   1.000  C
  C21      1.0000 0.65460  0.10590  0.73370  Biso   1.000  C
  C22      1.0000 0.30600  0.06230  0.53970  Biso   1.000  C
  C23      1.0000 0.46720  0.12260  0.54470  Biso   1.000  C
  C24      1.0000 0.41710  0.27040  0.55460  Biso   1.000  C
  C25      1.0000 0.35590  0.26660  0.47890  Biso   1.000  C
  C26      1.0000 0.29790  0.33790  0.45110  Biso   1.000  C
  C27      1.0000 0.29780  0.41440  0.49690  Biso   1.000  C
  C28      1.0000 0.36230  0.41760  0.57280  Biso   1.000  C
  C29      1.0000 0.42160  0.34720  0.60060  Biso   1.000  C
  C30      1.0000 0.12230  0.47950  0.40390  Biso   1.000  C
  C31      1.0000 0.23360  0.49090  0.46840  Biso   1.000  C
  C32      1.0000 0.27680  0.57320  0.50310  Biso   1.000  C
  C33      1.0000 0.12220  0.64230  0.42480  Biso   1.000  C
  C34      1.0000 0.06810  0.71990  0.40890  Biso   1.000  C
  C35      1.0000 0.96960  0.71690  0.34490  Biso   1.000  C
  C36      1.0000 0.91720  0.63630  0.30150  Biso   1.000  C
  C37      1.0000 0.96770  0.56060  0.32050  Biso   1.000  C
  C38      1.0000 0.07150  0.56160  0.38170  Biso   1.000  C
  C39      1.0000 0.10830  0.79060  0.53820  Biso   1.000  C
  C40      1.0000 0.03630  0.86230  0.57370  Biso   1.000  C
  C41      1.0000 0.82650  0.79830  0.26410  Biso   1.000  C
  C42      1.0000 0.84540  0.89410  0.23370  Biso   1.000  C
  C43      1.0000 0.80600  0.06230  0.96030  Biso   1.000  C
  C44      1.0000 0.96720  0.12260  0.95530  Biso   1.000  C
  C45      1.0000 0.91710  0.27040  0.94540  Biso   1.000  C
  C46      1.0000 0.85590  0.26660  0.02110  Biso   1.000  C
  C47      1.0000 0.79790  0.33790  0.04890  Biso   1.000  C
  C48      1.0000 0.79780  0.41440  0.00310  Biso   1.000  C
  C49      1.0000 0.86230  0.41760  0.92720  Biso   1.000  C
  C50      1.0000 0.92160  0.34720  0.89940  Biso   1.000  C
  C51      1.0000 0.62230  0.47950  0.09610  Biso   1.000  C
  C52      1.0000 0.73360  0.49090  0.03160  Biso   1.000  C
  C53      1.0000 0.77680  0.57320  0.99690  Biso   1.000  C
  C54      1.0000 0.62220  0.64230  0.07520  Biso   1.000  C
  C55      1.0000 0.56810  0.71990  0.09110  Biso   1.000  C
  C56      1.0000 0.46960  0.71690  0.15510  Biso   1.000  C
  C57      1.0000 0.41720  0.63630  0.19850  Biso   1.000  C
  C58      1.0000 0.46770  0.56060  0.17950  Biso   1.000  C
  C59      1.0000 0.57150  0.56160  0.11830  Biso   1.000  C
  C60      1.0000 0.60830  0.79060  0.96180  Biso   1.000  C
  C61      1.0000 0.53630  0.86230  0.92630  Biso   1.000  C
  C62      1.0000 0.32650  0.79830  0.23590  Biso   1.000  C
  C63      1.0000 0.34540  0.89410  0.26630  Biso   1.000  C
  C64      1.0000 0.69400  0.93770  0.46030  Biso   1.000  C
  C65      1.0000 0.53280  0.87740  0.45530  Biso   1.000  C
  C66      1.0000 0.58290  0.72960  0.44540  Biso   1.000  C
  C67      1.0000 0.64410  0.73340  0.52110  Biso   1.000  C
  C68      1.0000 0.70210  0.66210  0.54890  Biso   1.000  C
  C69      1.0000 0.70220  0.58560  0.50310  Biso   1.000  C
  C70      1.0000 0.63770  0.58240  0.42720  Biso   1.000  C
  C71      1.0000 0.57840  0.65280  0.39940  Biso   1.000  C
  C72      1.0000 0.87770  0.52050  0.59610  Biso   1.000  C
  C73      1.0000 0.76640  0.50910  0.53160  Biso   1.000  C
  C74      1.0000 0.72320  0.42680  0.49690  Biso   1.000  C
  C75      1.0000 0.87780  0.35770  0.57520  Biso   1.000  C
  C76      1.0000 0.93190  0.28010  0.59110  Biso   1.000  C
  C77      1.0000 0.03040  0.28310  0.65510  Biso   1.000  C
  C78      1.0000 0.08280  0.36370  0.69850  Biso   1.000  C
  C79      1.0000 0.03230  0.43940  0.67950  Biso   1.000  C
  C80      1.0000 0.92850  0.43840  0.61830  Biso   1.000  C
  C81      1.0000 0.89170  0.20940  0.46180  Biso   1.000  C
  C82      1.0000 0.96370  0.13770  0.42630  Biso   1.000  C
  C83      1.0000 0.17350  0.20170  0.73590  Biso   1.000  C
  C84      1.0000 0.15460  0.10590  0.76630  Biso   1.000  C
  O1       1.0000 0.21820  0.99270  0.98290  Biso   1.000  O
  O2       1.0000 0.28670  0.93010  0.09330  Biso   1.000  O
  O3       1.0000 0.02210  0.79530  0.08925  Biso   1.000  O
  O4       1.0000 0.42960  0.59290  0.86910  Biso   1.000  O
  O5       1.0000 0.27460  0.35200  0.98453  Biso   1.000  O
  O6       1.0000 0.38800  0.20080  0.95140  Biso   1.000  O
  O7       1.0000 0.46300  0.12930  0.14560  Biso   1.000  O
  O8       1.0000 0.52210  0.09040  0.02730  Biso   1.000  O
  O9       1.0000 0.57210  0.20345  0.82935  Biso   1.000  O
  O10      1.0000 0.74800  0.09890  0.68040  Biso   1.000  O
  O11      1.0000 0.54820  0.04420  0.75841  Biso   1.000  O
  O12      1.0000 0.24880  0.91110  0.81760  Biso   1.000  O
  O13      1.0000 0.28180  0.00730  0.48290  Biso   1.000  O
  O14      1.0000 0.21330  0.06990  0.59330  Biso   1.000  O
  O15      1.0000 0.47790  0.20470  0.58925  Biso   1.000  O
  O16      1.0000 0.07040  0.40710  0.36910  Biso   1.000  O
  O17      1.0000 0.22540  0.64800  0.48453  Biso   1.000  O
  O18      1.0000 0.11200  0.79920  0.45140  Biso   1.000  O
  O19      1.0000 0.03700  0.87070  0.64560  Biso   1.000  O
  O20      1.0000 0.97790  0.90960  0.52730  Biso   1.000  O
  O21      1.0000 0.92790  0.79655  0.32935  Biso   1.000  O
  O22      1.0000 0.75200  0.90110  0.18040  Biso   1.000  O
  O23      1.0000 0.95180  0.95580  0.25841  Biso   1.000  O
  O24      1.0000 0.25120  0.08890  0.31760  Biso   1.000  O
  O25      1.0000 0.78180  0.00730  0.01710  Biso   1.000  O
  O26      1.0000 0.71330  0.06990  0.90670  Biso   1.000  O
  O27      1.0000 0.97790  0.20470  0.91075  Biso   1.000  O
  O28      1.0000 0.57040  0.40710  0.13090  Biso   1.000  O
  O29      1.0000 0.72540  0.64800  0.01547  Biso   1.000  O
  O30      1.0000 0.61200  0.79920  0.04860  Biso   1.000  O
  O31      1.0000 0.53700  0.87070  0.85440  Biso   1.000  O
  O32      1.0000 0.47790  0.90960  0.97270  Biso   1.000  O
  O33      1.0000 0.42790  0.79655  0.17065  Biso   1.000  O
  O34      1.0000 0.25200  0.90110  0.31960  Biso   1.000  O
  O35      1.0000 0.45180  0.95580  0.24159  Biso   1.000  O
  O36      1.0000 0.75120  0.08890  0.18240  Biso   1.000  O
  O37      1.0000 0.71820  0.99270  0.51710  Biso   1.000  O
  O38      1.0000 0.78670  0.93010  0.40670  Biso   1.000  O
  O39      1.0000 0.52210  0.79530  0.41075  Biso   1.000  O
  O40      1.0000 0.92960  0.59290  0.63090  Biso   1.000  O
  O41      1.0000 0.77460  0.35200  0.51547  Biso   1.000  O
  O42      1.0000 0.88800  0.20080  0.54860  Biso   1.000  O
  O43      1.0000 0.96300  0.12930  0.35440  Biso   1.000  O
  O44      1.0000 0.02210  0.09040  0.47270  Biso   1.000  O
  O45      1.0000 0.07210  0.20345  0.67065  Biso   1.000  O
  O46      1.0000 0.24800  0.09890  0.81960  Biso   1.000  O
  O47      1.0000 0.04820  0.04420  0.74159  Biso   1.000  O
  O48      1.0000 0.74880  0.91110  0.68240  Biso   1.000  O
