data_OJICEQ_charged
_audit_creation_date              2014-07-02
_audit_creation_method            'Materials Studio'
_symmetry_space_group_name_H-M    'P1'
_symmetry_Int_Tables_number       1
_symmetry_cell_setting            triclinic
loop_
_symmetry_equiv_pos_as_xyz
  x,y,z
_cell_length_a                    21.7544
_cell_length_b                    21.7544
_cell_length_c                    21.9560
_cell_angle_alpha                 90.0000
_cell_angle_beta                  90.0000
_cell_angle_gamma                 111.1170
loop_
_atom_site_label
_atom_site_type_symbol
_atom_site_fract_x
_atom_site_fract_y
_atom_site_fract_z
_atom_site_U_iso_or_equiv
_atom_site_adp_type
_atom_site_occupancy
Zn1    Zn    0.92620   0.07278   0.00500   0.01267  Uiso   1.00
Zn2    Zn    0.07380   0.92722   0.50500   0.01267  Uiso   1.00
Zn3    Zn    0.92722   0.07380   0.50500   0.01267  Uiso   1.00
Zn4    Zn    0.07278   0.92620   0.00500   0.01267  Uiso   1.00
Zn5    Zn    0.97860   0.97860   0.25690   0.01267  Uiso   1.00
Zn6    Zn    0.02140   0.02140   0.75690   0.01267  Uiso   1.00
H1     H     0.92460   0.18240   0.96780   0.01267  Uiso   1.00
H2     H     0.86450   0.18550   0.89390   0.01267  Uiso   1.00
H3     H     0.84170   0.10690   0.89100   0.01267  Uiso   1.00
H4     H     0.82520   0.14160   0.94980   0.01267  Uiso   1.00
H5     H     0.84100   0.05500   0.07810   0.01267  Uiso   1.00
H6     H     0.82090   0.12150   0.12700   0.01267  Uiso   1.00
H7     H     0.89250   0.11810   0.13700   0.01267  Uiso   1.00
H8     H     0.88410   0.17550   0.09630   0.01267  Uiso   1.00
H9     H     0.82000   0.01180   0.95590   0.01267  Uiso   1.00
H10    H     0.87800   0.00540   0.91440   0.01267  Uiso   1.00
H11    H     0.85800   0.94780   0.16720   0.01267  Uiso   1.00
H12    H     0.75220   0.93780   0.16590   0.01267  Uiso   1.00
H13    H     0.75500   0.96300   0.34830   0.01267  Uiso   1.00
H14    H     0.86680   0.97880   0.34630   0.01267  Uiso   1.00
H15    H     0.65570   0.94530   0.16170   0.01267  Uiso   1.00
H16    H     0.55300   0.95460   0.16700   0.01267  Uiso   1.00
H17    H     0.56670   0.96390   0.35000   0.01267  Uiso   1.00
H18    H     0.66850   0.95570   0.34410   0.01267  Uiso   1.00
H19    H     0.45790   0.94390   0.22430   0.01267  Uiso   1.00
H20    H     0.46320   0.94140   0.29700   0.01267  Uiso   1.00
H21    H     0.51730   0.06530   0.22960   0.01267  Uiso   1.00
H22    H     0.51220   0.05980   0.30260   0.01267  Uiso   1.00
H23    H     0.41040   0.05380   0.16440   0.01267  Uiso   1.00
H24    H     0.30720   0.05060   0.16850   0.01267  Uiso   1.00
H25    H     0.29850   0.02530   0.34720   0.01267  Uiso   1.00
H26    H     0.40780   0.03260   0.34740   0.01267  Uiso   1.00
H27    H     0.21830   0.07330   0.18470   0.01267  Uiso   1.00
H28    H     0.10470   0.04510   0.18000   0.01267  Uiso   1.00
H29    H     0.08690   0.95390   0.33580   0.01267  Uiso   1.00
H30    H     0.19840   0.98000   0.33610   0.01267  Uiso   1.00
H31    H     0.07540   0.81760   0.46780   0.01267  Uiso   1.00
H32    H     0.13550   0.81450   0.39390   0.01267  Uiso   1.00
H33    H     0.15830   0.89310   0.39100   0.01267  Uiso   1.00
H34    H     0.17480   0.85840   0.44980   0.01267  Uiso   1.00
H35    H     0.15900   0.94500   0.57810   0.01267  Uiso   1.00
H36    H     0.17910   0.87850   0.62700   0.01267  Uiso   1.00
H37    H     0.10750   0.88190   0.63700   0.01267  Uiso   1.00
H38    H     0.11590   0.82450   0.59630   0.01267  Uiso   1.00
H39    H     0.18000   0.98820   0.45590   0.01267  Uiso   1.00
H40    H     0.12200   0.99460   0.41440   0.01267  Uiso   1.00
H41    H     0.14200   0.05220   0.66720   0.01267  Uiso   1.00
H42    H     0.24780   0.06220   0.66590   0.01267  Uiso   1.00
H43    H     0.24500   0.03700   0.84830   0.01267  Uiso   1.00
H44    H     0.13320   0.02120   0.84630   0.01267  Uiso   1.00
H45    H     0.34430   0.05470   0.66170   0.01267  Uiso   1.00
H46    H     0.44700   0.04540   0.66700   0.01267  Uiso   1.00
H47    H     0.43330   0.03610   0.85000   0.01267  Uiso   1.00
H48    H     0.33150   0.04430   0.84410   0.01267  Uiso   1.00
H49    H     0.54210   0.05610   0.72430   0.01267  Uiso   1.00
H50    H     0.53680   0.05860   0.79700   0.01267  Uiso   1.00
H51    H     0.48270   0.93470   0.72960   0.01267  Uiso   1.00
H52    H     0.48780   0.94020   0.80260   0.01267  Uiso   1.00
H53    H     0.58960   0.94620   0.66440   0.01267  Uiso   1.00
H54    H     0.69280   0.94940   0.66850   0.01267  Uiso   1.00
H55    H     0.70150   0.97470   0.84720   0.01267  Uiso   1.00
H56    H     0.59220   0.96740   0.84740   0.01267  Uiso   1.00
H57    H     0.78170   0.92670   0.68470   0.01267  Uiso   1.00
H58    H     0.89530   0.95490   0.68000   0.01267  Uiso   1.00
H59    H     0.91310   0.04610   0.83580   0.01267  Uiso   1.00
H60    H     0.80160   0.02000   0.83610   0.01267  Uiso   1.00
H61    H     0.81760   0.07540   0.46780   0.01267  Uiso   1.00
H62    H     0.81450   0.13550   0.39390   0.01267  Uiso   1.00
H63    H     0.89310   0.15830   0.39100   0.01267  Uiso   1.00
H64    H     0.85840   0.17480   0.44980   0.01267  Uiso   1.00
H65    H     0.94500   0.15900   0.57810   0.01267  Uiso   1.00
H66    H     0.87850   0.17910   0.62700   0.01267  Uiso   1.00
H67    H     0.88190   0.10750   0.63700   0.01267  Uiso   1.00
H68    H     0.82450   0.11590   0.59630   0.01267  Uiso   1.00
H69    H     0.98820   0.18000   0.45590   0.01267  Uiso   1.00
H70    H     0.99460   0.12200   0.41440   0.01267  Uiso   1.00
H71    H     0.05220   0.14200   0.66720   0.01267  Uiso   1.00
H72    H     0.06220   0.24780   0.66590   0.01267  Uiso   1.00
H73    H     0.03700   0.24500   0.84830   0.01267  Uiso   1.00
H74    H     0.02120   0.13320   0.84630   0.01267  Uiso   1.00
H75    H     0.05470   0.34430   0.66170   0.01267  Uiso   1.00
H76    H     0.04540   0.44700   0.66700   0.01267  Uiso   1.00
H77    H     0.03610   0.43330   0.85000   0.01267  Uiso   1.00
H78    H     0.04430   0.33150   0.84410   0.01267  Uiso   1.00
H79    H     0.05610   0.54210   0.72430   0.01267  Uiso   1.00
H80    H     0.05860   0.53680   0.79700   0.01267  Uiso   1.00
H81    H     0.93470   0.48270   0.72960   0.01267  Uiso   1.00
H82    H     0.94020   0.48780   0.80260   0.01267  Uiso   1.00
H83    H     0.94620   0.58960   0.66440   0.01267  Uiso   1.00
H84    H     0.94940   0.69280   0.66850   0.01267  Uiso   1.00
H85    H     0.97470   0.70150   0.84720   0.01267  Uiso   1.00
H86    H     0.96740   0.59220   0.84740   0.01267  Uiso   1.00
H87    H     0.92670   0.78170   0.68470   0.01267  Uiso   1.00
H88    H     0.95490   0.89530   0.68000   0.01267  Uiso   1.00
H89    H     0.04610   0.91310   0.83580   0.01267  Uiso   1.00
H90    H     0.02000   0.80160   0.83610   0.01267  Uiso   1.00
H91    H     0.18240   0.92460   0.96780   0.01267  Uiso   1.00
H92    H     0.18550   0.86450   0.89390   0.01267  Uiso   1.00
H93    H     0.10690   0.84170   0.89100   0.01267  Uiso   1.00
H94    H     0.14160   0.82520   0.94980   0.01267  Uiso   1.00
H95    H     0.05500   0.84100   0.07810   0.01267  Uiso   1.00
H96    H     0.12150   0.82090   0.12700   0.01267  Uiso   1.00
H97    H     0.11810   0.89250   0.13700   0.01267  Uiso   1.00
H98    H     0.17550   0.88410   0.09630   0.01267  Uiso   1.00
H99    H     0.01180   0.82000   0.95590   0.01267  Uiso   1.00
H100   H     0.00540   0.87800   0.91440   0.01267  Uiso   1.00
H101   H     0.94780   0.85800   0.16720   0.01267  Uiso   1.00
H102   H     0.93780   0.75220   0.16590   0.01267  Uiso   1.00
H103   H     0.96300   0.75500   0.34830   0.01267  Uiso   1.00
H104   H     0.97880   0.86680   0.34630   0.01267  Uiso   1.00
H105   H     0.94530   0.65570   0.16170   0.01267  Uiso   1.00
H106   H     0.95460   0.55300   0.16700   0.01267  Uiso   1.00
H107   H     0.96390   0.56670   0.35000   0.01267  Uiso   1.00
H108   H     0.95570   0.66850   0.34410   0.01267  Uiso   1.00
H109   H     0.94390   0.45790   0.22430   0.01267  Uiso   1.00
H110   H     0.94140   0.46320   0.29700   0.01267  Uiso   1.00
H111   H     0.06530   0.51730   0.22960   0.01267  Uiso   1.00
H112   H     0.05980   0.51220   0.30260   0.01267  Uiso   1.00
H113   H     0.05380   0.41040   0.16440   0.01267  Uiso   1.00
H114   H     0.05060   0.30720   0.16850   0.01267  Uiso   1.00
H115   H     0.02530   0.29850   0.34720   0.01267  Uiso   1.00
H116   H     0.03260   0.40780   0.34740   0.01267  Uiso   1.00
H117   H     0.07330   0.21830   0.18470   0.01267  Uiso   1.00
H118   H     0.04510   0.10470   0.18000   0.01267  Uiso   1.00
H119   H     0.95390   0.08690   0.33580   0.01267  Uiso   1.00
H120   H     0.98000   0.19840   0.33610   0.01267  Uiso   1.00
C1     C     0.85770   0.14550   0.91780   0.01267  Uiso   1.00
C2     C     0.86390   0.12910   0.10800   0.01267  Uiso   1.00
C3     C     0.83840   0.95160   0.20500   0.01267  Uiso   1.00
C4     C     0.77560   0.94700   0.20340   0.01267  Uiso   1.00
C5     C     0.74330   0.95590   0.25650   0.01267  Uiso   1.00
C6     C     0.77660   0.96260   0.31070   0.01267  Uiso   1.00
C7     C     0.84210   0.96890   0.30960   0.01267  Uiso   1.00
C8     C     0.67440   0.95720   0.25990   0.01267  Uiso   1.00
C9     C     0.63730   0.95130   0.19960   0.01267  Uiso   1.00
C10    C     0.57640   0.95520   0.20360   0.01267  Uiso   1.00
C11    C     0.58540   0.96100   0.31150   0.01267  Uiso   1.00
C12    C     0.64630   0.95770   0.30720   0.01267  Uiso   1.00
C13    C     0.48530   0.96510   0.25990   0.01267  Uiso   1.00
C14    C     0.49090   0.03970   0.26390   0.01267  Uiso   1.00
C15    C     0.41910   0.03910   0.26100   0.01267  Uiso   1.00
C16    C     0.38720   0.04680   0.20200   0.01267  Uiso   1.00
C17    C     0.32650   0.04330   0.20530   0.01267  Uiso   1.00
C18    C     0.28830   0.03050   0.25440   0.01267  Uiso   1.00
C19    C     0.32130   0.02930   0.30970   0.01267  Uiso   1.00
C20    C     0.38680   0.03360   0.30960   0.01267  Uiso   1.00
C21    C     0.21550   0.01710   0.25270   0.01267  Uiso   1.00
C22    C     0.19090   0.04390   0.21390   0.01267  Uiso   1.00
C23    C     0.12250   0.03010   0.21390   0.01267  Uiso   1.00
C24    C     0.11220   0.97780   0.30240   0.01267  Uiso   1.00
C25    C     0.17820   0.99040   0.30120   0.01267  Uiso   1.00
C26    C     0.14230   0.85450   0.41780   0.01267  Uiso   1.00
C27    C     0.13610   0.87090   0.60800   0.01267  Uiso   1.00
C28    C     0.16160   0.04840   0.70500   0.01267  Uiso   1.00
C29    C     0.22440   0.05300   0.70340   0.01267  Uiso   1.00
C30    C     0.25670   0.04410   0.75650   0.01267  Uiso   1.00
C31    C     0.22340   0.03740   0.81070   0.01267  Uiso   1.00
C32    C     0.15790   0.03110   0.80960   0.01267  Uiso   1.00
C33    C     0.32560   0.04280   0.75990   0.01267  Uiso   1.00
C34    C     0.36270   0.04870   0.69960   0.01267  Uiso   1.00
C35    C     0.42360   0.04480   0.70360   0.01267  Uiso   1.00
C36    C     0.41460   0.03900   0.81150   0.01267  Uiso   1.00
C37    C     0.35370   0.04230   0.80720   0.01267  Uiso   1.00
C38    C     0.51470   0.03490   0.75990   0.01267  Uiso   1.00
C39    C     0.50910   0.96030   0.76390   0.01267  Uiso   1.00
C40    C     0.58090   0.96090   0.76100   0.01267  Uiso   1.00
C41    C     0.61280   0.95320   0.70200   0.01267  Uiso   1.00
C42    C     0.67350   0.95670   0.70530   0.01267  Uiso   1.00
C43    C     0.71170   0.96950   0.75440   0.01267  Uiso   1.00
C44    C     0.67870   0.97070   0.80970   0.01267  Uiso   1.00
C45    C     0.61320   0.96640   0.80960   0.01267  Uiso   1.00
C46    C     0.78450   0.98290   0.75270   0.01267  Uiso   1.00
C47    C     0.80910   0.95610   0.71390   0.01267  Uiso   1.00
C48    C     0.87750   0.96990   0.71390   0.01267  Uiso   1.00
C49    C     0.88780   0.02220   0.80240   0.01267  Uiso   1.00
C50    C     0.82180   0.00960   0.80120   0.01267  Uiso   1.00
C51    C     0.85450   0.14230   0.41780   0.01267  Uiso   1.00
C52    C     0.87090   0.13610   0.60800   0.01267  Uiso   1.00
C53    C     0.04840   0.16160   0.70500   0.01267  Uiso   1.00
C54    C     0.05300   0.22440   0.70340   0.01267  Uiso   1.00
C55    C     0.04410   0.25670   0.75650   0.01267  Uiso   1.00
C56    C     0.03740   0.22340   0.81070   0.01267  Uiso   1.00
C57    C     0.03110   0.15790   0.80960   0.01267  Uiso   1.00
C58    C     0.04280   0.32560   0.75990   0.01267  Uiso   1.00
C59    C     0.04870   0.36270   0.69960   0.01267  Uiso   1.00
C60    C     0.04480   0.42360   0.70360   0.01267  Uiso   1.00
C61    C     0.03900   0.41460   0.81150   0.01267  Uiso   1.00
C62    C     0.04230   0.35370   0.80720   0.01267  Uiso   1.00
C63    C     0.03490   0.51470   0.75990   0.01267  Uiso   1.00
C64    C     0.96030   0.50910   0.76390   0.01267  Uiso   1.00
C65    C     0.96090   0.58090   0.76100   0.01267  Uiso   1.00
C66    C     0.95320   0.61280   0.70200   0.01267  Uiso   1.00
C67    C     0.95670   0.67350   0.70530   0.01267  Uiso   1.00
C68    C     0.96950   0.71170   0.75440   0.01267  Uiso   1.00
C69    C     0.97070   0.67870   0.80970   0.01267  Uiso   1.00
C70    C     0.96640   0.61320   0.80960   0.01267  Uiso   1.00
C71    C     0.98290   0.78450   0.75270   0.01267  Uiso   1.00
C72    C     0.95610   0.80910   0.71390   0.01267  Uiso   1.00
C73    C     0.96990   0.87750   0.71390   0.01267  Uiso   1.00
C74    C     0.02220   0.88780   0.80240   0.01267  Uiso   1.00
C75    C     0.00960   0.82180   0.80120   0.01267  Uiso   1.00
C76    C     0.14550   0.85770   0.91780   0.01267  Uiso   1.00
C77    C     0.12910   0.86390   0.10800   0.01267  Uiso   1.00
C78    C     0.95160   0.83840   0.20500   0.01267  Uiso   1.00
C79    C     0.94700   0.77560   0.20340   0.01267  Uiso   1.00
C80    C     0.95590   0.74330   0.25650   0.01267  Uiso   1.00
C81    C     0.96260   0.77660   0.31070   0.01267  Uiso   1.00
C82    C     0.96890   0.84210   0.30960   0.01267  Uiso   1.00
C83    C     0.95720   0.67440   0.25990   0.01267  Uiso   1.00
C84    C     0.95130   0.63730   0.19960   0.01267  Uiso   1.00
C85    C     0.95520   0.57640   0.20360   0.01267  Uiso   1.00
C86    C     0.96100   0.58540   0.31150   0.01267  Uiso   1.00
C87    C     0.95770   0.64630   0.30720   0.01267  Uiso   1.00
C88    C     0.96510   0.48530   0.25990   0.01267  Uiso   1.00
C89    C     0.03970   0.49090   0.26390   0.01267  Uiso   1.00
C90    C     0.03910   0.41910   0.26100   0.01267  Uiso   1.00
C91    C     0.04680   0.38720   0.20200   0.01267  Uiso   1.00
C92    C     0.04330   0.32650   0.20530   0.01267  Uiso   1.00
C93    C     0.03050   0.28830   0.25440   0.01267  Uiso   1.00
C94    C     0.02930   0.32130   0.30970   0.01267  Uiso   1.00
C95    C     0.03360   0.38680   0.30960   0.01267  Uiso   1.00
C96    C     0.01710   0.21550   0.25270   0.01267  Uiso   1.00
C97    C     0.04390   0.19090   0.21390   0.01267  Uiso   1.00
C98    C     0.03010   0.12250   0.21390   0.01267  Uiso   1.00
C99    C     0.97780   0.11220   0.30240   0.01267  Uiso   1.00
C100   C     0.99040   0.17820   0.30120   0.01267  Uiso   1.00
S1     S     0.99460   0.99460   0.09370   0.01267  Uiso   1.00
S2     S     0.99160   0.99160   0.41540   0.01267  Uiso   1.00
S3     S     0.00540   0.00540   0.59370   0.01267  Uiso   1.00
S4     S     0.00840   0.00840   0.91540   0.01267  Uiso   1.00
N1     N     0.87490   0.96070   0.25230   0.01267  Uiso   1.00
N2     N     0.54890   0.95970   0.25420   0.01267  Uiso   1.00
N3     N     0.08151   0.99809   0.25720   0.01267  Uiso   1.00
N4     N     0.12510   0.03930   0.75230   0.01267  Uiso   1.00
N5     N     0.45110   0.04030   0.75420   0.01267  Uiso   1.00
N6     N     0.91849   0.00191   0.75720   0.01267  Uiso   1.00
N7     N     0.03930   0.12510   0.75230   0.01267  Uiso   1.00
N8     N     0.04030   0.45110   0.75420   0.01267  Uiso   1.00
N9     N     0.00191   0.91849   0.75720   0.01267  Uiso   1.00
N10    N     0.96070   0.87490   0.25230   0.01267  Uiso   1.00
N11    N     0.95970   0.54890   0.25420   0.01267  Uiso   1.00
N12    N     0.99809   0.08151   0.25720   0.01267  Uiso   1.00
O1     O     0.93220   0.00480   0.06530   0.01267  Uiso   1.00
O2     O     0.00180   0.93860   0.44500   0.01267  Uiso   1.00
O3     O     0.91870   0.14910   0.94490   0.01267  Uiso   1.00
O4     O     0.85500   0.08860   0.05500   0.01267  Uiso   1.00
O5     O     0.86150   0.00350   0.95620   0.01267  Uiso   1.00
O6     O     0.06780   0.99520   0.56530   0.01267  Uiso   1.00
O7     O     0.99820   0.06140   0.94500   0.01267  Uiso   1.00
O8     O     0.08130   0.85090   0.44490   0.01267  Uiso   1.00
O9     O     0.14500   0.91140   0.55500   0.01267  Uiso   1.00
O10    O     0.13850   0.99650   0.45620   0.01267  Uiso   1.00
O11    O     0.99520   0.06780   0.56530   0.01267  Uiso   1.00
O12    O     0.06140   0.99820   0.94500   0.01267  Uiso   1.00
O13    O     0.85090   0.08130   0.44490   0.01267  Uiso   1.00
O14    O     0.91140   0.14500   0.55500   0.01267  Uiso   1.00
O15    O     0.99650   0.13850   0.45620   0.01267  Uiso   1.00
O16    O     0.00480   0.93220   0.06530   0.01267  Uiso   1.00
O17    O     0.93860   0.00180   0.44500   0.01267  Uiso   1.00
O18    O     0.14910   0.91870   0.94490   0.01267  Uiso   1.00
O19    O     0.08860   0.85500   0.05500   0.01267  Uiso   1.00
O20    O     0.00350   0.86150   0.95620   0.01267  Uiso   1.00
O21    O     0.97690   0.97690   0.16070   0.01267  Uiso   1.00
O22    O     0.05330   0.05330   0.09020   0.01267  Uiso   1.00
O23    O     0.04740   0.04740   0.42170   0.01267  Uiso   1.00
O24    O     0.97330   0.97330   0.35480   0.01267  Uiso   1.00
O25    O     0.02310   0.02310   0.66070   0.01267  Uiso   1.00
O26    O     0.94670   0.94670   0.59020   0.01267  Uiso   1.00
O27    O     0.95260   0.95260   0.92170   0.01267  Uiso   1.00
O28    O     0.02670   0.02670   0.85480   0.01267  Uiso   1.00
H121   H     0.93880   0.35940   0.04410   0.01267  Uiso   1.00
H122   H     0.13620   0.42740   0.01560   0.01267  Uiso   1.00
H123   H     0.14510   0.52890   0.05790   0.01267  Uiso   1.00
H124   H     0.14440   0.60080   0.13350   0.01267  Uiso   1.00
H125   H     0.12710   0.62550   0.06910   0.01267  Uiso   1.00
H126   H     0.05880   0.67380   0.12530   0.01267  Uiso   1.00
H127   H     0.13660   0.71000   0.13500   0.01267  Uiso   1.00
H128   H     0.17040   0.63780   0.23200   0.01267  Uiso   1.00
H129   H     0.18300   0.71460   0.22250   0.01267  Uiso   1.00
H130   H     0.10210   0.69530   0.30940   0.01267  Uiso   1.00
H131   H     0.17840   0.71020   0.32390   0.01267  Uiso   1.00
H132   H     0.16720   0.64220   0.41210   0.01267  Uiso   1.00
H133   H     0.09330   0.64190   0.41150   0.01267  Uiso   1.00
H134   H     0.11050   0.54950   0.46480   0.01267  Uiso   1.00
H135   H     0.11610   0.52170   0.39820   0.01267  Uiso   1.00
H136   H     0.08070   0.43870   0.47810   0.01267  Uiso   1.00
H137   H     0.91110   0.27970   0.48640   0.01267  Uiso   1.00
H138   H     0.85490   0.33990   0.43840   0.01267  Uiso   1.00
H139   H     0.81380   0.38800   0.38890   0.01267  Uiso   1.00
H140   H     0.81560   0.43240   0.44770   0.01267  Uiso   1.00
H141   H     0.83140   0.52400   0.37770   0.01267  Uiso   1.00
H142   H     0.75940   0.46760   0.37580   0.01267  Uiso   1.00
H143   H     0.74600   0.50180   0.28370   0.01267  Uiso   1.00
H144   H     0.81680   0.54340   0.25560   0.01267  Uiso   1.00
H145   H     0.74570   0.48110   0.17840   0.01267  Uiso   1.00
H146   H     0.73560   0.41460   0.21540   0.01267  Uiso   1.00
H147   H     0.77440   0.40660   0.10780   0.01267  Uiso   1.00
H148   H     0.82070   0.48110   0.09260   0.01267  Uiso   1.00
H149   H     0.86450   0.40270   0.05310   0.01267  Uiso   1.00
H150   H     0.87130   0.38010   0.12160   0.01267  Uiso   1.00
C101   C     0.98600   0.45420   0.07200   0.01267  Uiso   1.00
C102   C     0.98070   0.39390   0.04690   0.01267  Uiso   1.00
C103   C     0.03660   0.38380   0.02580   0.01267  Uiso   1.00
C104   C     0.09800   0.43420   0.02990   0.01267  Uiso   1.00
C105   C     0.10320   0.49460   0.05510   0.01267  Uiso   1.00
C106   C     0.04730   0.50450   0.07610   0.01267  Uiso   1.00
C107   C     0.11060   0.61240   0.11090   0.01267  Uiso   1.00
C108   C     0.09890   0.66850   0.14210   0.01267  Uiso   1.00
C109   C     0.15120   0.67240   0.23800   0.01267  Uiso   1.00
C110   C     0.13850   0.67850   0.30440   0.01267  Uiso   1.00
C111   C     0.12180   0.61820   0.39720   0.01267  Uiso   1.00
C112   C     0.09700   0.54920   0.42180   0.01267  Uiso   1.00
C113   C     0.00150   0.45450   0.44150   0.01267  Uiso   1.00
C114   C     0.03490   0.41870   0.47000   0.01267  Uiso   1.00
C115   C     0.00110   0.35350   0.48680   0.01267  Uiso   1.00
C116   C     0.93400   0.32420   0.47500   0.01267  Uiso   1.00
C117   C     0.90080   0.36000   0.44640   0.01267  Uiso   1.00
C118   C     0.93450   0.42510   0.42970   0.01267  Uiso   1.00
C119   C     0.83110   0.43350   0.40520   0.01267  Uiso   1.00
C120   C     0.80670   0.47730   0.36730   0.01267  Uiso   1.00
C121   C     0.78570   0.49830   0.26450   0.01267  Uiso   1.00
C122   C     0.76720   0.45960   0.20660   0.01267  Uiso   1.00
C123   C     0.81800   0.44120   0.11590   0.01267  Uiso   1.00
C124   C     0.87180   0.41780   0.09600   0.01267  Uiso   1.00
S5     S     0.03977   0.31043   0.99320   0.01267  Uiso   1.00
S6     S     0.05213   0.31367   0.51960   0.01267  Uiso   1.00
O29    O     0.05070   0.55730   0.10880   0.01267  Uiso   1.00
O30    O     0.09090   0.65550   0.20560   0.01267  Uiso   1.00
O31    O     0.12160   0.61580   0.33250   0.01267  Uiso   1.00
O32    O     0.02720   0.52280   0.41730   0.01267  Uiso   1.00
O33    O     0.90120   0.45800   0.40390   0.01267  Uiso   1.00
O34    O     0.81550   0.46630   0.30470   0.01267  Uiso   1.00
O35    O     0.82480   0.45580   0.17910   0.01267  Uiso   1.00
O36    O     0.93340   0.47020   0.10160   0.01267  Uiso   1.00
O37    O     0.97790   0.28070   0.96420   0.01267  Uiso   1.00
O38    O     0.09560   0.33540   0.95530   0.01267  Uiso   1.00
O39    O     0.04920   0.27020   0.04420   0.01267  Uiso   1.00
O40    O     0.06880   0.27660   0.47330   0.01267  Uiso   1.00
O41    O     0.01060   0.27460   0.56380   0.01267  Uiso   1.00
O42    O     0.11060   0.36320   0.54400   0.01267  Uiso   1.00
H151   H     0.06120   0.64060   0.54410   0.01267  Uiso   1.00
H152   H     0.86380   0.57260   0.51560   0.01267  Uiso   1.00
H153   H     0.85490   0.47110   0.55790   0.01267  Uiso   1.00
H154   H     0.85560   0.39920   0.63350   0.01267  Uiso   1.00
H155   H     0.87290   0.37450   0.56910   0.01267  Uiso   1.00
H156   H     0.94120   0.32620   0.62530   0.01267  Uiso   1.00
H157   H     0.86340   0.29000   0.63500   0.01267  Uiso   1.00
H158   H     0.82960   0.36220   0.73200   0.01267  Uiso   1.00
H159   H     0.81700   0.28540   0.72250   0.01267  Uiso   1.00
H160   H     0.89790   0.30470   0.80940   0.01267  Uiso   1.00
H161   H     0.82160   0.28980   0.82390   0.01267  Uiso   1.00
H162   H     0.83280   0.35780   0.91210   0.01267  Uiso   1.00
H163   H     0.90670   0.35810   0.91150   0.01267  Uiso   1.00
H164   H     0.88950   0.45050   0.96480   0.01267  Uiso   1.00
H165   H     0.88390   0.47830   0.89820   0.01267  Uiso   1.00
H166   H     0.91930   0.56130   0.97810   0.01267  Uiso   1.00
H167   H     0.08890   0.72030   0.98640   0.01267  Uiso   1.00
H168   H     0.14510   0.66010   0.93840   0.01267  Uiso   1.00
H169   H     0.18620   0.61200   0.88890   0.01267  Uiso   1.00
H170   H     0.18440   0.56760   0.94770   0.01267  Uiso   1.00
H171   H     0.16860   0.47600   0.87770   0.01267  Uiso   1.00
H172   H     0.24060   0.53240   0.87580   0.01267  Uiso   1.00
H173   H     0.25400   0.49820   0.78370   0.01267  Uiso   1.00
H174   H     0.18320   0.45660   0.75560   0.01267  Uiso   1.00
H175   H     0.25430   0.51890   0.67840   0.01267  Uiso   1.00
H176   H     0.26440   0.58540   0.71540   0.01267  Uiso   1.00
H177   H     0.22560   0.59340   0.60780   0.01267  Uiso   1.00
H178   H     0.17930   0.51890   0.59260   0.01267  Uiso   1.00
H179   H     0.13550   0.59730   0.55310   0.01267  Uiso   1.00
H180   H     0.12870   0.61990   0.62160   0.01267  Uiso   1.00
C125   C     0.01400   0.54580   0.57200   0.01267  Uiso   1.00
C126   C     0.01930   0.60610   0.54690   0.01267  Uiso   1.00
C127   C     0.96340   0.61620   0.52580   0.01267  Uiso   1.00
C128   C     0.90200   0.56580   0.52990   0.01267  Uiso   1.00
C129   C     0.89680   0.50540   0.55510   0.01267  Uiso   1.00
C130   C     0.95270   0.49550   0.57610   0.01267  Uiso   1.00
C131   C     0.88940   0.38760   0.61090   0.01267  Uiso   1.00
C132   C     0.90110   0.33150   0.64210   0.01267  Uiso   1.00
C133   C     0.84880   0.32760   0.73800   0.01267  Uiso   1.00
C134   C     0.86150   0.32150   0.80440   0.01267  Uiso   1.00
C135   C     0.87820   0.38180   0.89720   0.01267  Uiso   1.00
C136   C     0.90300   0.45080   0.92180   0.01267  Uiso   1.00
C137   C     0.99850   0.54550   0.94150   0.01267  Uiso   1.00
C138   C     0.96510   0.58130   0.97000   0.01267  Uiso   1.00
C139   C     0.99890   0.64650   0.98680   0.01267  Uiso   1.00
C140   C     0.06600   0.67580   0.97500   0.01267  Uiso   1.00
C141   C     0.09920   0.64000   0.94640   0.01267  Uiso   1.00
C142   C     0.06550   0.57490   0.92970   0.01267  Uiso   1.00
C143   C     0.16890   0.56650   0.90520   0.01267  Uiso   1.00
C144   C     0.19330   0.52270   0.86730   0.01267  Uiso   1.00
C145   C     0.21430   0.50170   0.76450   0.01267  Uiso   1.00
C146   C     0.23280   0.54040   0.70660   0.01267  Uiso   1.00
C147   C     0.18200   0.55880   0.61590   0.01267  Uiso   1.00
C148   C     0.12820   0.58220   0.59600   0.01267  Uiso   1.00
S7     S     0.96023   0.68957   0.49320   0.01267  Uiso   1.00
S8     S     0.94787   0.68633   0.01960   0.01267  Uiso   1.00
O43    O     0.94930   0.44270   0.60880   0.01267  Uiso   1.00
O44    O     0.90910   0.34450   0.70560   0.01267  Uiso   1.00
O45    O     0.87840   0.38420   0.83250   0.01267  Uiso   1.00
O46    O     0.97280   0.47720   0.91730   0.01267  Uiso   1.00
O47    O     0.09880   0.54200   0.90390   0.01267  Uiso   1.00
O48    O     0.18450   0.53370   0.80470   0.01267  Uiso   1.00
O49    O     0.17520   0.54420   0.67910   0.01267  Uiso   1.00
O50    O     0.06660   0.52980   0.60160   0.01267  Uiso   1.00
O51    O     0.02210   0.71930   0.46420   0.01267  Uiso   1.00
O52    O     0.90440   0.66460   0.45530   0.01267  Uiso   1.00
O53    O     0.95080   0.72980   0.54420   0.01267  Uiso   1.00
O54    O     0.93120   0.72340   0.97330   0.01267  Uiso   1.00
O55    O     0.98940   0.72540   0.06380   0.01267  Uiso   1.00
O56    O     0.88940   0.63680   0.04400   0.01267  Uiso   1.00
H181   H     0.64060   0.06120   0.54410   0.01267  Uiso   1.00
H182   H     0.57260   0.86380   0.51560   0.01267  Uiso   1.00
H183   H     0.47110   0.85490   0.55790   0.01267  Uiso   1.00
H184   H     0.39920   0.85560   0.63350   0.01267  Uiso   1.00
H185   H     0.37450   0.87290   0.56910   0.01267  Uiso   1.00
H186   H     0.32620   0.94120   0.62530   0.01267  Uiso   1.00
H187   H     0.29000   0.86340   0.63500   0.01267  Uiso   1.00
H188   H     0.36220   0.82960   0.73200   0.01267  Uiso   1.00
H189   H     0.28540   0.81700   0.72250   0.01267  Uiso   1.00
H190   H     0.30470   0.89790   0.80940   0.01267  Uiso   1.00
H191   H     0.28980   0.82160   0.82390   0.01267  Uiso   1.00
H192   H     0.35780   0.83280   0.91210   0.01267  Uiso   1.00
H193   H     0.35810   0.90670   0.91150   0.01267  Uiso   1.00
H194   H     0.45050   0.88950   0.96480   0.01267  Uiso   1.00
H195   H     0.47830   0.88390   0.89820   0.01267  Uiso   1.00
H196   H     0.56130   0.91930   0.97810   0.01267  Uiso   1.00
H197   H     0.72030   0.08890   0.98640   0.01267  Uiso   1.00
H198   H     0.66010   0.14510   0.93840   0.01267  Uiso   1.00
H199   H     0.61200   0.18620   0.88890   0.01267  Uiso   1.00
H200   H     0.56760   0.18440   0.94770   0.01267  Uiso   1.00
H201   H     0.47600   0.16860   0.87770   0.01267  Uiso   1.00
H202   H     0.53240   0.24060   0.87580   0.01267  Uiso   1.00
H203   H     0.49820   0.25400   0.78370   0.01267  Uiso   1.00
H204   H     0.45660   0.18320   0.75560   0.01267  Uiso   1.00
H205   H     0.51890   0.25430   0.67840   0.01267  Uiso   1.00
H206   H     0.58540   0.26440   0.71540   0.01267  Uiso   1.00
H207   H     0.59340   0.22560   0.60780   0.01267  Uiso   1.00
H208   H     0.51890   0.17930   0.59260   0.01267  Uiso   1.00
H209   H     0.59730   0.13550   0.55310   0.01267  Uiso   1.00
H210   H     0.61990   0.12870   0.62160   0.01267  Uiso   1.00
C149   C     0.54580   0.01400   0.57200   0.01267  Uiso   1.00
C150   C     0.60610   0.01930   0.54690   0.01267  Uiso   1.00
C151   C     0.61620   0.96340   0.52580   0.01267  Uiso   1.00
C152   C     0.56580   0.90200   0.52990   0.01267  Uiso   1.00
C153   C     0.50540   0.89680   0.55510   0.01267  Uiso   1.00
C154   C     0.49550   0.95270   0.57610   0.01267  Uiso   1.00
C155   C     0.38760   0.88940   0.61090   0.01267  Uiso   1.00
C156   C     0.33150   0.90110   0.64210   0.01267  Uiso   1.00
C157   C     0.32760   0.84880   0.73800   0.01267  Uiso   1.00
C158   C     0.32150   0.86150   0.80440   0.01267  Uiso   1.00
C159   C     0.38180   0.87820   0.89720   0.01267  Uiso   1.00
C160   C     0.45080   0.90300   0.92180   0.01267  Uiso   1.00
C161   C     0.54550   0.99850   0.94150   0.01267  Uiso   1.00
C162   C     0.58130   0.96510   0.97000   0.01267  Uiso   1.00
C163   C     0.64650   0.99890   0.98680   0.01267  Uiso   1.00
C164   C     0.67580   0.06600   0.97500   0.01267  Uiso   1.00
C165   C     0.64000   0.09920   0.94640   0.01267  Uiso   1.00
C166   C     0.57490   0.06550   0.92970   0.01267  Uiso   1.00
C167   C     0.56650   0.16890   0.90520   0.01267  Uiso   1.00
C168   C     0.52270   0.19330   0.86730   0.01267  Uiso   1.00
C169   C     0.50170   0.21430   0.76450   0.01267  Uiso   1.00
C170   C     0.54040   0.23280   0.70660   0.01267  Uiso   1.00
C171   C     0.55880   0.18200   0.61590   0.01267  Uiso   1.00
C172   C     0.58220   0.12820   0.59600   0.01267  Uiso   1.00
S9     S     0.68957   0.96023   0.49320   0.01267  Uiso   1.00
S10    S     0.68633   0.94787   0.01960   0.01267  Uiso   1.00
O57    O     0.44270   0.94930   0.60880   0.01267  Uiso   1.00
O58    O     0.34450   0.90910   0.70560   0.01267  Uiso   1.00
O59    O     0.38420   0.87840   0.83250   0.01267  Uiso   1.00
O60    O     0.47720   0.97280   0.91730   0.01267  Uiso   1.00
O61    O     0.54200   0.09880   0.90390   0.01267  Uiso   1.00
O62    O     0.53370   0.18450   0.80470   0.01267  Uiso   1.00
O63    O     0.54420   0.17520   0.67910   0.01267  Uiso   1.00
O64    O     0.52980   0.06660   0.60160   0.01267  Uiso   1.00
O65    O     0.71930   0.02210   0.46420   0.01267  Uiso   1.00
O66    O     0.66460   0.90440   0.45530   0.01267  Uiso   1.00
O67    O     0.72980   0.95080   0.54420   0.01267  Uiso   1.00
O68    O     0.72340   0.93120   0.97330   0.01267  Uiso   1.00
O69    O     0.72540   0.98940   0.06380   0.01267  Uiso   1.00
O70    O     0.63680   0.88940   0.04400   0.01267  Uiso   1.00
H211   H     0.35940   0.93880   0.04410   0.01267  Uiso   1.00
H212   H     0.42740   0.13620   0.01560   0.01267  Uiso   1.00
H213   H     0.52890   0.14510   0.05790   0.01267  Uiso   1.00
H214   H     0.60080   0.14440   0.13350   0.01267  Uiso   1.00
H215   H     0.62550   0.12710   0.06910   0.01267  Uiso   1.00
H216   H     0.67380   0.05880   0.12530   0.01267  Uiso   1.00
H217   H     0.71000   0.13660   0.13500   0.01267  Uiso   1.00
H218   H     0.63780   0.17040   0.23200   0.01267  Uiso   1.00
H219   H     0.71460   0.18300   0.22250   0.01267  Uiso   1.00
H220   H     0.69530   0.10210   0.30940   0.01267  Uiso   1.00
H221   H     0.71020   0.17840   0.32390   0.01267  Uiso   1.00
H222   H     0.64220   0.16720   0.41210   0.01267  Uiso   1.00
H223   H     0.64190   0.09330   0.41150   0.01267  Uiso   1.00
H224   H     0.54950   0.11050   0.46480   0.01267  Uiso   1.00
H225   H     0.52170   0.11610   0.39820   0.01267  Uiso   1.00
H226   H     0.43870   0.08070   0.47810   0.01267  Uiso   1.00
H227   H     0.27970   0.91110   0.48640   0.01267  Uiso   1.00
H228   H     0.33990   0.85490   0.43840   0.01267  Uiso   1.00
H229   H     0.38800   0.81380   0.38890   0.01267  Uiso   1.00
H230   H     0.43240   0.81560   0.44770   0.01267  Uiso   1.00
H231   H     0.52400   0.83140   0.37770   0.01267  Uiso   1.00
H232   H     0.46760   0.75940   0.37580   0.01267  Uiso   1.00
H233   H     0.50180   0.74600   0.28370   0.01267  Uiso   1.00
H234   H     0.54340   0.81680   0.25560   0.01267  Uiso   1.00
H235   H     0.48110   0.74570   0.17840   0.01267  Uiso   1.00
H236   H     0.41460   0.73560   0.21540   0.01267  Uiso   1.00
H237   H     0.40660   0.77440   0.10780   0.01267  Uiso   1.00
H238   H     0.48110   0.82070   0.09260   0.01267  Uiso   1.00
H239   H     0.40270   0.86450   0.05310   0.01267  Uiso   1.00
H240   H     0.38010   0.87130   0.12160   0.01267  Uiso   1.00
C173   C     0.45420   0.98600   0.07200   0.01267  Uiso   1.00
C174   C     0.39390   0.98070   0.04690   0.01267  Uiso   1.00
C175   C     0.38380   0.03660   0.02580   0.01267  Uiso   1.00
C176   C     0.43420   0.09800   0.02990   0.01267  Uiso   1.00
C177   C     0.49460   0.10320   0.05510   0.01267  Uiso   1.00
C178   C     0.50450   0.04730   0.07610   0.01267  Uiso   1.00
C179   C     0.61240   0.11060   0.11090   0.01267  Uiso   1.00
C180   C     0.66850   0.09890   0.14210   0.01267  Uiso   1.00
C181   C     0.67240   0.15120   0.23800   0.01267  Uiso   1.00
C182   C     0.67850   0.13850   0.30440   0.01267  Uiso   1.00
C183   C     0.61820   0.12180   0.39720   0.01267  Uiso   1.00
C184   C     0.54920   0.09700   0.42180   0.01267  Uiso   1.00
C185   C     0.45450   0.00150   0.44150   0.01267  Uiso   1.00
C186   C     0.41870   0.03490   0.47000   0.01267  Uiso   1.00
C187   C     0.35350   0.00110   0.48680   0.01267  Uiso   1.00
C188   C     0.32420   0.93400   0.47500   0.01267  Uiso   1.00
C189   C     0.36000   0.90080   0.44640   0.01267  Uiso   1.00
C190   C     0.42510   0.93450   0.42970   0.01267  Uiso   1.00
C191   C     0.43350   0.83110   0.40520   0.01267  Uiso   1.00
C192   C     0.47730   0.80670   0.36730   0.01267  Uiso   1.00
C193   C     0.49830   0.78570   0.26450   0.01267  Uiso   1.00
C194   C     0.45960   0.76720   0.20660   0.01267  Uiso   1.00
C195   C     0.44120   0.81800   0.11590   0.01267  Uiso   1.00
C196   C     0.41780   0.87180   0.09600   0.01267  Uiso   1.00
S11    S     0.31043   0.03977   0.99320   0.01267  Uiso   1.00
S12    S     0.31367   0.05213   0.51960   0.01267  Uiso   1.00
O71    O     0.55730   0.05070   0.10880   0.01267  Uiso   1.00
O72    O     0.65550   0.09090   0.20560   0.01267  Uiso   1.00
O73    O     0.61580   0.12160   0.33250   0.01267  Uiso   1.00
O74    O     0.52280   0.02720   0.41730   0.01267  Uiso   1.00
O75    O     0.45800   0.90120   0.40390   0.01267  Uiso   1.00
O76    O     0.46630   0.81550   0.30470   0.01267  Uiso   1.00
O77    O     0.45580   0.82480   0.17910   0.01267  Uiso   1.00
O78    O     0.47020   0.93340   0.10160   0.01267  Uiso   1.00
O79    O     0.28070   0.97790   0.96420   0.01267  Uiso   1.00
O80    O     0.33540   0.09560   0.95530   0.01267  Uiso   1.00
O81    O     0.27020   0.04920   0.04420   0.01267  Uiso   1.00
O82    O     0.27660   0.06880   0.47330   0.01267  Uiso   1.00
O83    O     0.27460   0.01060   0.56380   0.01267  Uiso   1.00
O84    O     0.36320   0.11060   0.54400   0.01267  Uiso   1.00
