data_image0
_cell_length_a       16.843
_cell_length_b       31.47
_cell_length_c       31.47
_cell_angle_alpha    120
_cell_angle_beta     90
_cell_angle_gamma    90

_symmetry_space_group_name_H-M    P 1
_symmetry_int_tables_number       1

loop_
  _symmetry_equiv_pos_as_xyz
  'x, y, z'

loop_
  _atom_site_label
  _atom_site_occupancy
  _atom_site_fract_x
  _atom_site_fract_y
  _atom_site_fract_z
  _atom_site_thermal_displace_type
  _atom_site_B_iso_or_equiv
  _atom_site_type_symbol
  Sc1      1.0000 0.64726  0.57059  0.49863  Biso   1.000  Sc
  Sc2      1.0000 0.64726  0.92804  0.42941  Biso   1.000  Sc
  Sc3      1.0000 0.64726  0.50137  0.07196  Biso   1.000  Sc
  Sc4      1.0000 0.85274  0.57059  0.49863  Biso   1.000  Sc
  Sc5      1.0000 0.85274  0.92804  0.42941  Biso   1.000  Sc
  Sc6      1.0000 0.85274  0.50137  0.07196  Biso   1.000  Sc
  Sc7      1.0000 0.35274  0.07196  0.50137  Biso   1.000  Sc
  Sc8      1.0000 0.35274  0.49863  0.57059  Biso   1.000  Sc
  Sc9      1.0000 0.35274  0.42941  0.92804  Biso   1.000  Sc
  Sc10     1.0000 0.14726  0.07196  0.50137  Biso   1.000  Sc
  Sc11     1.0000 0.14726  0.49863  0.57059  Biso   1.000  Sc
  Sc12     1.0000 0.14726  0.42941  0.92804  Biso   1.000  Sc
  Sc13     1.0000 0.75000  0.64212  0.46096  Biso   1.000  Sc
  Sc14     1.0000 0.75000  0.81884  0.35788  Biso   1.000  Sc
  Sc15     1.0000 0.75000  0.53904  0.18116  Biso   1.000  Sc
  Sc16     1.0000 0.25000  0.18116  0.53904  Biso   1.000  Sc
  Sc17     1.0000 0.25000  0.46096  0.64212  Biso   1.000  Sc
  Sc18     1.0000 0.25000  0.35788  0.81884  Biso   1.000  Sc
  H1       1.0000 0.36600  0.51990  0.15990  Biso   1.000  H
  H2       1.0000 0.37120  0.73400  0.61000  Biso   1.000  H
  H3       1.0000 0.36890  0.54920  0.23240  Biso   1.000  H
  H4       1.0000 0.46970  0.59960  0.29270  Biso   1.000  H
  H5       1.0000 0.36710  0.47560  0.07460  Biso   1.000  H
  H6       1.0000 0.47840  0.68280  0.58760  Biso   1.000  H
  H7       1.0000 0.36760  0.85220  0.57780  Biso   1.000  H
  H8       1.0000 0.56760  0.74440  0.51330  Biso   1.000  H
  H9       1.0000 0.58240  0.60360  0.33610  Biso   1.000  H
  H10      1.0000 0.45310  0.79150  0.53110  Biso   1.000  H
  H11      1.0000 0.45750  0.55370  0.41060  Biso   1.000  H
  H12      1.0000 0.34680  0.54940  0.36710  Biso   1.000  H
  H13      1.0000 0.34700  0.93910  0.61600  Biso   1.000  H
  H14      1.0000 0.35470  0.99670  0.59140  Biso   1.000  H
  H15      1.0000 0.36600  0.64000  0.48010  Biso   1.000  H
  H16      1.0000 0.37120  0.87600  0.26600  Biso   1.000  H
  H17      1.0000 0.36890  0.68320  0.45080  Biso   1.000  H
  H18      1.0000 0.46970  0.69310  0.40040  Biso   1.000  H
  H19      1.0000 0.36710  0.59900  0.52440  Biso   1.000  H
  H20      1.0000 0.47840  0.90480  0.31720  Biso   1.000  H
  H21      1.0000 0.36760  0.72560  0.14780  Biso   1.000  H
  H22      1.0000 0.56760  0.76890  0.25560  Biso   1.000  H
  H23      1.0000 0.58240  0.73250  0.39640  Biso   1.000  H
  H24      1.0000 0.45310  0.73960  0.20850  Biso   1.000  H
  H25      1.0000 0.45750  0.85690  0.44630  Biso   1.000  H
  H26      1.0000 0.34680  0.81770  0.45060  Biso   1.000  H
  H27      1.0000 0.34700  0.67690  0.06090  Biso   1.000  H
  H28      1.0000 0.35470  0.59470  0.00330  Biso   1.000  H
  H29      1.0000 0.36600  0.84010  0.36000  Biso   1.000  H
  H30      1.0000 0.37120  0.39000  0.12400  Biso   1.000  H
  H31      1.0000 0.36890  0.76760  0.31680  Biso   1.000  H
  H32      1.0000 0.46970  0.70730  0.30690  Biso   1.000  H
  H33      1.0000 0.36710  0.92540  0.40100  Biso   1.000  H
  H34      1.0000 0.47840  0.41240  0.09520  Biso   1.000  H
  H35      1.0000 0.36760  0.42220  0.27440  Biso   1.000  H
  H36      1.0000 0.56760  0.48670  0.23110  Biso   1.000  H
  H37      1.0000 0.58240  0.66390  0.26750  Biso   1.000  H
  H38      1.0000 0.45310  0.46890  0.26040  Biso   1.000  H
  H39      1.0000 0.45750  0.58940  0.14310  Biso   1.000  H
  H40      1.0000 0.34680  0.63290  0.18230  Biso   1.000  H
  H41      1.0000 0.34700  0.38400  0.32310  Biso   1.000  H
  H42      1.0000 0.35470  0.40860  0.40530  Biso   1.000  H
  H43      1.0000 0.13400  0.51990  0.15990  Biso   1.000  H
  H44      1.0000 0.12880  0.73400  0.61000  Biso   1.000  H
  H45      1.0000 0.13110  0.54920  0.23240  Biso   1.000  H
  H46      1.0000 0.03030  0.59960  0.29270  Biso   1.000  H
  H47      1.0000 0.13290  0.47560  0.07460  Biso   1.000  H
  H48      1.0000 0.02160  0.68280  0.58760  Biso   1.000  H
  H49      1.0000 0.13240  0.85220  0.57780  Biso   1.000  H
  H50      1.0000 0.93240  0.74440  0.51330  Biso   1.000  H
  H51      1.0000 0.91760  0.60360  0.33610  Biso   1.000  H
  H52      1.0000 0.04690  0.79150  0.53110  Biso   1.000  H
  H53      1.0000 0.04250  0.55370  0.41060  Biso   1.000  H
  H54      1.0000 0.15320  0.54940  0.36710  Biso   1.000  H
  H55      1.0000 0.15300  0.93910  0.61600  Biso   1.000  H
  H56      1.0000 0.14530  0.99670  0.59140  Biso   1.000  H
  H57      1.0000 0.13400  0.64000  0.48010  Biso   1.000  H
  H58      1.0000 0.12880  0.87600  0.26600  Biso   1.000  H
  H59      1.0000 0.13110  0.68320  0.45080  Biso   1.000  H
  H60      1.0000 0.03030  0.69310  0.40040  Biso   1.000  H
  H61      1.0000 0.13290  0.59900  0.52440  Biso   1.000  H
  H62      1.0000 0.02160  0.90480  0.31720  Biso   1.000  H
  H63      1.0000 0.13240  0.72560  0.14780  Biso   1.000  H
  H64      1.0000 0.93240  0.76890  0.25560  Biso   1.000  H
  H65      1.0000 0.91760  0.73250  0.39640  Biso   1.000  H
  H66      1.0000 0.04690  0.73960  0.20850  Biso   1.000  H
  H67      1.0000 0.04250  0.85690  0.44630  Biso   1.000  H
  H68      1.0000 0.15320  0.81770  0.45060  Biso   1.000  H
  H69      1.0000 0.15300  0.67690  0.06090  Biso   1.000  H
  H70      1.0000 0.14530  0.59470  0.00330  Biso   1.000  H
  H71      1.0000 0.13400  0.84010  0.36000  Biso   1.000  H
  H72      1.0000 0.12880  0.39000  0.12400  Biso   1.000  H
  H73      1.0000 0.13110  0.76760  0.31680  Biso   1.000  H
  H74      1.0000 0.03030  0.70730  0.30690  Biso   1.000  H
  H75      1.0000 0.13290  0.92540  0.40100  Biso   1.000  H
  H76      1.0000 0.02160  0.41240  0.09520  Biso   1.000  H
  H77      1.0000 0.13240  0.42220  0.27440  Biso   1.000  H
  H78      1.0000 0.93240  0.48670  0.23110  Biso   1.000  H
  H79      1.0000 0.91760  0.66390  0.26750  Biso   1.000  H
  H80      1.0000 0.04690  0.46890  0.26040  Biso   1.000  H
  H81      1.0000 0.04250  0.58940  0.14310  Biso   1.000  H
  H82      1.0000 0.15320  0.63290  0.18230  Biso   1.000  H
  H83      1.0000 0.15300  0.38400  0.32310  Biso   1.000  H
  H84      1.0000 0.14530  0.40860  0.40530  Biso   1.000  H
  H85      1.0000 0.63400  0.36000  0.84010  Biso   1.000  H
  H86      1.0000 0.62880  0.12400  0.39000  Biso   1.000  H
  H87      1.0000 0.63110  0.31680  0.76760  Biso   1.000  H
  H88      1.0000 0.53030  0.30690  0.70730  Biso   1.000  H
  H89      1.0000 0.63290  0.40100  0.92540  Biso   1.000  H
  H90      1.0000 0.52160  0.09520  0.41240  Biso   1.000  H
  H91      1.0000 0.63240  0.27440  0.42220  Biso   1.000  H
  H92      1.0000 0.43240  0.23110  0.48670  Biso   1.000  H
  H93      1.0000 0.41760  0.26750  0.66390  Biso   1.000  H
  H94      1.0000 0.54690  0.26040  0.46890  Biso   1.000  H
  H95      1.0000 0.54250  0.14310  0.58940  Biso   1.000  H
  H96      1.0000 0.65320  0.18230  0.63290  Biso   1.000  H
  H97      1.0000 0.65300  0.32310  0.38400  Biso   1.000  H
  H98      1.0000 0.64530  0.40530  0.40860  Biso   1.000  H
  H99      1.0000 0.63400  0.15990  0.51990  Biso   1.000  H
  H100     1.0000 0.62880  0.61000  0.73400  Biso   1.000  H
  H101     1.0000 0.63110  0.23240  0.54920  Biso   1.000  H
  H102     1.0000 0.53030  0.29270  0.59960  Biso   1.000  H
  H103     1.0000 0.63290  0.07460  0.47560  Biso   1.000  H
  H104     1.0000 0.52160  0.58760  0.68280  Biso   1.000  H
  H105     1.0000 0.63240  0.57780  0.85220  Biso   1.000  H
  H106     1.0000 0.43240  0.51330  0.74440  Biso   1.000  H
  H107     1.0000 0.41760  0.33610  0.60360  Biso   1.000  H
  H108     1.0000 0.54690  0.53110  0.79150  Biso   1.000  H
  H109     1.0000 0.54250  0.41060  0.55370  Biso   1.000  H
  H110     1.0000 0.65320  0.36710  0.54940  Biso   1.000  H
  H111     1.0000 0.65300  0.61600  0.93910  Biso   1.000  H
  H112     1.0000 0.64530  0.59140  0.99670  Biso   1.000  H
  H113     1.0000 0.63400  0.48010  0.64000  Biso   1.000  H
  H114     1.0000 0.62880  0.26600  0.87600  Biso   1.000  H
  H115     1.0000 0.63110  0.45080  0.68320  Biso   1.000  H
  H116     1.0000 0.53030  0.40040  0.69310  Biso   1.000  H
  H117     1.0000 0.63290  0.52440  0.59900  Biso   1.000  H
  H118     1.0000 0.52160  0.31720  0.90480  Biso   1.000  H
  H119     1.0000 0.63240  0.14780  0.72560  Biso   1.000  H
  H120     1.0000 0.43240  0.25560  0.76890  Biso   1.000  H
  H121     1.0000 0.41760  0.39640  0.73250  Biso   1.000  H
  H122     1.0000 0.54690  0.20850  0.73960  Biso   1.000  H
  H123     1.0000 0.54250  0.44630  0.85690  Biso   1.000  H
  H124     1.0000 0.65320  0.45060  0.81770  Biso   1.000  H
  H125     1.0000 0.65300  0.06090  0.67690  Biso   1.000  H
  H126     1.0000 0.64530  0.00330  0.59470  Biso   1.000  H
  H127     1.0000 0.86600  0.36000  0.84010  Biso   1.000  H
  H128     1.0000 0.87120  0.12400  0.39000  Biso   1.000  H
  H129     1.0000 0.86890  0.31680  0.76760  Biso   1.000  H
  H130     1.0000 0.96970  0.30690  0.70730  Biso   1.000  H
  H131     1.0000 0.86710  0.40100  0.92540  Biso   1.000  H
  H132     1.0000 0.97840  0.09520  0.41240  Biso   1.000  H
  H133     1.0000 0.86760  0.27440  0.42220  Biso   1.000  H
  H134     1.0000 0.06760  0.23110  0.48670  Biso   1.000  H
  H135     1.0000 0.08240  0.26750  0.66390  Biso   1.000  H
  H136     1.0000 0.95310  0.26040  0.46890  Biso   1.000  H
  H137     1.0000 0.95750  0.14310  0.58940  Biso   1.000  H
  H138     1.0000 0.84680  0.18230  0.63290  Biso   1.000  H
  H139     1.0000 0.84700  0.32310  0.38400  Biso   1.000  H
  H140     1.0000 0.85470  0.40530  0.40860  Biso   1.000  H
  H141     1.0000 0.86600  0.15990  0.51990  Biso   1.000  H
  H142     1.0000 0.87120  0.61000  0.73400  Biso   1.000  H
  H143     1.0000 0.86890  0.23240  0.54920  Biso   1.000  H
  H144     1.0000 0.96970  0.29270  0.59960  Biso   1.000  H
  H145     1.0000 0.86710  0.07460  0.47560  Biso   1.000  H
  H146     1.0000 0.97840  0.58760  0.68280  Biso   1.000  H
  H147     1.0000 0.86760  0.57780  0.85220  Biso   1.000  H
  H148     1.0000 0.06760  0.51330  0.74440  Biso   1.000  H
  H149     1.0000 0.08240  0.33610  0.60360  Biso   1.000  H
  H150     1.0000 0.95310  0.53110  0.79150  Biso   1.000  H
  H151     1.0000 0.95750  0.41060  0.55370  Biso   1.000  H
  H152     1.0000 0.84680  0.36710  0.54940  Biso   1.000  H
  H153     1.0000 0.84700  0.61600  0.93910  Biso   1.000  H
  H154     1.0000 0.85470  0.59140  0.99670  Biso   1.000  H
  H155     1.0000 0.86600  0.48010  0.64000  Biso   1.000  H
  H156     1.0000 0.87120  0.26600  0.87600  Biso   1.000  H
  H157     1.0000 0.86890  0.45080  0.68320  Biso   1.000  H
  H158     1.0000 0.96970  0.40040  0.69310  Biso   1.000  H
  H159     1.0000 0.86710  0.52440  0.59900  Biso   1.000  H
  H160     1.0000 0.97840  0.31720  0.90480  Biso   1.000  H
  H161     1.0000 0.86760  0.14780  0.72560  Biso   1.000  H
  H162     1.0000 0.06760  0.25560  0.76890  Biso   1.000  H
  H163     1.0000 0.08240  0.39640  0.73250  Biso   1.000  H
  H164     1.0000 0.95310  0.20850  0.73960  Biso   1.000  H
  H165     1.0000 0.95750  0.44630  0.85690  Biso   1.000  H
  H166     1.0000 0.84680  0.45060  0.81770  Biso   1.000  H
  H167     1.0000 0.84700  0.06090  0.67690  Biso   1.000  H
  H168     1.0000 0.85470  0.00330  0.59470  Biso   1.000  H
  H169     1.0000 0.25000  0.59210  0.35680  Biso   1.000  H
  H170     1.0000 0.25000  0.74070  0.57180  Biso   1.000  H
  H171     1.0000 0.25000  0.76470  0.40790  Biso   1.000  H
  H172     1.0000 0.25000  0.83110  0.25930  Biso   1.000  H
  H173     1.0000 0.25000  0.64320  0.23530  Biso   1.000  H
  H174     1.0000 0.25000  0.42820  0.16890  Biso   1.000  H
  H175     1.0000 0.75000  0.23530  0.64320  Biso   1.000  H
  H176     1.0000 0.75000  0.16890  0.42820  Biso   1.000  H
  H177     1.0000 0.75000  0.35680  0.59210  Biso   1.000  H
  H178     1.0000 0.75000  0.57180  0.74070  Biso   1.000  H
  H179     1.0000 0.75000  0.40790  0.76470  Biso   1.000  H
  H180     1.0000 0.75000  0.25930  0.83110  Biso   1.000  H
  C1       1.0000 0.32140  0.57110  0.29990  Biso   1.000  C
  C2       1.0000 0.39580  0.57440  0.32630  Biso   1.000  C
  C3       1.0000 0.53200  0.58010  0.37950  Biso   1.000  C
  C4       1.0000 0.31780  0.51040  0.14330  Biso   1.000  C
  C5       1.0000 0.39470  0.76680  0.57140  Biso   1.000  C
  C6       1.0000 0.40860  0.73530  0.58890  Biso   1.000  C
  C7       1.0000 0.32110  0.55440  0.24900  Biso   1.000  C
  C8       1.0000 0.46750  0.59060  0.31670  Biso   1.000  C
  C9       1.0000 0.31920  0.48370  0.09160  Biso   1.000  C
  C10      1.0000 0.32130  0.79340  0.57710  Biso   1.000  C
  C11      1.0000 0.47420  0.70570  0.57730  Biso   1.000  C
  C12      1.0000 0.31980  0.83740  0.57770  Biso   1.000  C
  C13      1.0000 0.52760  0.74170  0.53220  Biso   1.000  C
  C14      1.0000 0.53470  0.59310  0.34270  Biso   1.000  C
  C15      1.0000 0.45810  0.76990  0.54300  Biso   1.000  C
  C16      1.0000 0.60210  0.67690  0.53210  Biso   1.000  C
  C17      1.0000 0.60170  0.58300  0.40830  Biso   1.000  C
  C18      1.0000 0.46050  0.56340  0.38720  Biso   1.000  C
  C19      1.0000 0.39400  0.56070  0.36100  Biso   1.000  C
  C20      1.0000 0.53480  0.71070  0.54960  Biso   1.000  C
  C21      1.0000 0.30890  0.94020  0.59510  Biso   1.000  C
  C22      1.0000 0.31010  0.97670  0.58260  Biso   1.000  C
  C23      1.0000 0.32140  0.72880  0.42890  Biso   1.000  C
  C24      1.0000 0.39580  0.75190  0.42560  Biso   1.000  C
  C25      1.0000 0.53200  0.79940  0.41990  Biso   1.000  C
  C26      1.0000 0.31780  0.63290  0.48960  Biso   1.000  C
  C27      1.0000 0.39470  0.80460  0.23320  Biso   1.000  C
  C28      1.0000 0.40860  0.85360  0.26470  Biso   1.000  C
  C29      1.0000 0.32110  0.69460  0.44560  Biso   1.000  C
  C30      1.0000 0.46750  0.72610  0.40940  Biso   1.000  C
  C31      1.0000 0.31920  0.60790  0.51630  Biso   1.000  C
  C32      1.0000 0.32130  0.78370  0.20660  Biso   1.000  C
  C33      1.0000 0.47420  0.87160  0.29430  Biso   1.000  C
  C34      1.0000 0.31980  0.74030  0.16260  Biso   1.000  C
  C35      1.0000 0.52760  0.79050  0.25830  Biso   1.000  C
  C36      1.0000 0.53470  0.74960  0.40690  Biso   1.000  C
  C37      1.0000 0.45810  0.77310  0.23010  Biso   1.000  C
  C38      1.0000 0.60210  0.85520  0.32310  Biso   1.000  C
  C39      1.0000 0.60170  0.82530  0.41700  Biso   1.000  C
  C40      1.0000 0.46050  0.82380  0.43660  Biso   1.000  C
  C41      1.0000 0.39400  0.80030  0.43930  Biso   1.000  C
  C42      1.0000 0.53480  0.83890  0.28930  Biso   1.000  C
  C43      1.0000 0.30890  0.65490  0.05980  Biso   1.000  C
  C44      1.0000 0.31010  0.60590  0.02330  Biso   1.000  C
  C45      1.0000 0.32140  0.70010  0.27120  Biso   1.000  C
  C46      1.0000 0.39580  0.67370  0.24810  Biso   1.000  C
  C47      1.0000 0.53200  0.62050  0.20060  Biso   1.000  C
  C48      1.0000 0.31780  0.85670  0.36710  Biso   1.000  C
  C49      1.0000 0.39470  0.42860  0.19540  Biso   1.000  C
  C50      1.0000 0.40860  0.41110  0.14640  Biso   1.000  C
  C51      1.0000 0.32110  0.75100  0.30540  Biso   1.000  C
  C52      1.0000 0.46750  0.68330  0.27390  Biso   1.000  C
  C53      1.0000 0.31920  0.90840  0.39210  Biso   1.000  C
  C54      1.0000 0.32130  0.42290  0.21630  Biso   1.000  C
  C55      1.0000 0.47420  0.42270  0.12840  Biso   1.000  C
  C56      1.0000 0.31980  0.42230  0.25970  Biso   1.000  C
  C57      1.0000 0.52760  0.46780  0.20950  Biso   1.000  C
  C58      1.0000 0.53470  0.65730  0.25040  Biso   1.000  C
  C59      1.0000 0.45810  0.45700  0.22690  Biso   1.000  C
  C60      1.0000 0.60210  0.46790  0.14480  Biso   1.000  C
  C61      1.0000 0.60170  0.59170  0.17470  Biso   1.000  C
  C62      1.0000 0.46050  0.61280  0.17620  Biso   1.000  C
  C63      1.0000 0.39400  0.63900  0.19970  Biso   1.000  C
  C64      1.0000 0.53480  0.45040  0.16110  Biso   1.000  C
  C65      1.0000 0.30890  0.40490  0.34510  Biso   1.000  C
  C66      1.0000 0.31010  0.41740  0.39410  Biso   1.000  C
  C67      1.0000 0.17860  0.57110  0.29990  Biso   1.000  C
  C68      1.0000 0.10420  0.57440  0.32630  Biso   1.000  C
  C69      1.0000 0.96800  0.58010  0.37950  Biso   1.000  C
  C70      1.0000 0.18220  0.51040  0.14330  Biso   1.000  C
  C71      1.0000 0.10530  0.76680  0.57140  Biso   1.000  C
  C72      1.0000 0.09140  0.73530  0.58890  Biso   1.000  C
  C73      1.0000 0.17890  0.55440  0.24900  Biso   1.000  C
  C74      1.0000 0.03250  0.59060  0.31670  Biso   1.000  C
  C75      1.0000 0.18080  0.48370  0.09160  Biso   1.000  C
  C76      1.0000 0.17870  0.79340  0.57710  Biso   1.000  C
  C77      1.0000 0.02580  0.70570  0.57730  Biso   1.000  C
  C78      1.0000 0.18020  0.83740  0.57770  Biso   1.000  C
  C79      1.0000 0.97240  0.74170  0.53220  Biso   1.000  C
  C80      1.0000 0.96530  0.59310  0.34270  Biso   1.000  C
  C81      1.0000 0.04190  0.76990  0.54300  Biso   1.000  C
  C82      1.0000 0.89790  0.67690  0.53210  Biso   1.000  C
  C83      1.0000 0.89830  0.58300  0.40830  Biso   1.000  C
  C84      1.0000 0.03950  0.56340  0.38720  Biso   1.000  C
  C85      1.0000 0.10600  0.56070  0.36100  Biso   1.000  C
  C86      1.0000 0.96520  0.71070  0.54960  Biso   1.000  C
  C87      1.0000 0.19110  0.94020  0.59510  Biso   1.000  C
  C88      1.0000 0.18990  0.97670  0.58260  Biso   1.000  C
  C89      1.0000 0.17860  0.72880  0.42890  Biso   1.000  C
  C90      1.0000 0.10420  0.75190  0.42560  Biso   1.000  C
  C91      1.0000 0.96800  0.79940  0.41990  Biso   1.000  C
  C92      1.0000 0.18220  0.63290  0.48960  Biso   1.000  C
  C93      1.0000 0.10530  0.80460  0.23320  Biso   1.000  C
  C94      1.0000 0.09140  0.85360  0.26470  Biso   1.000  C
  C95      1.0000 0.17890  0.69460  0.44560  Biso   1.000  C
  C96      1.0000 0.03250  0.72610  0.40940  Biso   1.000  C
  C97      1.0000 0.18080  0.60790  0.51630  Biso   1.000  C
  C98      1.0000 0.17870  0.78370  0.20660  Biso   1.000  C
  C99      1.0000 0.02580  0.87160  0.29430  Biso   1.000  C
  C100     1.0000 0.18020  0.74030  0.16260  Biso   1.000  C
  C101     1.0000 0.97240  0.79050  0.25830  Biso   1.000  C
  C102     1.0000 0.96530  0.74960  0.40690  Biso   1.000  C
  C103     1.0000 0.04190  0.77310  0.23010  Biso   1.000  C
  C104     1.0000 0.89790  0.85520  0.32310  Biso   1.000  C
  C105     1.0000 0.89830  0.82530  0.41700  Biso   1.000  C
  C106     1.0000 0.03950  0.82380  0.43660  Biso   1.000  C
  C107     1.0000 0.10600  0.80030  0.43930  Biso   1.000  C
  C108     1.0000 0.96520  0.83890  0.28930  Biso   1.000  C
  C109     1.0000 0.19110  0.65490  0.05980  Biso   1.000  C
  C110     1.0000 0.18990  0.60590  0.02330  Biso   1.000  C
  C111     1.0000 0.17860  0.70010  0.27120  Biso   1.000  C
  C112     1.0000 0.10420  0.67370  0.24810  Biso   1.000  C
  C113     1.0000 0.96800  0.62050  0.20060  Biso   1.000  C
  C114     1.0000 0.18220  0.85670  0.36710  Biso   1.000  C
  C115     1.0000 0.10530  0.42860  0.19540  Biso   1.000  C
  C116     1.0000 0.09140  0.41110  0.14640  Biso   1.000  C
  C117     1.0000 0.17890  0.75100  0.30540  Biso   1.000  C
  C118     1.0000 0.03250  0.68330  0.27390  Biso   1.000  C
  C119     1.0000 0.18080  0.90840  0.39210  Biso   1.000  C
  C120     1.0000 0.17870  0.42290  0.21630  Biso   1.000  C
  C121     1.0000 0.02580  0.42270  0.12840  Biso   1.000  C
  C122     1.0000 0.18020  0.42230  0.25970  Biso   1.000  C
  C123     1.0000 0.97240  0.46780  0.20950  Biso   1.000  C
  C124     1.0000 0.96530  0.65730  0.25040  Biso   1.000  C
  C125     1.0000 0.04190  0.45700  0.22690  Biso   1.000  C
  C126     1.0000 0.89790  0.46790  0.14480  Biso   1.000  C
  C127     1.0000 0.89830  0.59170  0.17470  Biso   1.000  C
  C128     1.0000 0.03950  0.61280  0.17620  Biso   1.000  C
  C129     1.0000 0.10600  0.63900  0.19970  Biso   1.000  C
  C130     1.0000 0.96520  0.45040  0.16110  Biso   1.000  C
  C131     1.0000 0.19110  0.40490  0.34510  Biso   1.000  C
  C132     1.0000 0.18990  0.41740  0.39410  Biso   1.000  C
  C133     1.0000 0.67860  0.27120  0.70010  Biso   1.000  C
  C134     1.0000 0.60420  0.24810  0.67370  Biso   1.000  C
  C135     1.0000 0.46800  0.20060  0.62050  Biso   1.000  C
  C136     1.0000 0.68220  0.36710  0.85670  Biso   1.000  C
  C137     1.0000 0.60530  0.19540  0.42860  Biso   1.000  C
  C138     1.0000 0.59140  0.14640  0.41110  Biso   1.000  C
  C139     1.0000 0.67890  0.30540  0.75100  Biso   1.000  C
  C140     1.0000 0.53250  0.27390  0.68330  Biso   1.000  C
  C141     1.0000 0.68080  0.39210  0.90840  Biso   1.000  C
  C142     1.0000 0.67870  0.21630  0.42290  Biso   1.000  C
  C143     1.0000 0.52580  0.12840  0.42270  Biso   1.000  C
  C144     1.0000 0.68020  0.25970  0.42230  Biso   1.000  C
  C145     1.0000 0.47240  0.20950  0.46780  Biso   1.000  C
  C146     1.0000 0.46530  0.25040  0.65730  Biso   1.000  C
  C147     1.0000 0.54190  0.22690  0.45700  Biso   1.000  C
  C148     1.0000 0.39790  0.14480  0.46790  Biso   1.000  C
  C149     1.0000 0.39830  0.17470  0.59170  Biso   1.000  C
  C150     1.0000 0.53950  0.17620  0.61280  Biso   1.000  C
  C151     1.0000 0.60600  0.19970  0.63900  Biso   1.000  C
  C152     1.0000 0.46520  0.16110  0.45040  Biso   1.000  C
  C153     1.0000 0.69110  0.34510  0.40490  Biso   1.000  C
  C154     1.0000 0.68990  0.39410  0.41740  Biso   1.000  C
  C155     1.0000 0.67860  0.29990  0.57110  Biso   1.000  C
  C156     1.0000 0.60420  0.32630  0.57440  Biso   1.000  C
  C157     1.0000 0.46800  0.37950  0.58010  Biso   1.000  C
  C158     1.0000 0.68220  0.14330  0.51040  Biso   1.000  C
  C159     1.0000 0.60530  0.57140  0.76680  Biso   1.000  C
  C160     1.0000 0.59140  0.58890  0.73530  Biso   1.000  C
  C161     1.0000 0.67890  0.24900  0.55440  Biso   1.000  C
  C162     1.0000 0.53250  0.31670  0.59060  Biso   1.000  C
  C163     1.0000 0.68080  0.09160  0.48370  Biso   1.000  C
  C164     1.0000 0.67870  0.57710  0.79340  Biso   1.000  C
  C165     1.0000 0.52580  0.57730  0.70570  Biso   1.000  C
  C166     1.0000 0.68020  0.57770  0.83740  Biso   1.000  C
  C167     1.0000 0.47240  0.53220  0.74170  Biso   1.000  C
  C168     1.0000 0.46530  0.34270  0.59310  Biso   1.000  C
  C169     1.0000 0.54190  0.54300  0.76990  Biso   1.000  C
  C170     1.0000 0.39790  0.53210  0.67690  Biso   1.000  C
  C171     1.0000 0.39830  0.40830  0.58300  Biso   1.000  C
  C172     1.0000 0.53950  0.38720  0.56340  Biso   1.000  C
  C173     1.0000 0.60600  0.36100  0.56070  Biso   1.000  C
  C174     1.0000 0.46520  0.54960  0.71070  Biso   1.000  C
  C175     1.0000 0.69110  0.59510  0.94020  Biso   1.000  C
  C176     1.0000 0.68990  0.58260  0.97670  Biso   1.000  C
  C177     1.0000 0.67860  0.42890  0.72880  Biso   1.000  C
  C178     1.0000 0.60420  0.42560  0.75190  Biso   1.000  C
  C179     1.0000 0.46800  0.41990  0.79940  Biso   1.000  C
  C180     1.0000 0.68220  0.48960  0.63290  Biso   1.000  C
  C181     1.0000 0.60530  0.23320  0.80460  Biso   1.000  C
  C182     1.0000 0.59140  0.26470  0.85360  Biso   1.000  C
  C183     1.0000 0.67890  0.44560  0.69460  Biso   1.000  C
  C184     1.0000 0.53250  0.40940  0.72610  Biso   1.000  C
  C185     1.0000 0.68080  0.51630  0.60790  Biso   1.000  C
  C186     1.0000 0.67870  0.20660  0.78370  Biso   1.000  C
  C187     1.0000 0.52580  0.29430  0.87160  Biso   1.000  C
  C188     1.0000 0.68020  0.16260  0.74030  Biso   1.000  C
  C189     1.0000 0.47240  0.25830  0.79050  Biso   1.000  C
  C190     1.0000 0.46530  0.40690  0.74960  Biso   1.000  C
  C191     1.0000 0.54190  0.23010  0.77310  Biso   1.000  C
  C192     1.0000 0.39790  0.32310  0.85520  Biso   1.000  C
  C193     1.0000 0.39830  0.41700  0.82530  Biso   1.000  C
  C194     1.0000 0.53950  0.43660  0.82380  Biso   1.000  C
  C195     1.0000 0.60600  0.43930  0.80030  Biso   1.000  C
  C196     1.0000 0.46520  0.28930  0.83890  Biso   1.000  C
  C197     1.0000 0.69110  0.05980  0.65490  Biso   1.000  C
  C198     1.0000 0.68990  0.02330  0.60590  Biso   1.000  C
  C199     1.0000 0.82140  0.27120  0.70010  Biso   1.000  C
  C200     1.0000 0.89580  0.24810  0.67370  Biso   1.000  C
  C201     1.0000 0.03200  0.20060  0.62050  Biso   1.000  C
  C202     1.0000 0.81780  0.36710  0.85670  Biso   1.000  C
  C203     1.0000 0.89470  0.19540  0.42860  Biso   1.000  C
  C204     1.0000 0.90860  0.14640  0.41110  Biso   1.000  C
  C205     1.0000 0.82110  0.30540  0.75100  Biso   1.000  C
  C206     1.0000 0.96750  0.27390  0.68330  Biso   1.000  C
  C207     1.0000 0.81920  0.39210  0.90840  Biso   1.000  C
  C208     1.0000 0.82130  0.21630  0.42290  Biso   1.000  C
  C209     1.0000 0.97420  0.12840  0.42270  Biso   1.000  C
  C210     1.0000 0.81980  0.25970  0.42230  Biso   1.000  C
  C211     1.0000 0.02760  0.20950  0.46780  Biso   1.000  C
  C212     1.0000 0.03470  0.25040  0.65730  Biso   1.000  C
  C213     1.0000 0.95810  0.22690  0.45700  Biso   1.000  C
  C214     1.0000 0.10210  0.14480  0.46790  Biso   1.000  C
  C215     1.0000 0.10170  0.17470  0.59170  Biso   1.000  C
  C216     1.0000 0.96050  0.17620  0.61280  Biso   1.000  C
  C217     1.0000 0.89400  0.19970  0.63900  Biso   1.000  C
  C218     1.0000 0.03480  0.16110  0.45040  Biso   1.000  C
  C219     1.0000 0.80890  0.34510  0.40490  Biso   1.000  C
  C220     1.0000 0.81010  0.39410  0.41740  Biso   1.000  C
  C221     1.0000 0.82140  0.29990  0.57110  Biso   1.000  C
  C222     1.0000 0.89580  0.32630  0.57440  Biso   1.000  C
  C223     1.0000 0.03200  0.37950  0.58010  Biso   1.000  C
  C224     1.0000 0.81780  0.14330  0.51040  Biso   1.000  C
  C225     1.0000 0.89470  0.57140  0.76680  Biso   1.000  C
  C226     1.0000 0.90860  0.58890  0.73530  Biso   1.000  C
  C227     1.0000 0.82110  0.24900  0.55440  Biso   1.000  C
  C228     1.0000 0.96750  0.31670  0.59060  Biso   1.000  C
  C229     1.0000 0.81920  0.09160  0.48370  Biso   1.000  C
  C230     1.0000 0.82130  0.57710  0.79340  Biso   1.000  C
  C231     1.0000 0.97420  0.57730  0.70570  Biso   1.000  C
  C232     1.0000 0.81980  0.57770  0.83740  Biso   1.000  C
  C233     1.0000 0.02760  0.53220  0.74170  Biso   1.000  C
  C234     1.0000 0.03470  0.34270  0.59310  Biso   1.000  C
  C235     1.0000 0.95810  0.54300  0.76990  Biso   1.000  C
  C236     1.0000 0.10210  0.53210  0.67690  Biso   1.000  C
  C237     1.0000 0.10170  0.40830  0.58300  Biso   1.000  C
  C238     1.0000 0.96050  0.38720  0.56340  Biso   1.000  C
  C239     1.0000 0.89400  0.36100  0.56070  Biso   1.000  C
  C240     1.0000 0.03480  0.54960  0.71070  Biso   1.000  C
  C241     1.0000 0.80890  0.59510  0.94020  Biso   1.000  C
  C242     1.0000 0.81010  0.58260  0.97670  Biso   1.000  C
  C243     1.0000 0.82140  0.42890  0.72880  Biso   1.000  C
  C244     1.0000 0.89580  0.42560  0.75190  Biso   1.000  C
  C245     1.0000 0.03200  0.41990  0.79940  Biso   1.000  C
  C246     1.0000 0.81780  0.48960  0.63290  Biso   1.000  C
  C247     1.0000 0.89470  0.23320  0.80460  Biso   1.000  C
  C248     1.0000 0.90860  0.26470  0.85360  Biso   1.000  C
  C249     1.0000 0.82110  0.44560  0.69460  Biso   1.000  C
  C250     1.0000 0.96750  0.40940  0.72610  Biso   1.000  C
  C251     1.0000 0.81920  0.51630  0.60790  Biso   1.000  C
  C252     1.0000 0.82130  0.20660  0.78370  Biso   1.000  C
  C253     1.0000 0.97420  0.29430  0.87160  Biso   1.000  C
  C254     1.0000 0.81980  0.16260  0.74030  Biso   1.000  C
  C255     1.0000 0.02760  0.25830  0.79050  Biso   1.000  C
  C256     1.0000 0.03470  0.40690  0.74960  Biso   1.000  C
  C257     1.0000 0.95810  0.23010  0.77310  Biso   1.000  C
  C258     1.0000 0.10210  0.32310  0.85520  Biso   1.000  C
  C259     1.0000 0.10170  0.41700  0.82530  Biso   1.000  C
  C260     1.0000 0.96050  0.43660  0.82380  Biso   1.000  C
  C261     1.0000 0.89400  0.43930  0.80030  Biso   1.000  C
  C262     1.0000 0.03480  0.28930  0.83890  Biso   1.000  C
  C263     1.0000 0.80890  0.05980  0.65490  Biso   1.000  C
  C264     1.0000 0.81010  0.02330  0.60590  Biso   1.000  C
  C265     1.0000 0.25000  0.57960  0.32300  Biso   1.000  C
  C266     1.0000 0.25000  0.98560  0.55800  Biso   1.000  C
  C267     1.0000 0.25000  0.02320  0.54690  Biso   1.000  C
  C268     1.0000 0.25000  0.44090  0.01310  Biso   1.000  C
  C269     1.0000 0.25000  0.52300  0.17030  Biso   1.000  C
  C270     1.0000 0.25000  0.90620  0.57580  Biso   1.000  C
  C271     1.0000 0.25000  0.77170  0.57490  Biso   1.000  C
  C272     1.0000 0.25000  0.86010  0.57780  Biso   1.000  C
  C273     1.0000 0.25000  0.54560  0.22360  Biso   1.000  C
  C274     1.0000 0.25000  0.47030  0.06760  Biso   1.000  C
  C275     1.0000 0.25000  0.74340  0.42040  Biso   1.000  C
  C276     1.0000 0.25000  0.57240  0.01440  Biso   1.000  C
  C277     1.0000 0.25000  0.52370  0.97680  Biso   1.000  C
  C278     1.0000 0.25000  0.57220  0.55910  Biso   1.000  C
  C279     1.0000 0.25000  0.64730  0.47700  Biso   1.000  C
  C280     1.0000 0.25000  0.66960  0.09380  Biso   1.000  C
  C281     1.0000 0.25000  0.80320  0.22830  Biso   1.000  C
  C282     1.0000 0.25000  0.71770  0.13990  Biso   1.000  C
  C283     1.0000 0.25000  0.67800  0.45440  Biso   1.000  C
  C284     1.0000 0.25000  0.59730  0.52970  Biso   1.000  C
  C285     1.0000 0.25000  0.67700  0.25660  Biso   1.000  C
  C286     1.0000 0.25000  0.44200  0.42760  Biso   1.000  C
  C287     1.0000 0.25000  0.45310  0.47630  Biso   1.000  C
  C288     1.0000 0.25000  0.98690  0.42780  Biso   1.000  C
  C289     1.0000 0.25000  0.82970  0.35270  Biso   1.000  C
  C290     1.0000 0.25000  0.42420  0.33040  Biso   1.000  C
  C291     1.0000 0.25000  0.42510  0.19680  Biso   1.000  C
  C292     1.0000 0.25000  0.42220  0.28230  Biso   1.000  C
  C293     1.0000 0.25000  0.77640  0.32200  Biso   1.000  C
  C294     1.0000 0.25000  0.93240  0.40270  Biso   1.000  C
  C295     1.0000 0.75000  0.25660  0.67700  Biso   1.000  C
  C296     1.0000 0.75000  0.42760  0.44200  Biso   1.000  C
  C297     1.0000 0.75000  0.47630  0.45310  Biso   1.000  C
  C298     1.0000 0.75000  0.42780  0.98690  Biso   1.000  C
  C299     1.0000 0.75000  0.35270  0.82970  Biso   1.000  C
  C300     1.0000 0.75000  0.33040  0.42420  Biso   1.000  C
  C301     1.0000 0.75000  0.19680  0.42510  Biso   1.000  C
  C302     1.0000 0.75000  0.28230  0.42220  Biso   1.000  C
  C303     1.0000 0.75000  0.32200  0.77640  Biso   1.000  C
  C304     1.0000 0.75000  0.40270  0.93240  Biso   1.000  C
  C305     1.0000 0.75000  0.32300  0.57960  Biso   1.000  C
  C306     1.0000 0.75000  0.55800  0.98560  Biso   1.000  C
  C307     1.0000 0.75000  0.54690  0.02320  Biso   1.000  C
  C308     1.0000 0.75000  0.01310  0.44090  Biso   1.000  C
  C309     1.0000 0.75000  0.17030  0.52300  Biso   1.000  C
  C310     1.0000 0.75000  0.57580  0.90620  Biso   1.000  C
  C311     1.0000 0.75000  0.57490  0.77170  Biso   1.000  C
  C312     1.0000 0.75000  0.57780  0.86010  Biso   1.000  C
  C313     1.0000 0.75000  0.22360  0.54560  Biso   1.000  C
  C314     1.0000 0.75000  0.06760  0.47030  Biso   1.000  C
  C315     1.0000 0.75000  0.42040  0.74340  Biso   1.000  C
  C316     1.0000 0.75000  0.01440  0.57240  Biso   1.000  C
  C317     1.0000 0.75000  0.97680  0.52370  Biso   1.000  C
  C318     1.0000 0.75000  0.55910  0.57220  Biso   1.000  C
  C319     1.0000 0.75000  0.47700  0.64730  Biso   1.000  C
  C320     1.0000 0.75000  0.09380  0.66960  Biso   1.000  C
  C321     1.0000 0.75000  0.22830  0.80320  Biso   1.000  C
  C322     1.0000 0.75000  0.13990  0.71770  Biso   1.000  C
  C323     1.0000 0.75000  0.45440  0.67800  Biso   1.000  C
  C324     1.0000 0.75000  0.52970  0.59730  Biso   1.000  C
  O1       1.0000 0.59350  0.56999  0.44012  Biso   1.000  O
  O2       1.0000 0.53830  0.54164  0.50993  Biso   1.000  O
  O3       1.0000 0.31510  0.03980  0.54210  Biso   1.000  O
  O4       1.0000 0.66290  0.60510  0.40640  Biso   1.000  O
  O5       1.0000 0.31460  0.43110  0.99205  Biso   1.000  O
  O6       1.0000 0.65630  0.68253  0.50917  Biso   1.000  O
  O7       1.0000 0.60240  0.64159  0.54204  Biso   1.000  O
  O8       1.0000 0.59350  0.87013  0.43001  Biso   1.000  O
  O9       1.0000 0.53830  0.96829  0.45836  Biso   1.000  O
  O10      1.0000 0.31510  0.50230  0.96020  Biso   1.000  O
  O11      1.0000 0.66290  0.80130  0.39490  Biso   1.000  O
  O12      1.0000 0.31460  0.56095  0.56890  Biso   1.000  O
  O13      1.0000 0.65630  0.82664  0.31747  Biso   1.000  O
  O14      1.0000 0.60240  0.90045  0.35841  Biso   1.000  O
  O15      1.0000 0.59350  0.55988  0.12987  Biso   1.000  O
  O16      1.0000 0.53830  0.49007  0.03171  Biso   1.000  O
  O17      1.0000 0.31510  0.45790  0.49770  Biso   1.000  O
  O18      1.0000 0.66290  0.59360  0.19870  Biso   1.000  O
  O19      1.0000 0.31460  0.00795  0.43905  Biso   1.000  O
  O20      1.0000 0.65630  0.49083  0.17336  Biso   1.000  O
  O21      1.0000 0.60240  0.45796  0.09955  Biso   1.000  O
  O22      1.0000 0.90650  0.56999  0.44012  Biso   1.000  O
  O23      1.0000 0.96170  0.54164  0.50993  Biso   1.000  O
  O24      1.0000 0.18490  0.03980  0.54210  Biso   1.000  O
  O25      1.0000 0.83710  0.60510  0.40640  Biso   1.000  O
  O26      1.0000 0.18540  0.43110  0.99205  Biso   1.000  O
  O27      1.0000 0.84370  0.68253  0.50917  Biso   1.000  O
  O28      1.0000 0.89760  0.64159  0.54204  Biso   1.000  O
  O29      1.0000 0.90650  0.87013  0.43001  Biso   1.000  O
  O30      1.0000 0.96170  0.96829  0.45836  Biso   1.000  O
  O31      1.0000 0.18490  0.50230  0.96020  Biso   1.000  O
  O32      1.0000 0.83710  0.80130  0.39490  Biso   1.000  O
  O33      1.0000 0.18540  0.56095  0.56890  Biso   1.000  O
  O34      1.0000 0.84370  0.82664  0.31747  Biso   1.000  O
  O35      1.0000 0.89760  0.90045  0.35841  Biso   1.000  O
  O36      1.0000 0.90650  0.55988  0.12987  Biso   1.000  O
  O37      1.0000 0.96170  0.49007  0.03171  Biso   1.000  O
  O38      1.0000 0.18490  0.45790  0.49770  Biso   1.000  O
  O39      1.0000 0.83710  0.59360  0.19870  Biso   1.000  O
  O40      1.0000 0.18540  0.00795  0.43905  Biso   1.000  O
  O41      1.0000 0.84370  0.49083  0.17336  Biso   1.000  O
  O42      1.0000 0.89760  0.45796  0.09955  Biso   1.000  O
  O43      1.0000 0.40650  0.12987  0.55988  Biso   1.000  O
  O44      1.0000 0.46170  0.03171  0.49007  Biso   1.000  O
  O45      1.0000 0.68490  0.49770  0.45790  Biso   1.000  O
  O46      1.0000 0.33710  0.19870  0.59360  Biso   1.000  O
  O47      1.0000 0.68540  0.43905  0.00795  Biso   1.000  O
  O48      1.0000 0.34370  0.17336  0.49083  Biso   1.000  O
  O49      1.0000 0.39760  0.09955  0.45796  Biso   1.000  O
  O50      1.0000 0.40650  0.44012  0.56999  Biso   1.000  O
  O51      1.0000 0.46170  0.50993  0.54164  Biso   1.000  O
  O52      1.0000 0.68490  0.54210  0.03980  Biso   1.000  O
  O53      1.0000 0.33710  0.40640  0.60510  Biso   1.000  O
  O54      1.0000 0.68540  0.99205  0.43110  Biso   1.000  O
  O55      1.0000 0.34370  0.50917  0.68253  Biso   1.000  O
  O56      1.0000 0.39760  0.54204  0.64159  Biso   1.000  O
  O57      1.0000 0.40650  0.43001  0.87013  Biso   1.000  O
  O58      1.0000 0.46170  0.45836  0.96829  Biso   1.000  O
  O59      1.0000 0.68490  0.96020  0.50230  Biso   1.000  O
  O60      1.0000 0.33710  0.39490  0.80130  Biso   1.000  O
  O61      1.0000 0.68540  0.56890  0.56095  Biso   1.000  O
  O62      1.0000 0.34370  0.31747  0.82664  Biso   1.000  O
  O63      1.0000 0.39760  0.35841  0.90045  Biso   1.000  O
  O64      1.0000 0.09350  0.12987  0.55988  Biso   1.000  O
  O65      1.0000 0.03830  0.03171  0.49007  Biso   1.000  O
  O66      1.0000 0.81510  0.49770  0.45790  Biso   1.000  O
  O67      1.0000 0.16290  0.19870  0.59360  Biso   1.000  O
  O68      1.0000 0.81460  0.43905  0.00795  Biso   1.000  O
  O69      1.0000 0.15630  0.17336  0.49083  Biso   1.000  O
  O70      1.0000 0.10240  0.09955  0.45796  Biso   1.000  O
  O71      1.0000 0.09350  0.44012  0.56999  Biso   1.000  O
  O72      1.0000 0.03830  0.50993  0.54164  Biso   1.000  O
  O73      1.0000 0.81510  0.54210  0.03980  Biso   1.000  O
  O74      1.0000 0.16290  0.40640  0.60510  Biso   1.000  O
  O75      1.0000 0.81460  0.99205  0.43110  Biso   1.000  O
  O76      1.0000 0.15630  0.50917  0.68253  Biso   1.000  O
  O77      1.0000 0.10240  0.54204  0.64159  Biso   1.000  O
  O78      1.0000 0.09350  0.43001  0.87013  Biso   1.000  O
  O79      1.0000 0.03830  0.45836  0.96829  Biso   1.000  O
  O80      1.0000 0.81510  0.96020  0.50230  Biso   1.000  O
  O81      1.0000 0.16290  0.39490  0.80130  Biso   1.000  O
  O82      1.0000 0.81460  0.56890  0.56095  Biso   1.000  O
  O83      1.0000 0.15630  0.31747  0.82664  Biso   1.000  O
  O84      1.0000 0.10240  0.35841  0.90045  Biso   1.000  O
  O85      1.0000 0.75000  0.59340  0.48574  Biso   1.000  O
  O86      1.0000 0.75000  0.69580  0.43830  Biso   1.000  O
  O87      1.0000 0.75000  0.89234  0.40660  Biso   1.000  O
  O88      1.0000 0.75000  0.74250  0.30420  Biso   1.000  O
  O89      1.0000 0.75000  0.51426  0.10766  Biso   1.000  O
  O90      1.0000 0.75000  0.56170  0.25750  Biso   1.000  O
  O91      1.0000 0.25000  0.10766  0.51426  Biso   1.000  O
  O92      1.0000 0.25000  0.25750  0.56170  Biso   1.000  O
  O93      1.0000 0.25000  0.48574  0.59340  Biso   1.000  O
  O94      1.0000 0.25000  0.43830  0.69580  Biso   1.000  O
  O95      1.0000 0.25000  0.40660  0.89234  Biso   1.000  O
  O96      1.0000 0.25000  0.30420  0.74250  Biso   1.000  O
