data_image0
_cell_length_a       11.217
_cell_length_b       11.526
_cell_length_c       17.703
_cell_angle_alpha    90
_cell_angle_beta     90
_cell_angle_gamma    106.917

_symmetry_space_group_name_H-M    P 1
_symmetry_int_tables_number       1

loop_
  _symmetry_equiv_pos_as_xyz
  'x, y, z'

loop_
  _atom_site_label
  _atom_site_occupancy
  _atom_site_fract_x
  _atom_site_fract_y
  _atom_site_fract_z
  _atom_site_thermal_displace_type
  _atom_site_B_iso_or_equiv
  _atom_site_type_symbol
  Zn1      1.0000 0.45895  0.86465  0.99223  Biso   1.000  Zn
  Zn2      1.0000 0.04105  0.13535  0.49223  Biso   1.000  Zn
  Zn3      1.0000 0.54105  0.13535  0.00777  Biso   1.000  Zn
  Zn4      1.0000 0.95895  0.86465  0.50777  Biso   1.000  Zn
  H1       1.0000 0.64830  0.85890  0.63480  Biso   1.000  H
  H2       1.0000 0.55590  0.84610  0.75380  Biso   1.000  H
  H3       1.0000 0.70360  0.20550  0.78110  Biso   1.000  H
  H4       1.0000 0.80510  0.21870  0.66400  Biso   1.000  H
  H5       1.0000 0.21240  0.70640  0.03540  Biso   1.000  H
  H6       1.0000 0.09720  0.50280  0.03910  Biso   1.000  H
  H7       1.0000 0.38040  0.42430  0.93380  Biso   1.000  H
  H8       1.0000 0.48540  0.62830  0.93050  Biso   1.000  H
  H9       1.0000 0.90260  0.12630  0.84310  Biso   1.000  H
  H10      1.0000 0.20150  0.08110  0.15180  Biso   1.000  H
  H11      1.0000 0.85170  0.14110  0.13480  Biso   1.000  H
  H12      1.0000 0.94410  0.15390  0.25380  Biso   1.000  H
  H13      1.0000 0.79640  0.79450  0.28110  Biso   1.000  H
  H14      1.0000 0.69490  0.78130  0.16400  Biso   1.000  H
  H15      1.0000 0.28760  0.29360  0.53540  Biso   1.000  H
  H16      1.0000 0.40280  0.49720  0.53910  Biso   1.000  H
  H17      1.0000 0.11960  0.57570  0.43380  Biso   1.000  H
  H18      1.0000 0.01460  0.37170  0.43050  Biso   1.000  H
  H19      1.0000 0.59740  0.87370  0.34310  Biso   1.000  H
  H20      1.0000 0.29850  0.91890  0.65180  Biso   1.000  H
  H21      1.0000 0.35170  0.14110  0.36520  Biso   1.000  H
  H22      1.0000 0.44410  0.15390  0.24620  Biso   1.000  H
  H23      1.0000 0.29640  0.79450  0.21890  Biso   1.000  H
  H24      1.0000 0.19490  0.78130  0.33600  Biso   1.000  H
  H25      1.0000 0.78760  0.29360  0.96460  Biso   1.000  H
  H26      1.0000 0.90280  0.49720  0.96090  Biso   1.000  H
  H27      1.0000 0.61960  0.57570  0.06620  Biso   1.000  H
  H28      1.0000 0.51460  0.37170  0.06950  Biso   1.000  H
  H29      1.0000 0.09740  0.87370  0.15690  Biso   1.000  H
  H30      1.0000 0.79850  0.91890  0.84820  Biso   1.000  H
  H31      1.0000 0.14830  0.85890  0.86520  Biso   1.000  H
  H32      1.0000 0.05590  0.84610  0.74620  Biso   1.000  H
  H33      1.0000 0.20360  0.20550  0.71890  Biso   1.000  H
  H34      1.0000 0.30510  0.21870  0.83600  Biso   1.000  H
  H35      1.0000 0.71240  0.70640  0.46460  Biso   1.000  H
  H36      1.0000 0.59720  0.50280  0.46090  Biso   1.000  H
  H37      1.0000 0.88040  0.42430  0.56620  Biso   1.000  H
  H38      1.0000 0.98540  0.62830  0.56950  Biso   1.000  H
  H39      1.0000 0.40260  0.12630  0.65690  Biso   1.000  H
  H40      1.0000 0.70150  0.08110  0.34820  Biso   1.000  H
  C1       1.0000 0.81600  0.04410  0.56650  Biso   1.000  C
  C2       1.0000 0.74070  0.03960  0.63870  Biso   1.000  C
  C3       1.0000 0.66290  0.92860  0.66500  Biso   1.000  C
  C4       1.0000 0.60680  0.92120  0.73630  Biso   1.000  C
  C5       1.0000 0.62580  0.02380  0.78140  Biso   1.000  C
  C6       1.0000 0.69580  0.13460  0.75280  Biso   1.000  C
  C7       1.0000 0.75560  0.14320  0.68190  Biso   1.000  C
  C8       1.0000 0.57650  0.01440  0.86240  Biso   1.000  C
  C9       1.0000 0.24730  0.64820  0.01530  Biso   1.000  C
  C10      1.0000 0.17750  0.52610  0.01790  Biso   1.000  C
  C11      1.0000 0.22820  0.44130  0.98910  Biso   1.000  C
  C12      1.0000 0.34450  0.48060  0.95550  Biso   1.000  C
  C13      1.0000 0.40720  0.60250  0.95430  Biso   1.000  C
  C14      1.0000 0.18900  0.24440  0.05280  Biso   1.000  C
  C15      1.0000 0.11900  0.11560  0.05610  Biso   1.000  C
  C16      1.0000 0.03200  0.06460  0.99880  Biso   1.000  C
  C17      1.0000 0.00330  0.13370  0.93850  Biso   1.000  C
  C18      1.0000 0.06790  0.26670  0.93680  Biso   1.000  C
  C19      1.0000 0.91870  0.07930  0.88310  Biso   1.000  C
  C20      1.0000 0.14330  0.04530  0.11420  Biso   1.000  C
  C21      1.0000 0.68400  0.95590  0.06650  Biso   1.000  C
  C22      1.0000 0.75930  0.96040  0.13870  Biso   1.000  C
  C23      1.0000 0.83710  0.07140  0.16500  Biso   1.000  C
  C24      1.0000 0.89320  0.07880  0.23630  Biso   1.000  C
  C25      1.0000 0.87420  0.97620  0.28140  Biso   1.000  C
  C26      1.0000 0.80420  0.86540  0.25280  Biso   1.000  C
  C27      1.0000 0.74440  0.85680  0.18190  Biso   1.000  C
  C28      1.0000 0.92350  0.98560  0.36240  Biso   1.000  C
  C29      1.0000 0.25270  0.35180  0.51530  Biso   1.000  C
  C30      1.0000 0.32250  0.47390  0.51790  Biso   1.000  C
  C31      1.0000 0.27180  0.55870  0.48910  Biso   1.000  C
  C32      1.0000 0.15550  0.51940  0.45550  Biso   1.000  C
  C33      1.0000 0.09280  0.39750  0.45430  Biso   1.000  C
  C34      1.0000 0.31100  0.75560  0.55280  Biso   1.000  C
  C35      1.0000 0.38100  0.88440  0.55610  Biso   1.000  C
  C36      1.0000 0.46800  0.93540  0.49880  Biso   1.000  C
  C37      1.0000 0.49670  0.86630  0.43850  Biso   1.000  C
  C38      1.0000 0.43210  0.73330  0.43680  Biso   1.000  C
  C39      1.0000 0.58130  0.92070  0.38310  Biso   1.000  C
  C40      1.0000 0.35670  0.95470  0.61420  Biso   1.000  C
  C41      1.0000 0.18400  0.95590  0.43350  Biso   1.000  C
  C42      1.0000 0.25930  0.96040  0.36130  Biso   1.000  C
  C43      1.0000 0.33710  0.07140  0.33500  Biso   1.000  C
  C44      1.0000 0.39320  0.07880  0.26370  Biso   1.000  C
  C45      1.0000 0.37420  0.97620  0.21860  Biso   1.000  C
  C46      1.0000 0.30420  0.86540  0.24720  Biso   1.000  C
  C47      1.0000 0.24440  0.85680  0.31810  Biso   1.000  C
  C48      1.0000 0.42350  0.98560  0.13760  Biso   1.000  C
  C49      1.0000 0.75270  0.35180  0.98470  Biso   1.000  C
  C50      1.0000 0.82250  0.47390  0.98210  Biso   1.000  C
  C51      1.0000 0.77180  0.55870  0.01090  Biso   1.000  C
  C52      1.0000 0.65550  0.51940  0.04450  Biso   1.000  C
  C53      1.0000 0.59280  0.39750  0.04570  Biso   1.000  C
  C54      1.0000 0.81100  0.75560  0.94720  Biso   1.000  C
  C55      1.0000 0.88100  0.88440  0.94390  Biso   1.000  C
  C56      1.0000 0.96800  0.93540  0.00120  Biso   1.000  C
  C57      1.0000 0.99670  0.86630  0.06150  Biso   1.000  C
  C58      1.0000 0.93210  0.73330  0.06320  Biso   1.000  C
  C59      1.0000 0.08130  0.92070  0.11690  Biso   1.000  C
  C60      1.0000 0.85670  0.95470  0.88580  Biso   1.000  C
  C61      1.0000 0.31600  0.04410  0.93350  Biso   1.000  C
  C62      1.0000 0.24070  0.03960  0.86130  Biso   1.000  C
  C63      1.0000 0.16290  0.92860  0.83500  Biso   1.000  C
  C64      1.0000 0.10680  0.92120  0.76370  Biso   1.000  C
  C65      1.0000 0.12580  0.02380  0.71860  Biso   1.000  C
  C66      1.0000 0.19580  0.13460  0.74720  Biso   1.000  C
  C67      1.0000 0.25560  0.14320  0.81810  Biso   1.000  C
  C68      1.0000 0.07650  0.01440  0.63760  Biso   1.000  C
  C69      1.0000 0.74730  0.64820  0.48470  Biso   1.000  C
  C70      1.0000 0.67750  0.52610  0.48210  Biso   1.000  C
  C71      1.0000 0.72820  0.44130  0.51090  Biso   1.000  C
  C72      1.0000 0.84450  0.48060  0.54450  Biso   1.000  C
  C73      1.0000 0.90720  0.60250  0.54570  Biso   1.000  C
  C74      1.0000 0.68900  0.24440  0.44720  Biso   1.000  C
  C75      1.0000 0.61900  0.11560  0.44390  Biso   1.000  C
  C76      1.0000 0.53200  0.06460  0.50120  Biso   1.000  C
  C77      1.0000 0.50330  0.13370  0.56150  Biso   1.000  C
  C78      1.0000 0.56790  0.26670  0.56320  Biso   1.000  C
  C79      1.0000 0.41870  0.07930  0.61690  Biso   1.000  C
  C80      1.0000 0.64330  0.04530  0.38580  Biso   1.000  C
  N1       1.0000 0.36070  0.68560  0.98570  Biso   1.000  N
  N2       1.0000 0.16000  0.31190  0.99200  Biso   1.000  N
  N3       1.0000 0.13930  0.31440  0.48570  Biso   1.000  N
  N4       1.0000 0.34000  0.68810  0.49200  Biso   1.000  N
  N5       1.0000 0.63930  0.31440  0.01430  Biso   1.000  N
  N6       1.0000 0.84000  0.68810  0.00800  Biso   1.000  N
  N7       1.0000 0.86070  0.68560  0.51430  Biso   1.000  N
  N8       1.0000 0.66000  0.31190  0.50800  Biso   1.000  N
  O1       1.0000 0.81750  0.94220  0.53910  Biso   1.000  O
  O2       1.0000 0.87610  0.14640  0.54080  Biso   1.000  O
  O3       1.0000 0.52930  0.90700  0.88750  Biso   1.000  O
  O4       1.0000 0.59090  0.11110  0.89790  Biso   1.000  O
  O5       1.0000 0.27150  0.29800  0.09780  Biso   1.000  O
  O6       1.0000 0.04470  0.33520  0.88900  Biso   1.000  O
  O7       1.0000 0.68250  0.05780  0.03910  Biso   1.000  O
  O8       1.0000 0.62390  0.85360  0.04080  Biso   1.000  O
  O9       1.0000 0.97070  0.09300  0.38750  Biso   1.000  O
  O10      1.0000 0.90910  0.88890  0.39790  Biso   1.000  O
  O11      1.0000 0.22850  0.70200  0.59780  Biso   1.000  O
  O12      1.0000 0.45530  0.66480  0.38900  Biso   1.000  O
  O13      1.0000 0.18250  0.05780  0.46090  Biso   1.000  O
  O14      1.0000 0.12390  0.85360  0.45920  Biso   1.000  O
  O15      1.0000 0.47070  0.09300  0.11250  Biso   1.000  O
  O16      1.0000 0.40910  0.88890  0.10210  Biso   1.000  O
  O17      1.0000 0.72850  0.70200  0.90220  Biso   1.000  O
  O18      1.0000 0.95530  0.66480  0.11100  Biso   1.000  O
  O19      1.0000 0.31750  0.94220  0.96090  Biso   1.000  O
  O20      1.0000 0.37610  0.14640  0.95920  Biso   1.000  O
  O21      1.0000 0.02930  0.90700  0.61250  Biso   1.000  O
  O22      1.0000 0.09090  0.11110  0.60210  Biso   1.000  O
  O23      1.0000 0.77150  0.29800  0.40220  Biso   1.000  O
  O24      1.0000 0.54470  0.33520  0.61100  Biso   1.000  O
