data_image0
_cell_length_a       15.282
_cell_length_b       15.436
_cell_length_c       24.6098
_cell_angle_alpha    106.579
_cell_angle_beta     108.089
_cell_angle_gamma    90

_symmetry_space_group_name_H-M    P 1
_symmetry_int_tables_number       1

loop_
  _symmetry_equiv_pos_as_xyz
  'x, y, z'

loop_
  _atom_site_label
  _atom_site_occupancy
  _atom_site_fract_x
  _atom_site_fract_y
  _atom_site_fract_z
  _atom_site_thermal_displace_type
  _atom_site_B_iso_or_equiv
  _atom_site_type_symbol
  Zn1      1.0000 0.64674  0.92791  0.80120  Biso   1.000  Zn
  Zn2      1.0000 0.07857  0.36719  0.66864  Biso   1.000  Zn
  Zn3      1.0000 0.15446  0.42791  0.80120  Biso   1.000  Zn
  Zn4      1.0000 0.59007  0.86719  0.66864  Biso   1.000  Zn
  H1       1.0000 0.33250  0.65060  0.81400  Biso   1.000  H
  H2       1.0000 0.43770  0.75860  0.81280  Biso   1.000  H
  H3       1.0000 0.35370  0.66800  0.63140  Biso   1.000  H
  H4       1.0000 0.24980  0.55890  0.63200  Biso   1.000  H
  H5       1.0000 0.75060  0.64930  0.65640  Biso   1.000  H
  H6       1.0000 0.85350  0.53890  0.65200  Biso   1.000  H
  H7       1.0000 0.93680  0.60160  0.83380  Biso   1.000  H
  H8       1.0000 0.83090  0.71020  0.83680  Biso   1.000  H
  H9       1.0000 0.76170  0.89230  0.91500  Biso   1.000  H
  H10      1.0000 0.79630  0.95040  0.01760  Biso   1.000  H
  H11      1.0000 0.64480  0.15900  0.99080  Biso   1.000  H
  H12      1.0000 0.61140  0.09120  0.88760  Biso   1.000  H
  H13      1.0000 0.64170  0.99530  0.18160  Biso   1.000  H
  H14      1.0000 0.68740  0.04610  0.28680  Biso   1.000  H
  H15      1.0000 0.95850  0.37010  0.28900  Biso   1.000  H
  H16      1.0000 0.90740  0.32260  0.18340  Biso   1.000  H
  H17      1.0000 0.96620  0.44790  0.57700  Biso   1.000  H
  H18      1.0000 0.88770  0.40930  0.47520  Biso   1.000  H
  H19      1.0000 0.95870  0.15350  0.46080  Biso   1.000  H
  H20      1.0000 0.03710  0.19970  0.56320  Biso   1.000  H
  H21      1.0000 0.48150  0.15060  0.81400  Biso   1.000  H
  H22      1.0000 0.37510  0.25860  0.81280  Biso   1.000  H
  H23      1.0000 0.27770  0.16800  0.63140  Biso   1.000  H
  H24      1.0000 0.38220  0.05890  0.63200  Biso   1.000  H
  H25      1.0000 0.90580  0.14930  0.65640  Biso   1.000  H
  H26      1.0000 0.79850  0.03890  0.65200  Biso   1.000  H
  H27      1.0000 0.89700  0.10160  0.83380  Biso   1.000  H
  H28      1.0000 0.00590  0.21020  0.83680  Biso   1.000  H
  H29      1.0000 0.15330  0.39230  0.91500  Biso   1.000  H
  H30      1.0000 0.22130  0.45040  0.01760  Biso   1.000  H
  H31      1.0000 0.34600  0.65900  0.99080  Biso   1.000  H
  H32      1.0000 0.27620  0.59120  0.88760  Biso   1.000  H
  H33      1.0000 0.53990  0.49530  0.18160  Biso   1.000  H
  H34      1.0000 0.59940  0.54610  0.28680  Biso   1.000  H
  H35      1.0000 0.33050  0.87010  0.28900  Biso   1.000  H
  H36      1.0000 0.27600  0.82260  0.18340  Biso   1.000  H
  H37      1.0000 0.61080  0.94790  0.57700  Biso   1.000  H
  H38      1.0000 0.58750  0.90930  0.47520  Biso   1.000  H
  H39      1.0000 0.50210  0.65350  0.46080  Biso   1.000  H
  H40      1.0000 0.52610  0.69970  0.56320  Biso   1.000  H
  C1       1.0000 0.21463  0.52370  0.72446  Biso   1.000  C
  C2       1.0000 0.28060  0.59390  0.72300  Biso   1.000  C
  C3       1.0000 0.33696  0.65380  0.77692  Biso   1.000  C
  C4       1.0000 0.39958  0.71780  0.77616  Biso   1.000  C
  C5       1.0000 0.40738  0.72320  0.72216  Biso   1.000  C
  C6       1.0000 0.34996  0.66390  0.66852  Biso   1.000  C
  C7       1.0000 0.28791  0.59960  0.66882  Biso   1.000  C
  C8       1.0000 0.47868  0.79020  0.72296  Biso   1.000  C
  C9       1.0000 0.72050  0.76650  0.74780  Biso   1.000  C
  C10      1.0000 0.78228  0.69150  0.74656  Biso   1.000  C
  C11      1.0000 0.78897  0.63980  0.69234  Biso   1.000  C
  C12      1.0000 0.85019  0.57460  0.68958  Biso   1.000  C
  C13      1.0000 0.90827  0.56110  0.74314  Biso   1.000  C
  C14      1.0000 0.89953  0.61160  0.79766  Biso   1.000  C
  C15      1.0000 0.83679  0.67630  0.79958  Biso   1.000  C
  C16      1.0000 0.98253  0.49680  0.74106  Biso   1.000  C
  C17      1.0000 0.73626  0.94620  0.93052  Biso   1.000  C
  C18      1.0000 0.75796  0.98050  0.99172  Biso   1.000  C
  C19      1.0000 0.72266  0.05990  0.01452  Biso   1.000  C
  C20      1.0000 0.66829  0.10330  0.97598  Biso   1.000  C
  C21      1.0000 0.64917  0.06230  0.91454  Biso   1.000  C
  C22      1.0000 0.70060  0.05060  0.10640  Biso   1.000  C
  C23      1.0000 0.72468  0.08760  0.17236  Biso   1.000  C
  C24      1.0000 0.68710  0.04560  0.20320  Biso   1.000  C
  C25      1.0000 0.71439  0.07560  0.26598  Biso   1.000  C
  C26      1.0000 0.78059  0.14850  0.29738  Biso   1.000  C
  C27      1.0000 0.81216  0.17750  0.36332  Biso   1.000  C
  C28      1.0000 0.91962  0.30070  0.36424  Biso   1.000  C
  C29      1.0000 0.88452  0.27110  0.29784  Biso   1.000  C
  C30      1.0000 0.91586  0.31760  0.26752  Biso   1.000  C
  C31      1.0000 0.88573  0.28870  0.20406  Biso   1.000  C
  C32      1.0000 0.82584  0.21250  0.17248  Biso   1.000  C
  C33      1.0000 0.80111  0.17870  0.10642  Biso   1.000  C
  C34      1.0000 0.78914  0.16400  0.20348  Biso   1.000  C
  C35      1.0000 0.81776  0.19510  0.26672  Biso   1.000  C
  C36      1.0000 0.96517  0.38740  0.55294  Biso   1.000  C
  C37      1.0000 0.91891  0.36540  0.49242  Biso   1.000  C
  C38      1.0000 0.91896  0.27740  0.45692  Biso   1.000  C
  C39      1.0000 0.96077  0.21490  0.48374  Biso   1.000  C
  C40      1.0000 0.00631  0.24280  0.54502  Biso   1.000  C
  C41      1.0000 0.50983  0.02370  0.72446  Biso   1.000  C
  C42      1.0000 0.44240  0.09390  0.72300  Biso   1.000  C
  C43      1.0000 0.43996  0.15380  0.77692  Biso   1.000  C
  C44      1.0000 0.37658  0.21780  0.77616  Biso   1.000  C
  C45      1.0000 0.31478  0.22320  0.72216  Biso   1.000  C
  C46      1.0000 0.31856  0.16390  0.66852  Biso   1.000  C
  C47      1.0000 0.38091  0.09960  0.66882  Biso   1.000  C
  C48      1.0000 0.24428  0.29020  0.72296  Biso   1.000  C
  C49      1.0000 0.02730  0.26650  0.74780  Biso   1.000  C
  C50      1.0000 0.96428  0.19150  0.74656  Biso   1.000  C
  C51      1.0000 0.90337  0.13980  0.69234  Biso   1.000  C
  C52      1.0000 0.83939  0.07460  0.68958  Biso   1.000  C
  C53      1.0000 0.83487  0.06110  0.74314  Biso   1.000  C
  C54      1.0000 0.89813  0.11160  0.79766  Biso   1.000  C
  C55      1.0000 0.96279  0.17630  0.79958  Biso   1.000  C
  C56      1.0000 0.75853  0.99680  0.74106  Biso   1.000  C
  C57      1.0000 0.19426  0.44620  0.93052  Biso   1.000  C
  C58      1.0000 0.23376  0.48050  0.99172  Biso   1.000  C
  C59      1.0000 0.29186  0.55990  0.01452  Biso   1.000  C
  C60      1.0000 0.30769  0.60330  0.97598  Biso   1.000  C
  C61      1.0000 0.26537  0.56230  0.91454  Biso   1.000  C
  C62      1.0000 0.40580  0.55060  0.10640  Biso   1.000  C
  C63      1.0000 0.44768  0.58760  0.17236  Biso   1.000  C
  C64      1.0000 0.51610  0.54560  0.20320  Biso   1.000  C
  C65      1.0000 0.55159  0.57560  0.26598  Biso   1.000  C
  C66      1.0000 0.51679  0.64850  0.29738  Biso   1.000  C
  C67      1.0000 0.55116  0.67750  0.36332  Biso   1.000  C
  C68      1.0000 0.44462  0.80070  0.36424  Biso   1.000  C
  C69      1.0000 0.41332  0.77110  0.29784  Biso   1.000  C
  C70      1.0000 0.35166  0.81760  0.26752  Biso   1.000  C
  C71      1.0000 0.31833  0.78870  0.20406  Biso   1.000  C
  C72      1.0000 0.34664  0.71250  0.17248  Biso   1.000  C
  C73      1.0000 0.30531  0.67870  0.10642  Biso   1.000  C
  C74      1.0000 0.41434  0.66400  0.20348  Biso   1.000  C
  C75      1.0000 0.44896  0.69510  0.26672  Biso   1.000  C
  C76      1.0000 0.58777  0.88740  0.55294  Biso   1.000  C
  C77      1.0000 0.57351  0.86540  0.49242  Biso   1.000  C
  C78      1.0000 0.53796  0.77740  0.45692  Biso   1.000  C
  C79      1.0000 0.52297  0.71490  0.48374  Biso   1.000  C
  C80      1.0000 0.53871  0.74280  0.54502  Biso   1.000  C
  N1       1.0000 0.68145  0.98430  0.89170  Biso   1.000  N
  N2       1.0000 0.00887  0.32790  0.57974  Biso   1.000  N
  N3       1.0000 0.74199  0.09790  0.07818  Biso   1.000  N
  N4       1.0000 0.87903  0.25270  0.39286  Biso   1.000  N
  N5       1.0000 0.21025  0.48430  0.89170  Biso   1.000  N
  N6       1.0000 0.57087  0.82790  0.57974  Biso   1.000  N
  N7       1.0000 0.33619  0.59790  0.07818  Biso   1.000  N
  N8       1.0000 0.51383  0.75270  0.39286  Biso   1.000  N
  O1       1.0000 0.21384  0.52070  0.77528  Biso   1.000  O
  O2       1.0000 0.16343  0.47260  0.67466  Biso   1.000  O
  O3       1.0000 0.52969  0.84010  0.77298  Biso   1.000  O
  O4       1.0000 0.48540  0.79020  0.67300  Biso   1.000  O
  O5       1.0000 0.72089  0.81710  0.79898  Biso   1.000  O
  O6       1.0000 0.67495  0.77730  0.69850  Biso   1.000  O
  O7       1.0000 0.03680  0.49370  0.79040  Biso   1.000  O
  O8       1.0000 0.98555  0.45460  0.68990  Biso   1.000  O
  O9       1.0000 0.64726  0.98300  0.07652  Biso   1.000  O
  O10      1.0000 0.83158  0.21490  0.07816  Biso   1.000  O
  O11      1.0000 0.78401  0.13870  0.39242  Biso   1.000  O
  O12      1.0000 0.97931  0.36250  0.39282  Biso   1.000  O
  O13      1.0000 0.56144  0.02070  0.77528  Biso   1.000  O
  O14      1.0000 0.51123  0.97260  0.67466  Biso   1.000  O
  O15      1.0000 0.24329  0.34010  0.77298  Biso   1.000  O
  O16      1.0000 0.18760  0.29020  0.67300  Biso   1.000  O
  O17      1.0000 0.07809  0.31710  0.79898  Biso   1.000  O
  O18      1.0000 0.02355  0.27730  0.69850  Biso   1.000  O
  O19      1.0000 0.75360  0.99370  0.79040  Biso   1.000  O
  O20      1.0000 0.70435  0.95460  0.68990  Biso   1.000  O
  O21      1.0000 0.42926  0.48300  0.07652  Biso   1.000  O
  O22      1.0000 0.24658  0.71490  0.07816  Biso   1.000  O
  O23      1.0000 0.60841  0.63870  0.39242  Biso   1.000  O
  O24      1.0000 0.41351  0.86250  0.39282  Biso   1.000  O
  Zn5      1.0000 0.84554  0.57209  0.19880  Biso   1.000  Zn
  Zn6      1.0000 0.40993  0.13281  0.33136  Biso   1.000  Zn
  Zn7      1.0000 0.35326  0.07209  0.19880  Biso   1.000  Zn
  Zn8      1.0000 0.92143  0.63281  0.33136  Biso   1.000  Zn
  H41      1.0000 0.51850  0.84940  0.18600  Biso   1.000  H
  H42      1.0000 0.62490  0.74140  0.18720  Biso   1.000  H
  H43      1.0000 0.72230  0.83200  0.36860  Biso   1.000  H
  H44      1.0000 0.61780  0.94110  0.36800  Biso   1.000  H
  H45      1.0000 0.09420  0.85070  0.34360  Biso   1.000  H
  H46      1.0000 0.20150  0.96110  0.34800  Biso   1.000  H
  H47      1.0000 0.10300  0.89840  0.16620  Biso   1.000  H
  H48      1.0000 0.99410  0.78980  0.16320  Biso   1.000  H
  H49      1.0000 0.84670  0.60770  0.08500  Biso   1.000  H
  H50      1.0000 0.77870  0.54960  0.98240  Biso   1.000  H
  H51      1.0000 0.65400  0.34100  0.00920  Biso   1.000  H
  H52      1.0000 0.72380  0.40880  0.11240  Biso   1.000  H
  H53      1.0000 0.46010  0.50470  0.81840  Biso   1.000  H
  H54      1.0000 0.40060  0.45390  0.71320  Biso   1.000  H
  H55      1.0000 0.66950  0.12990  0.71100  Biso   1.000  H
  H56      1.0000 0.72400  0.17740  0.81660  Biso   1.000  H
  H57      1.0000 0.38920  0.05210  0.42300  Biso   1.000  H
  H58      1.0000 0.41250  0.09070  0.52480  Biso   1.000  H
  H59      1.0000 0.49790  0.34650  0.53920  Biso   1.000  H
  H60      1.0000 0.47390  0.30030  0.43680  Biso   1.000  H
  H61      1.0000 0.66750  0.34940  0.18600  Biso   1.000  H
  H62      1.0000 0.56230  0.24140  0.18720  Biso   1.000  H
  H63      1.0000 0.64630  0.33200  0.36860  Biso   1.000  H
  H64      1.0000 0.75020  0.44110  0.36800  Biso   1.000  H
  H65      1.0000 0.24940  0.35070  0.34360  Biso   1.000  H
  H66      1.0000 0.14650  0.46110  0.34800  Biso   1.000  H
  H67      1.0000 0.06320  0.39840  0.16620  Biso   1.000  H
  H68      1.0000 0.16910  0.28980  0.16320  Biso   1.000  H
  H69      1.0000 0.23830  0.10770  0.08500  Biso   1.000  H
  H70      1.0000 0.20370  0.04960  0.98240  Biso   1.000  H
  H71      1.0000 0.35520  0.84100  0.00920  Biso   1.000  H
  H72      1.0000 0.38860  0.90880  0.11240  Biso   1.000  H
  H73      1.0000 0.35830  0.00470  0.81840  Biso   1.000  H
  H74      1.0000 0.31260  0.95390  0.71320  Biso   1.000  H
  H75      1.0000 0.04150  0.62990  0.71100  Biso   1.000  H
  H76      1.0000 0.09260  0.67740  0.81660  Biso   1.000  H
  H77      1.0000 0.03380  0.55210  0.42300  Biso   1.000  H
  H78      1.0000 0.11230  0.59070  0.52480  Biso   1.000  H
  H79      1.0000 0.04130  0.84650  0.53920  Biso   1.000  H
  H80      1.0000 0.96290  0.80030  0.43680  Biso   1.000  H
  C81      1.0000 0.49017  0.97630  0.27554  Biso   1.000  C
  C82      1.0000 0.55760  0.90610  0.27700  Biso   1.000  C
  C83      1.0000 0.56004  0.84620  0.22308  Biso   1.000  C
  C84      1.0000 0.62342  0.78220  0.22384  Biso   1.000  C
  C85      1.0000 0.68522  0.77680  0.27784  Biso   1.000  C
  C86      1.0000 0.68144  0.83610  0.33148  Biso   1.000  C
  C87      1.0000 0.61909  0.90040  0.33118  Biso   1.000  C
  C88      1.0000 0.75572  0.70980  0.27704  Biso   1.000  C
  C89      1.0000 0.97270  0.73350  0.25220  Biso   1.000  C
  C90      1.0000 0.03572  0.80850  0.25344  Biso   1.000  C
  C91      1.0000 0.09663  0.86020  0.30766  Biso   1.000  C
  C92      1.0000 0.16061  0.92540  0.31042  Biso   1.000  C
  C93      1.0000 0.16513  0.93890  0.25686  Biso   1.000  C
  C94      1.0000 0.10187  0.88840  0.20234  Biso   1.000  C
  C95      1.0000 0.03721  0.82370  0.20042  Biso   1.000  C
  C96      1.0000 0.24147  0.00320  0.25894  Biso   1.000  C
  C97      1.0000 0.80574  0.55380  0.06948  Biso   1.000  C
  C98      1.0000 0.76624  0.51950  0.00828  Biso   1.000  C
  C99      1.0000 0.70814  0.44010  0.98548  Biso   1.000  C
  C100     1.0000 0.69231  0.39670  0.02402  Biso   1.000  C
  C101     1.0000 0.73463  0.43770  0.08546  Biso   1.000  C
  C102     1.0000 0.59420  0.44940  0.89360  Biso   1.000  C
  C103     1.0000 0.55232  0.41240  0.82764  Biso   1.000  C
  C104     1.0000 0.48390  0.45440  0.79680  Biso   1.000  C
  C105     1.0000 0.44841  0.42440  0.73402  Biso   1.000  C
  C106     1.0000 0.48321  0.35150  0.70262  Biso   1.000  C
  C107     1.0000 0.44884  0.32250  0.63668  Biso   1.000  C
  C108     1.0000 0.55538  0.19930  0.63576  Biso   1.000  C
  C109     1.0000 0.58668  0.22890  0.70216  Biso   1.000  C
  C110     1.0000 0.64834  0.18240  0.73248  Biso   1.000  C
  C111     1.0000 0.68167  0.21130  0.79594  Biso   1.000  C
  C112     1.0000 0.65336  0.28750  0.82752  Biso   1.000  C
  C113     1.0000 0.69469  0.32130  0.89358  Biso   1.000  C
  C114     1.0000 0.58566  0.33600  0.79652  Biso   1.000  C
  C115     1.0000 0.55104  0.30490  0.73328  Biso   1.000  C
  C116     1.0000 0.41223  0.11260  0.44706  Biso   1.000  C
  C117     1.0000 0.42649  0.13460  0.50758  Biso   1.000  C
  C118     1.0000 0.46204  0.22260  0.54308  Biso   1.000  C
  C119     1.0000 0.47703  0.28510  0.51626  Biso   1.000  C
  C120     1.0000 0.46129  0.25720  0.45498  Biso   1.000  C
  C121     1.0000 0.78537  0.47630  0.27554  Biso   1.000  C
  C122     1.0000 0.71940  0.40610  0.27700  Biso   1.000  C
  C123     1.0000 0.66304  0.34620  0.22308  Biso   1.000  C
  C124     1.0000 0.60042  0.28220  0.22384  Biso   1.000  C
  C125     1.0000 0.59262  0.27680  0.27784  Biso   1.000  C
  C126     1.0000 0.65004  0.33610  0.33148  Biso   1.000  C
  C127     1.0000 0.71209  0.40040  0.33118  Biso   1.000  C
  C128     1.0000 0.52132  0.20980  0.27704  Biso   1.000  C
  C129     1.0000 0.27950  0.23350  0.25220  Biso   1.000  C
  C130     1.0000 0.21772  0.30850  0.25344  Biso   1.000  C
  C131     1.0000 0.21103  0.36020  0.30766  Biso   1.000  C
  C132     1.0000 0.14981  0.42540  0.31042  Biso   1.000  C
  C133     1.0000 0.09173  0.43890  0.25686  Biso   1.000  C
  C134     1.0000 0.10047  0.38840  0.20234  Biso   1.000  C
  C135     1.0000 0.16321  0.32370  0.20042  Biso   1.000  C
  C136     1.0000 0.01747  0.50320  0.25894  Biso   1.000  C
  C137     1.0000 0.26374  0.05380  0.06948  Biso   1.000  C
  C138     1.0000 0.24204  0.01950  0.00828  Biso   1.000  C
  C139     1.0000 0.27734  0.94010  0.98548  Biso   1.000  C
  C140     1.0000 0.33171  0.89670  0.02402  Biso   1.000  C
  C141     1.0000 0.35083  0.93770  0.08546  Biso   1.000  C
  C142     1.0000 0.29940  0.94940  0.89360  Biso   1.000  C
  C143     1.0000 0.27532  0.91240  0.82764  Biso   1.000  C
  C144     1.0000 0.31290  0.95440  0.79680  Biso   1.000  C
  C145     1.0000 0.28561  0.92440  0.73402  Biso   1.000  C
  C146     1.0000 0.21941  0.85150  0.70262  Biso   1.000  C
  C147     1.0000 0.18784  0.82250  0.63668  Biso   1.000  C
  C148     1.0000 0.08038  0.69930  0.63576  Biso   1.000  C
  C149     1.0000 0.11548  0.72890  0.70216  Biso   1.000  C
  C150     1.0000 0.08414  0.68240  0.73248  Biso   1.000  C
  C151     1.0000 0.11427  0.71130  0.79594  Biso   1.000  C
  C152     1.0000 0.17416  0.78750  0.82752  Biso   1.000  C
  C153     1.0000 0.19889  0.82130  0.89358  Biso   1.000  C
  C154     1.0000 0.21086  0.83600  0.79652  Biso   1.000  C
  C155     1.0000 0.18224  0.80490  0.73328  Biso   1.000  C
  C156     1.0000 0.03483  0.61260  0.44706  Biso   1.000  C
  C157     1.0000 0.08109  0.63460  0.50758  Biso   1.000  C
  C158     1.0000 0.08104  0.72260  0.54308  Biso   1.000  C
  C159     1.0000 0.03923  0.78510  0.51626  Biso   1.000  C
  C160     1.0000 0.99369  0.75720  0.45498  Biso   1.000  C
  N9       1.0000 0.78975  0.51570  0.10830  Biso   1.000  N
  N10      1.0000 0.42913  0.17210  0.42026  Biso   1.000  N
  N11      1.0000 0.66381  0.40210  0.92182  Biso   1.000  N
  N12      1.0000 0.48617  0.24730  0.60714  Biso   1.000  N
  N13      1.0000 0.31855  0.01570  0.10830  Biso   1.000  N
  N14      1.0000 0.99113  0.67210  0.42026  Biso   1.000  N
  N15      1.0000 0.25801  0.90210  0.92182  Biso   1.000  N
  N16      1.0000 0.12097  0.74730  0.60714  Biso   1.000  N
  O25      1.0000 0.43856  0.97930  0.22472  Biso   1.000  O
  O26      1.0000 0.48877  0.02740  0.32534  Biso   1.000  O
  O27      1.0000 0.75671  0.65990  0.22702  Biso   1.000  O
  O28      1.0000 0.81240  0.70980  0.32700  Biso   1.000  O
  O29      1.0000 0.92191  0.68290  0.20102  Biso   1.000  O
  O30      1.0000 0.97645  0.72270  0.30150  Biso   1.000  O
  O31      1.0000 0.24640  0.00630  0.20960  Biso   1.000  O
  O32      1.0000 0.29565  0.04540  0.31010  Biso   1.000  O
  O33      1.0000 0.57074  0.51700  0.92348  Biso   1.000  O
  O34      1.0000 0.75342  0.28510  0.92184  Biso   1.000  O
  O35      1.0000 0.39159  0.36130  0.60758  Biso   1.000  O
  O36      1.0000 0.58649  0.13750  0.60718  Biso   1.000  O
  O37      1.0000 0.78616  0.47930  0.22472  Biso   1.000  O
  O38      1.0000 0.83657  0.52740  0.32534  Biso   1.000  O
  O39      1.0000 0.47031  0.15990  0.22702  Biso   1.000  O
  O40      1.0000 0.51460  0.20980  0.32700  Biso   1.000  O
  O41      1.0000 0.27911  0.18290  0.20102  Biso   1.000  O
  O42      1.0000 0.32505  0.22270  0.30150  Biso   1.000  O
  O43      1.0000 0.96320  0.50630  0.20960  Biso   1.000  O
  O44      1.0000 0.01445  0.54540  0.31010  Biso   1.000  O
  O45      1.0000 0.35274  0.01700  0.92348  Biso   1.000  O
  O46      1.0000 0.16842  0.78510  0.92184  Biso   1.000  O
  O47      1.0000 0.21599  0.86130  0.60758  Biso   1.000  O
  O48      1.0000 0.02069  0.63750  0.60718  Biso   1.000  O
