data_image0
_cell_length_a       7.2308
_cell_length_b       17.9845
_cell_length_c       17.9845
_cell_angle_alpha    61.767
_cell_angle_beta     82.2981
_cell_angle_gamma    97.7019

_symmetry_space_group_name_H-M    P 1
_symmetry_int_tables_number       1

loop_
  _symmetry_equiv_pos_as_xyz
  'x, y, z'

loop_
  _atom_site_label
  _atom_site_occupancy
  _atom_site_fract_x
  _atom_site_fract_y
  _atom_site_fract_z
  _atom_site_thermal_displace_type
  _atom_site_B_iso_or_equiv
  _atom_site_type_symbol
  Er1      1.0000 0.78323  0.00052  0.66851  Biso   1.000  Er
  Er2      1.0000 0.45174  0.66851  0.33097  Biso   1.000  Er
  Er3      1.0000 0.78271  0.33097  0.00052  Biso   1.000  Er
  Er4      1.0000 0.21677  0.99948  0.33149  Biso   1.000  Er
  Er5      1.0000 0.54826  0.33149  0.66903  Biso   1.000  Er
  Er6      1.0000 0.21729  0.66903  0.99948  Biso   1.000  Er
  C1       1.0000 0.07610  0.03970  0.49040  Biso   1.000  C
  C2       1.0000 0.57320  0.13340  0.70740  Biso   1.000  C
  C3       1.0000 0.74300  0.19530  0.63040  Biso   1.000  C
  C4       1.0000 0.56650  0.49040  0.46990  Biso   1.000  C
  C5       1.0000 0.28060  0.70740  0.15920  Biso   1.000  C
  C6       1.0000 0.37340  0.63040  0.17430  Biso   1.000  C
  C7       1.0000 0.03640  0.46990  0.03970  Biso   1.000  C
  C8       1.0000 0.43980  0.15920  0.13340  Biso   1.000  C
  C9       1.0000 0.54770  0.17430  0.19530  Biso   1.000  C
  C10      1.0000 0.92390  0.96030  0.50960  Biso   1.000  C
  C11      1.0000 0.42680  0.86660  0.29260  Biso   1.000  C
  C12      1.0000 0.25700  0.80470  0.36960  Biso   1.000  C
  C13      1.0000 0.43350  0.50960  0.53010  Biso   1.000  C
  C14      1.0000 0.71940  0.29260  0.84080  Biso   1.000  C
  C15      1.0000 0.62660  0.36960  0.82570  Biso   1.000  C
  C16      1.0000 0.96360  0.53010  0.96030  Biso   1.000  C
  C17      1.0000 0.56020  0.84080  0.86660  Biso   1.000  C
  C18      1.0000 0.45230  0.82570  0.80470  Biso   1.000  C
  O1       1.0000 0.55577  0.05484  0.73243  Biso   1.000  O
  O2       1.0000 0.84570  0.16134  0.60064  Biso   1.000  O
  O3       1.0000 0.05010  0.06859  0.54149  Biso   1.000  O
  O4       1.0000 0.20943  0.06870  0.42511  Biso   1.000  O
  O5       1.0000 0.46876  0.16790  0.73662  Biso   1.000  O
  O6       1.0000 0.76060  0.27436  0.60506  Biso   1.000  O
  O7       1.0000 0.57217  0.04873  0.56912  Biso   1.000  O
  O8       1.0000 0.02240  0.05440  0.72260  Biso   1.000  O
  O9       1.0000 0.98743  0.89786  0.71537  Biso   1.000  O
  O10      1.0000 0.28820  0.73243  0.21273  Biso   1.000  O
  O11      1.0000 0.44634  0.60064  0.23802  Biso   1.000  O
  O12      1.0000 0.59159  0.54149  0.38992  Biso   1.000  O
  O13      1.0000 0.63454  0.42511  0.50619  Biso   1.000  O
  O14      1.0000 0.20538  0.73662  0.09548  Biso   1.000  O
  O15      1.0000 0.36566  0.60506  0.12058  Biso   1.000  O
  O16      1.0000 0.14129  0.56912  0.38215  Biso   1.000  O
  O17      1.0000 0.74500  0.72260  0.22300  Biso   1.000  O
  O18      1.0000 0.70280  0.71537  0.38677  Biso   1.000  O
  O19      1.0000 0.50093  0.21273  0.05484  Biso   1.000  O
  O20      1.0000 0.68436  0.23802  0.16134  Biso   1.000  O
  O21      1.0000 0.98151  0.38992  0.06859  Biso   1.000  O
  O22      1.0000 0.14073  0.50619  0.06870  Biso   1.000  O
  O23      1.0000 0.30086  0.09548  0.16790  Biso   1.000  O
  O24      1.0000 0.48624  0.12058  0.27436  Biso   1.000  O
  O25      1.0000 0.52344  0.38215  0.04873  Biso   1.000  O
  O26      1.0000 0.96800  0.22300  0.05440  Biso   1.000  O
  O27      1.0000 0.08957  0.38677  0.89786  Biso   1.000  O
  O28      1.0000 0.44423  0.94516  0.26757  Biso   1.000  O
  O29      1.0000 0.15430  0.83866  0.39936  Biso   1.000  O
  O30      1.0000 0.94990  0.93141  0.45851  Biso   1.000  O
  O31      1.0000 0.79057  0.93130  0.57489  Biso   1.000  O
  O32      1.0000 0.53124  0.83210  0.26338  Biso   1.000  O
  O33      1.0000 0.23940  0.72564  0.39494  Biso   1.000  O
  O34      1.0000 0.42783  0.95127  0.43088  Biso   1.000  O
  O35      1.0000 0.97760  0.94560  0.27740  Biso   1.000  O
  O36      1.0000 0.01257  0.10214  0.28463  Biso   1.000  O
  O37      1.0000 0.71180  0.26757  0.78727  Biso   1.000  O
  O38      1.0000 0.55366  0.39936  0.76198  Biso   1.000  O
  O39      1.0000 0.40841  0.45851  0.61008  Biso   1.000  O
  O40      1.0000 0.36546  0.57489  0.49381  Biso   1.000  O
  O41      1.0000 0.79462  0.26338  0.90452  Biso   1.000  O
  O42      1.0000 0.63434  0.39494  0.87942  Biso   1.000  O
  O43      1.0000 0.85871  0.43088  0.61785  Biso   1.000  O
  O44      1.0000 0.25500  0.27740  0.77700  Biso   1.000  O
  O45      1.0000 0.29720  0.28463  0.61323  Biso   1.000  O
  O46      1.0000 0.49907  0.78727  0.94516  Biso   1.000  O
  O47      1.0000 0.31564  0.76198  0.83866  Biso   1.000  O
  O48      1.0000 0.01849  0.61008  0.93141  Biso   1.000  O
  O49      1.0000 0.85927  0.49381  0.93130  Biso   1.000  O
  O50      1.0000 0.69914  0.90452  0.83210  Biso   1.000  O
  O51      1.0000 0.51376  0.87942  0.72564  Biso   1.000  O
  O52      1.0000 0.47656  0.61785  0.95127  Biso   1.000  O
  O53      1.0000 0.03200  0.77700  0.94560  Biso   1.000  O
  O54      1.0000 0.91043  0.61323  0.10214  Biso   1.000  O
