data_image0
_cell_length_a       18.4456
_cell_length_b       18.4456
_cell_length_c       39.5369
_cell_angle_alpha    90
_cell_angle_beta     90
_cell_angle_gamma    120

_symmetry_space_group_name_H-M    P 1
_symmetry_int_tables_number       1

loop_
  _symmetry_equiv_pos_as_xyz
  'x, y, z'

loop_
  _atom_site_label
  _atom_site_occupancy
  _atom_site_fract_x
  _atom_site_fract_y
  _atom_site_fract_z
  _atom_site_thermal_displace_type
  _atom_site_B_iso_or_equiv
  _atom_site_type_symbol
  Cu1      1.0000 0.52450  0.04900  0.47266  Biso   1.000  Cu
  Cu2      1.0000 0.52450  0.47550  0.47266  Biso   1.000  Cu
  Cu3      1.0000 0.95100  0.47550  0.47266  Biso   1.000  Cu
  Cu4      1.0000 0.47550  0.95100  0.97266  Biso   1.000  Cu
  Cu5      1.0000 0.47550  0.52450  0.97266  Biso   1.000  Cu
  Cu6      1.0000 0.04900  0.52450  0.97266  Biso   1.000  Cu
  Cu7      1.0000 0.47550  0.95100  0.52734  Biso   1.000  Cu
  Cu8      1.0000 0.04900  0.52450  0.52734  Biso   1.000  Cu
  Cu9      1.0000 0.47550  0.52450  0.52734  Biso   1.000  Cu
  Cu10     1.0000 0.52450  0.04900  0.02734  Biso   1.000  Cu
  Cu11     1.0000 0.95100  0.47550  0.02734  Biso   1.000  Cu
  Cu12     1.0000 0.52450  0.47550  0.02734  Biso   1.000  Cu
  Cu13     1.0000 0.06242  0.93759  0.75000  Biso   1.000  Cu
  Cu14     1.0000 0.87517  0.93759  0.75000  Biso   1.000  Cu
  Cu15     1.0000 0.06242  0.12484  0.75000  Biso   1.000  Cu
  Cu16     1.0000 0.93758  0.06241  0.25000  Biso   1.000  Cu
  Cu17     1.0000 0.12483  0.06241  0.25000  Biso   1.000  Cu
  Cu18     1.0000 0.93758  0.87516  0.25000  Biso   1.000  Cu
  H1       1.0000 0.36700  0.07410  0.58380  Biso   1.000  H
  H2       1.0000 0.21910  0.21640  0.66950  Biso   1.000  H
  H3       1.0000 0.70710  0.63300  0.58380  Biso   1.000  H
  H4       1.0000 0.99730  0.78090  0.66950  Biso   1.000  H
  H5       1.0000 0.92590  0.29290  0.58380  Biso   1.000  H
  H6       1.0000 0.78360  0.00270  0.66950  Biso   1.000  H
  H7       1.0000 0.63300  0.92590  0.08380  Biso   1.000  H
  H8       1.0000 0.78090  0.78360  0.16950  Biso   1.000  H
  H9       1.0000 0.29290  0.36700  0.08380  Biso   1.000  H
  H10      1.0000 0.00270  0.21910  0.16950  Biso   1.000  H
  H11      1.0000 0.07410  0.70710  0.08380  Biso   1.000  H
  H12      1.0000 0.21640  0.99730  0.16950  Biso   1.000  H
  H13      1.0000 0.29290  0.92590  0.41620  Biso   1.000  H
  H14      1.0000 0.00270  0.78360  0.33050  Biso   1.000  H
  H15      1.0000 0.07410  0.36700  0.41620  Biso   1.000  H
  H16      1.0000 0.21640  0.21910  0.33050  Biso   1.000  H
  H17      1.0000 0.63300  0.70710  0.41620  Biso   1.000  H
  H18      1.0000 0.78090  0.99730  0.33050  Biso   1.000  H
  H19      1.0000 0.70710  0.07410  0.91620  Biso   1.000  H
  H20      1.0000 0.99730  0.21640  0.83050  Biso   1.000  H
  H21      1.0000 0.92590  0.63300  0.91620  Biso   1.000  H
  H22      1.0000 0.78360  0.78090  0.83050  Biso   1.000  H
  H23      1.0000 0.36700  0.29290  0.91620  Biso   1.000  H
  H24      1.0000 0.21910  0.00270  0.83050  Biso   1.000  H
  H25      1.0000 0.63300  0.92590  0.41620  Biso   1.000  H
  H26      1.0000 0.78090  0.78360  0.33050  Biso   1.000  H
  H27      1.0000 0.29290  0.36700  0.41620  Biso   1.000  H
  H28      1.0000 0.00270  0.21910  0.33050  Biso   1.000  H
  H29      1.0000 0.07410  0.70710  0.41620  Biso   1.000  H
  H30      1.0000 0.21640  0.99730  0.33050  Biso   1.000  H
  H31      1.0000 0.36700  0.07410  0.91620  Biso   1.000  H
  H32      1.0000 0.21910  0.21640  0.83050  Biso   1.000  H
  H33      1.0000 0.70710  0.63300  0.91620  Biso   1.000  H
  H34      1.0000 0.99730  0.78090  0.83050  Biso   1.000  H
  H35      1.0000 0.92590  0.29290  0.91620  Biso   1.000  H
  H36      1.0000 0.78360  0.00270  0.83050  Biso   1.000  H
  H37      1.0000 0.70710  0.07410  0.58380  Biso   1.000  H
  H38      1.0000 0.99730  0.21640  0.66950  Biso   1.000  H
  H39      1.0000 0.92590  0.63300  0.58380  Biso   1.000  H
  H40      1.0000 0.78360  0.78090  0.66950  Biso   1.000  H
  H41      1.0000 0.36700  0.29290  0.58380  Biso   1.000  H
  H42      1.0000 0.21910  0.00270  0.66950  Biso   1.000  H
  H43      1.0000 0.29290  0.92590  0.08380  Biso   1.000  H
  H44      1.0000 0.00270  0.78360  0.16950  Biso   1.000  H
  H45      1.0000 0.07410  0.36700  0.08380  Biso   1.000  H
  H46      1.0000 0.21640  0.21910  0.16950  Biso   1.000  H
  H47      1.0000 0.63300  0.70710  0.08380  Biso   1.000  H
  H48      1.0000 0.78090  0.99730  0.16950  Biso   1.000  H
  H49      1.0000 0.47170  0.23585  0.50620  Biso   1.000  H
  H50      1.0000 0.76415  0.52830  0.50620  Biso   1.000  H
  H51      1.0000 0.76415  0.23585  0.50620  Biso   1.000  H
  H52      1.0000 0.52830  0.76415  0.00620  Biso   1.000  H
  H53      1.0000 0.23585  0.47170  0.00620  Biso   1.000  H
  H54      1.0000 0.23585  0.76415  0.00620  Biso   1.000  H
  H55      1.0000 0.23585  0.76415  0.49380  Biso   1.000  H
  H56      1.0000 0.23585  0.47170  0.49380  Biso   1.000  H
  H57      1.0000 0.52830  0.76415  0.49380  Biso   1.000  H
  H58      1.0000 0.76415  0.23585  0.99380  Biso   1.000  H
  H59      1.0000 0.76415  0.52830  0.99380  Biso   1.000  H
  H60      1.0000 0.47170  0.23585  0.99380  Biso   1.000  H
  C1       1.0000 0.45000  0.09110  0.52687  Biso   1.000  C
  C2       1.0000 0.42360  0.14600  0.54280  Biso   1.000  C
  C3       1.0000 0.38070  0.12550  0.57317  Biso   1.000  C
  C4       1.0000 0.23640  0.18030  0.65989  Biso   1.000  C
  C5       1.0000 0.64110  0.55000  0.52687  Biso   1.000  C
  C6       1.0000 0.72240  0.57640  0.54280  Biso   1.000  C
  C7       1.0000 0.74480  0.61930  0.57317  Biso   1.000  C
  C8       1.0000 0.94390  0.76360  0.65989  Biso   1.000  C
  C9       1.0000 0.90890  0.35890  0.52687  Biso   1.000  C
  C10      1.0000 0.85400  0.27760  0.54280  Biso   1.000  C
  C11      1.0000 0.87450  0.25520  0.57317  Biso   1.000  C
  C12      1.0000 0.81970  0.05610  0.65989  Biso   1.000  C
  C13      1.0000 0.55000  0.90890  0.02687  Biso   1.000  C
  C14      1.0000 0.57640  0.85400  0.04280  Biso   1.000  C
  C15      1.0000 0.61930  0.87450  0.07317  Biso   1.000  C
  C16      1.0000 0.76360  0.81970  0.15989  Biso   1.000  C
  C17      1.0000 0.35890  0.45000  0.02687  Biso   1.000  C
  C18      1.0000 0.27760  0.42360  0.04280  Biso   1.000  C
  C19      1.0000 0.25520  0.38070  0.07317  Biso   1.000  C
  C20      1.0000 0.05610  0.23640  0.15989  Biso   1.000  C
  C21      1.0000 0.09110  0.64110  0.02687  Biso   1.000  C
  C22      1.0000 0.14600  0.72240  0.04280  Biso   1.000  C
  C23      1.0000 0.12550  0.74480  0.07317  Biso   1.000  C
  C24      1.0000 0.18030  0.94390  0.15989  Biso   1.000  C
  C25      1.0000 0.35890  0.90890  0.47313  Biso   1.000  C
  C26      1.0000 0.27760  0.85400  0.45720  Biso   1.000  C
  C27      1.0000 0.25520  0.87450  0.42683  Biso   1.000  C
  C28      1.0000 0.05610  0.81970  0.34011  Biso   1.000  C
  C29      1.0000 0.09110  0.45000  0.47313  Biso   1.000  C
  C30      1.0000 0.14600  0.42360  0.45720  Biso   1.000  C
  C31      1.0000 0.12550  0.38070  0.42683  Biso   1.000  C
  C32      1.0000 0.18030  0.23640  0.34011  Biso   1.000  C
  C33      1.0000 0.55000  0.64110  0.47313  Biso   1.000  C
  C34      1.0000 0.57640  0.72240  0.45720  Biso   1.000  C
  C35      1.0000 0.61930  0.74480  0.42683  Biso   1.000  C
  C36      1.0000 0.76360  0.94390  0.34011  Biso   1.000  C
  C37      1.0000 0.64110  0.09110  0.97313  Biso   1.000  C
  C38      1.0000 0.72240  0.14600  0.95720  Biso   1.000  C
  C39      1.0000 0.74480  0.12550  0.92683  Biso   1.000  C
  C40      1.0000 0.94390  0.18030  0.84011  Biso   1.000  C
  C41      1.0000 0.90890  0.55000  0.97313  Biso   1.000  C
  C42      1.0000 0.85400  0.57640  0.95720  Biso   1.000  C
  C43      1.0000 0.87450  0.61930  0.92683  Biso   1.000  C
  C44      1.0000 0.81970  0.76360  0.84011  Biso   1.000  C
  C45      1.0000 0.45000  0.35890  0.97313  Biso   1.000  C
  C46      1.0000 0.42360  0.27760  0.95720  Biso   1.000  C
  C47      1.0000 0.38070  0.25520  0.92683  Biso   1.000  C
  C48      1.0000 0.23640  0.05610  0.84011  Biso   1.000  C
  C49      1.0000 0.55000  0.90890  0.47313  Biso   1.000  C
  C50      1.0000 0.57640  0.85400  0.45720  Biso   1.000  C
  C51      1.0000 0.61930  0.87450  0.42683  Biso   1.000  C
  C52      1.0000 0.76360  0.81970  0.34011  Biso   1.000  C
  C53      1.0000 0.35890  0.45000  0.47313  Biso   1.000  C
  C54      1.0000 0.27760  0.42360  0.45720  Biso   1.000  C
  C55      1.0000 0.25520  0.38070  0.42683  Biso   1.000  C
  C56      1.0000 0.05610  0.23640  0.34011  Biso   1.000  C
  C57      1.0000 0.09110  0.64110  0.47313  Biso   1.000  C
  C58      1.0000 0.14600  0.72240  0.45720  Biso   1.000  C
  C59      1.0000 0.12550  0.74480  0.42683  Biso   1.000  C
  C60      1.0000 0.18030  0.94390  0.34011  Biso   1.000  C
  C61      1.0000 0.45000  0.09110  0.97313  Biso   1.000  C
  C62      1.0000 0.42360  0.14600  0.95720  Biso   1.000  C
  C63      1.0000 0.38070  0.12550  0.92683  Biso   1.000  C
  C64      1.0000 0.23640  0.18030  0.84011  Biso   1.000  C
  C65      1.0000 0.64110  0.55000  0.97313  Biso   1.000  C
  C66      1.0000 0.72240  0.57640  0.95720  Biso   1.000  C
  C67      1.0000 0.74480  0.61930  0.92683  Biso   1.000  C
  C68      1.0000 0.94390  0.76360  0.84011  Biso   1.000  C
  C69      1.0000 0.90890  0.35890  0.97313  Biso   1.000  C
  C70      1.0000 0.85400  0.27760  0.95720  Biso   1.000  C
  C71      1.0000 0.87450  0.25520  0.92683  Biso   1.000  C
  C72      1.0000 0.81970  0.05610  0.84011  Biso   1.000  C
  C73      1.0000 0.64110  0.09110  0.52687  Biso   1.000  C
  C74      1.0000 0.72240  0.14600  0.54280  Biso   1.000  C
  C75      1.0000 0.74480  0.12550  0.57317  Biso   1.000  C
  C76      1.0000 0.94390  0.18030  0.65989  Biso   1.000  C
  C77      1.0000 0.90890  0.55000  0.52687  Biso   1.000  C
  C78      1.0000 0.85400  0.57640  0.54280  Biso   1.000  C
  C79      1.0000 0.87450  0.61930  0.57317  Biso   1.000  C
  C80      1.0000 0.81970  0.76360  0.65989  Biso   1.000  C
  C81      1.0000 0.45000  0.35890  0.52687  Biso   1.000  C
  C82      1.0000 0.42360  0.27760  0.54280  Biso   1.000  C
  C83      1.0000 0.38070  0.25520  0.57317  Biso   1.000  C
  C84      1.0000 0.23640  0.05610  0.65989  Biso   1.000  C
  C85      1.0000 0.35890  0.90890  0.02687  Biso   1.000  C
  C86      1.0000 0.27760  0.85400  0.04280  Biso   1.000  C
  C87      1.0000 0.25520  0.87450  0.07317  Biso   1.000  C
  C88      1.0000 0.05610  0.81970  0.15989  Biso   1.000  C
  C89      1.0000 0.09110  0.45000  0.02687  Biso   1.000  C
  C90      1.0000 0.14600  0.42360  0.04280  Biso   1.000  C
  C91      1.0000 0.12550  0.38070  0.07317  Biso   1.000  C
  C92      1.0000 0.18030  0.23640  0.15989  Biso   1.000  C
  C93      1.0000 0.55000  0.64110  0.02687  Biso   1.000  C
  C94      1.0000 0.57640  0.72240  0.04280  Biso   1.000  C
  C95      1.0000 0.61930  0.74480  0.07317  Biso   1.000  C
  C96      1.0000 0.76360  0.94390  0.15989  Biso   1.000  C
  C97      1.0000 0.44380  0.22190  0.52743  Biso   1.000  C
  C98      1.0000 0.35720  0.17860  0.58846  Biso   1.000  C
  C99      1.0000 0.30560  0.15280  0.61980  Biso   1.000  C
  C100     1.0000 0.20970  0.10485  0.67482  Biso   1.000  C
  C101     1.0000 0.15250  0.07625  0.70352  Biso   1.000  C
  C102     1.0000 0.77810  0.55620  0.52743  Biso   1.000  C
  C103     1.0000 0.82140  0.64280  0.58846  Biso   1.000  C
  C104     1.0000 0.84720  0.69440  0.61980  Biso   1.000  C
  C105     1.0000 0.89515  0.79030  0.67482  Biso   1.000  C
  C106     1.0000 0.92375  0.84750  0.70352  Biso   1.000  C
  C107     1.0000 0.77810  0.22190  0.52743  Biso   1.000  C
  C108     1.0000 0.82140  0.17860  0.58846  Biso   1.000  C
  C109     1.0000 0.84720  0.15280  0.61980  Biso   1.000  C
  C110     1.0000 0.89515  0.10485  0.67482  Biso   1.000  C
  C111     1.0000 0.92375  0.07625  0.70352  Biso   1.000  C
  C112     1.0000 0.55620  0.77810  0.02743  Biso   1.000  C
  C113     1.0000 0.64280  0.82140  0.08846  Biso   1.000  C
  C114     1.0000 0.69440  0.84720  0.11980  Biso   1.000  C
  C115     1.0000 0.79030  0.89515  0.17482  Biso   1.000  C
  C116     1.0000 0.84750  0.92375  0.20352  Biso   1.000  C
  C117     1.0000 0.22190  0.44380  0.02743  Biso   1.000  C
  C118     1.0000 0.17860  0.35720  0.08846  Biso   1.000  C
  C119     1.0000 0.15280  0.30560  0.11980  Biso   1.000  C
  C120     1.0000 0.10485  0.20970  0.17482  Biso   1.000  C
  C121     1.0000 0.07625  0.15250  0.20352  Biso   1.000  C
  C122     1.0000 0.22190  0.77810  0.02743  Biso   1.000  C
  C123     1.0000 0.17860  0.82140  0.08846  Biso   1.000  C
  C124     1.0000 0.15280  0.84720  0.11980  Biso   1.000  C
  C125     1.0000 0.10485  0.89515  0.17482  Biso   1.000  C
  C126     1.0000 0.07625  0.92375  0.20352  Biso   1.000  C
  C127     1.0000 0.22190  0.77810  0.47257  Biso   1.000  C
  C128     1.0000 0.17860  0.82140  0.41154  Biso   1.000  C
  C129     1.0000 0.15280  0.84720  0.38020  Biso   1.000  C
  C130     1.0000 0.10485  0.89515  0.32518  Biso   1.000  C
  C131     1.0000 0.07625  0.92375  0.29648  Biso   1.000  C
  C132     1.0000 0.22190  0.44380  0.47257  Biso   1.000  C
  C133     1.0000 0.17860  0.35720  0.41154  Biso   1.000  C
  C134     1.0000 0.15280  0.30560  0.38020  Biso   1.000  C
  C135     1.0000 0.10485  0.20970  0.32518  Biso   1.000  C
  C136     1.0000 0.07625  0.15250  0.29648  Biso   1.000  C
  C137     1.0000 0.55620  0.77810  0.47257  Biso   1.000  C
  C138     1.0000 0.64280  0.82140  0.41154  Biso   1.000  C
  C139     1.0000 0.69440  0.84720  0.38020  Biso   1.000  C
  C140     1.0000 0.79030  0.89515  0.32518  Biso   1.000  C
  C141     1.0000 0.84750  0.92375  0.29648  Biso   1.000  C
  C142     1.0000 0.77810  0.22190  0.97257  Biso   1.000  C
  C143     1.0000 0.82140  0.17860  0.91154  Biso   1.000  C
  C144     1.0000 0.84720  0.15280  0.88020  Biso   1.000  C
  C145     1.0000 0.89515  0.10485  0.82518  Biso   1.000  C
  C146     1.0000 0.92375  0.07625  0.79648  Biso   1.000  C
  C147     1.0000 0.77810  0.55620  0.97257  Biso   1.000  C
  C148     1.0000 0.82140  0.64280  0.91154  Biso   1.000  C
  C149     1.0000 0.84720  0.69440  0.88020  Biso   1.000  C
  C150     1.0000 0.89515  0.79030  0.82518  Biso   1.000  C
  C151     1.0000 0.92375  0.84750  0.79648  Biso   1.000  C
  C152     1.0000 0.44380  0.22190  0.97257  Biso   1.000  C
  C153     1.0000 0.35720  0.17860  0.91154  Biso   1.000  C
  C154     1.0000 0.30560  0.15280  0.88020  Biso   1.000  C
  C155     1.0000 0.20970  0.10485  0.82518  Biso   1.000  C
  C156     1.0000 0.15250  0.07625  0.79648  Biso   1.000  C
  N1       1.0000 0.28540  0.20680  0.63247  Biso   1.000  N
  N2       1.0000 0.92140  0.71460  0.63247  Biso   1.000  N
  N3       1.0000 0.79320  0.07860  0.63247  Biso   1.000  N
  N4       1.0000 0.71460  0.79320  0.13247  Biso   1.000  N
  N5       1.0000 0.07860  0.28540  0.13247  Biso   1.000  N
  N6       1.0000 0.20680  0.92140  0.13247  Biso   1.000  N
  N7       1.0000 0.07860  0.79320  0.36753  Biso   1.000  N
  N8       1.0000 0.20680  0.28540  0.36753  Biso   1.000  N
  N9       1.0000 0.71460  0.92140  0.36753  Biso   1.000  N
  N10      1.0000 0.92140  0.20680  0.86753  Biso   1.000  N
  N11      1.0000 0.79320  0.71460  0.86753  Biso   1.000  N
  N12      1.0000 0.28540  0.07860  0.86753  Biso   1.000  N
  N13      1.0000 0.71460  0.79320  0.36753  Biso   1.000  N
  N14      1.0000 0.07860  0.28540  0.36753  Biso   1.000  N
  N15      1.0000 0.20680  0.92140  0.36753  Biso   1.000  N
  N16      1.0000 0.28540  0.20680  0.86753  Biso   1.000  N
  N17      1.0000 0.92140  0.71460  0.86753  Biso   1.000  N
  N18      1.0000 0.79320  0.07860  0.86753  Biso   1.000  N
  N19      1.0000 0.92140  0.20680  0.63247  Biso   1.000  N
  N20      1.0000 0.79320  0.71460  0.63247  Biso   1.000  N
  N21      1.0000 0.28540  0.07860  0.63247  Biso   1.000  N
  N22      1.0000 0.07860  0.79320  0.13247  Biso   1.000  N
  N23      1.0000 0.20680  0.28540  0.13247  Biso   1.000  N
  N24      1.0000 0.71460  0.92140  0.13247  Biso   1.000  N
  O1       1.0000 0.48081  0.10943  0.49819  Biso   1.000  O
  O2       1.0000 0.43870  0.02740  0.54369  Biso   1.000  O
  O3       1.0000 0.13290  0.00860  0.71585  Biso   1.000  O
  O4       1.0000 0.62862  0.51919  0.49819  Biso   1.000  O
  O5       1.0000 0.58870  0.56130  0.54369  Biso   1.000  O
  O6       1.0000 0.87570  0.86710  0.71585  Biso   1.000  O
  O7       1.0000 0.89057  0.37138  0.49819  Biso   1.000  O
  O8       1.0000 0.97260  0.41130  0.54369  Biso   1.000  O
  O9       1.0000 0.99140  0.12430  0.71585  Biso   1.000  O
  O10      1.0000 0.51919  0.89057  0.99819  Biso   1.000  O
  O11      1.0000 0.56130  0.97260  0.04369  Biso   1.000  O
  O12      1.0000 0.86710  0.99140  0.21585  Biso   1.000  O
  O13      1.0000 0.37138  0.48081  0.99819  Biso   1.000  O
  O14      1.0000 0.41130  0.43870  0.04369  Biso   1.000  O
  O15      1.0000 0.12430  0.13290  0.21585  Biso   1.000  O
  O16      1.0000 0.10943  0.62862  0.99819  Biso   1.000  O
  O17      1.0000 0.02740  0.58870  0.04369  Biso   1.000  O
  O18      1.0000 0.00860  0.87570  0.21585  Biso   1.000  O
  O19      1.0000 0.37138  0.89057  0.50181  Biso   1.000  O
  O20      1.0000 0.41130  0.97260  0.45631  Biso   1.000  O
  O21      1.0000 0.12430  0.99140  0.28415  Biso   1.000  O
  O22      1.0000 0.10943  0.48081  0.50181  Biso   1.000  O
  O23      1.0000 0.02740  0.43870  0.45631  Biso   1.000  O
  O24      1.0000 0.00860  0.13290  0.28415  Biso   1.000  O
  O25      1.0000 0.51919  0.62862  0.50181  Biso   1.000  O
  O26      1.0000 0.56130  0.58870  0.45631  Biso   1.000  O
  O27      1.0000 0.86710  0.87570  0.28415  Biso   1.000  O
  O28      1.0000 0.62862  0.10943  0.00181  Biso   1.000  O
  O29      1.0000 0.58870  0.02740  0.95631  Biso   1.000  O
  O30      1.0000 0.87570  0.00860  0.78415  Biso   1.000  O
  O31      1.0000 0.89057  0.51919  0.00181  Biso   1.000  O
  O32      1.0000 0.97260  0.56130  0.95631  Biso   1.000  O
  O33      1.0000 0.99140  0.86710  0.78415  Biso   1.000  O
  O34      1.0000 0.48081  0.37138  0.00181  Biso   1.000  O
  O35      1.0000 0.43870  0.41130  0.95631  Biso   1.000  O
  O36      1.0000 0.13290  0.12430  0.78415  Biso   1.000  O
  O37      1.0000 0.51919  0.89057  0.50181  Biso   1.000  O
  O38      1.0000 0.56130  0.97260  0.45631  Biso   1.000  O
  O39      1.0000 0.86710  0.99140  0.28415  Biso   1.000  O
  O40      1.0000 0.37138  0.48081  0.50181  Biso   1.000  O
  O41      1.0000 0.41130  0.43870  0.45631  Biso   1.000  O
  O42      1.0000 0.12430  0.13290  0.28415  Biso   1.000  O
  O43      1.0000 0.10943  0.62862  0.50181  Biso   1.000  O
  O44      1.0000 0.02740  0.58870  0.45631  Biso   1.000  O
  O45      1.0000 0.00860  0.87570  0.28415  Biso   1.000  O
  O46      1.0000 0.48081  0.10943  0.00181  Biso   1.000  O
  O47      1.0000 0.43870  0.02740  0.95631  Biso   1.000  O
  O48      1.0000 0.13290  0.00860  0.78415  Biso   1.000  O
  O49      1.0000 0.62862  0.51919  0.00181  Biso   1.000  O
  O50      1.0000 0.58870  0.56130  0.95631  Biso   1.000  O
  O51      1.0000 0.87570  0.86710  0.78415  Biso   1.000  O
  O52      1.0000 0.89057  0.37138  0.00181  Biso   1.000  O
  O53      1.0000 0.97260  0.41130  0.95631  Biso   1.000  O
  O54      1.0000 0.99140  0.12430  0.78415  Biso   1.000  O
  O55      1.0000 0.62862  0.10943  0.49819  Biso   1.000  O
  O56      1.0000 0.58870  0.02740  0.54369  Biso   1.000  O
  O57      1.0000 0.87570  0.00860  0.71585  Biso   1.000  O
  O58      1.0000 0.89057  0.51919  0.49819  Biso   1.000  O
  O59      1.0000 0.97260  0.56130  0.54369  Biso   1.000  O
  O60      1.0000 0.99140  0.86710  0.71585  Biso   1.000  O
  O61      1.0000 0.48081  0.37138  0.49819  Biso   1.000  O
  O62      1.0000 0.43870  0.41130  0.54369  Biso   1.000  O
  O63      1.0000 0.13290  0.12430  0.71585  Biso   1.000  O
  O64      1.0000 0.37138  0.89057  0.99819  Biso   1.000  O
  O65      1.0000 0.41130  0.97260  0.04369  Biso   1.000  O
  O66      1.0000 0.12430  0.99140  0.21585  Biso   1.000  O
  O67      1.0000 0.10943  0.48081  0.99819  Biso   1.000  O
  O68      1.0000 0.02740  0.43870  0.04369  Biso   1.000  O
  O69      1.0000 0.00860  0.13290  0.21585  Biso   1.000  O
  O70      1.0000 0.51919  0.62862  0.99819  Biso   1.000  O
  O71      1.0000 0.56130  0.58870  0.04369  Biso   1.000  O
  O72      1.0000 0.86710  0.87570  0.21585  Biso   1.000  O
  O73      1.0000 0.56219  0.12438  0.42783  Biso   1.000  O
  O74      1.0000 0.56219  0.43781  0.42783  Biso   1.000  O
  O75      1.0000 0.87562  0.43781  0.42783  Biso   1.000  O
  O76      1.0000 0.43781  0.87562  0.92783  Biso   1.000  O
  O77      1.0000 0.43781  0.56219  0.92783  Biso   1.000  O
  O78      1.0000 0.12438  0.56219  0.92783  Biso   1.000  O
  O79      1.0000 0.43781  0.87562  0.57217  Biso   1.000  O
  O80      1.0000 0.12438  0.56219  0.57217  Biso   1.000  O
  O81      1.0000 0.43781  0.56219  0.57217  Biso   1.000  O
  O82      1.0000 0.56219  0.12438  0.07217  Biso   1.000  O
  O83      1.0000 0.87562  0.43781  0.07217  Biso   1.000  O
  O84      1.0000 0.56219  0.43781  0.07217  Biso   1.000  O
  O85      1.0000 0.13310  0.86690  0.75000  Biso   1.000  O
  O86      1.0000 0.73380  0.86690  0.75000  Biso   1.000  O
  O87      1.0000 0.13310  0.26620  0.75000  Biso   1.000  O
  O88      1.0000 0.86690  0.13310  0.25000  Biso   1.000  O
  O89      1.0000 0.26620  0.13310  0.25000  Biso   1.000  O
  O90      1.0000 0.86690  0.73380  0.25000  Biso   1.000  O
