data_image0
_cell_length_a       10.523
_cell_length_b       11.5968
_cell_length_c       50.242
_cell_angle_alpha    90
_cell_angle_beta     95.697
_cell_angle_gamma    90

_symmetry_space_group_name_H-M    "P 1"
_symmetry_int_tables_number       1

loop_
  _symmetry_equiv_pos_as_xyz
  'x, y, z'

loop_
  _atom_site_label
  _atom_site_occupancy
  _atom_site_fract_x
  _atom_site_fract_y
  _atom_site_fract_z
  _atom_site_thermal_displace_type
  _atom_site_B_iso_or_equiv
  _atom_site_type_symbol
  Ag1      1.0000 0.12501  0.00536  0.10456  Biso   1.000  Ag
  Ag2      1.0000 0.85836  0.07147  0.08152  Biso   1.000  Ag
  Ag3      1.0000 0.22595  0.60366  0.63299  Biso   1.000  Ag
  Ag4      1.0000 0.56979  0.17727  0.87993  Biso   1.000  Ag
  C1       1.0000 0.40590  0.09760  0.09360  Biso   1.000  C
  C2       1.0000 0.48730  0.17020  0.07920  Biso   1.000  C
  C3       1.0000 0.60060  0.21720  0.09110  Biso   1.000  C
  H1       1.0000 0.62760  0.20130  0.10900  Biso   1.000  H
  C4       1.0000 0.67150  0.28670  0.07650  Biso   1.000  C
  H2       1.0000 0.74850  0.31600  0.08440  Biso   1.000  H
  C5       1.0000 0.63190  0.31470  0.05030  Biso   1.000  C
  C6       1.0000 0.52030  0.26200  0.03770  Biso   1.000  C
  H3       1.0000 0.49570  0.27500  0.01970  Biso   1.000  H
  C7       1.0000 0.44910  0.19180  0.05230  Biso   1.000  C
  H4       1.0000 0.37480  0.15830  0.04420  Biso   1.000  H
  C8       1.0000 0.76870  0.48640  0.04720  Biso   1.000  C
  C9       1.0000 0.72240  0.54520  0.06850  Biso   1.000  C
  H5       1.0000 0.64630  0.52230  0.07490  Biso   1.000  H
  C10      1.0000 0.78960  0.63660  0.08010  Biso   1.000  C
  H6       1.0000 0.76020  0.67410  0.09460  Biso   1.000  H
  C11      1.0000 0.89820  0.67280  0.07040  Biso   1.000  C
  C12      1.0000 0.96760  0.77030  0.08180  Biso   1.000  C
  C13      1.0000 0.94530  0.61490  0.04950  Biso   1.000  C
  H7       1.0000 0.02150  0.63870  0.04340  Biso   1.000  H
  C14      1.0000 0.87970  0.52150  0.03760  Biso   1.000  C
  H8       1.0000 0.91080  0.48330  0.02330  Biso   1.000  H
  C15      1.0000 0.69990  0.37640  0.00750  Biso   1.000  C
  C16      1.0000 0.67360  0.46870  0.99030  Biso   1.000  C
  H9       1.0000 0.65580  0.54100  0.99710  Biso   1.000  H
  C17      1.0000 0.67410  0.45260  0.96340  Biso   1.000  C
  H10      1.0000 0.65560  0.51540  0.95220  Biso   1.000  H
  C18      1.0000 0.69980  0.35110  0.95220  Biso   1.000  C
  C19      1.0000 0.72730  0.25480  0.96940  Biso   1.000  C
  H11      1.0000 0.74630  0.18310  0.96250  Biso   1.000  H
  C20      1.0000 0.72500  0.27020  0.99680  Biso   1.000  C
  H12      1.0000 0.74070  0.20740  0.00810  Biso   1.000  H
  C21      1.0000 0.70640  0.33590  0.92430  Biso   1.000  C
  C22      1.0000 0.96710  0.35390  0.68040  Biso   1.000  C
  C23      1.0000 0.00950  0.31470  0.70610  Biso   1.000  C
  H13      1.0000 0.08240  0.34570  0.71540  Biso   1.000  H
  C24      1.0000 0.94180  0.23030  0.71720  Biso   1.000  C
  H14      1.0000 0.97170  0.20180  0.73390  Biso   1.000  H
  C25      1.0000 0.83120  0.18590  0.70440  Biso   1.000  C
  C26      1.0000 0.78650  0.22860  0.67900  Biso   1.000  C
  H15      1.0000 0.71040  0.20120  0.67030  Biso   1.000  H
  C27      1.0000 0.85650  0.31160  0.66710  Biso   1.000  C
  H16      1.0000 0.82870  0.33880  0.65010  Biso   1.000  H
  C28      1.0000 0.68920  0.01380  0.70180  Biso   1.000  C
  C29      1.0000 0.58020  0.97100  0.71150  Biso   1.000  C
  H17      1.0000 0.55500  0.99870  0.72750  Biso   1.000  H
  C30      1.0000 0.50940  0.88810  0.69750  Biso   1.000  C
  H18      1.0000 0.43450  0.86120  0.70380  Biso   1.000  H
  C31      1.0000 0.54870  0.84500  0.67460  Biso   1.000  C
  C32      1.0000 0.65540  0.88650  0.66480  Biso   1.000  C
  H19      1.0000 0.67880  0.85900  0.64860  Biso   1.000  H
  C33      1.0000 0.72890  0.96880  0.67860  Biso   1.000  C
  H20      1.0000 0.80450  0.99400  0.67240  Biso   1.000  H
  C34      1.0000 0.75520  0.10640  0.74450  Biso   1.000  C
  C35      1.0000 0.80100  0.02110  0.76150  Biso   1.000  C
  H21      1.0000 0.84190  0.95840  0.75450  Biso   1.000  H
  C36      1.0000 0.68000  0.20590  0.78230  Biso   1.000  C
  H22      1.0000 0.63630  0.26690  0.78920  Biso   1.000  H
  C37      1.0000 0.69700  0.19900  0.75500  Biso   1.000  C
  H23      1.0000 0.66780  0.25900  0.74370  Biso   1.000  H
  C38      1.0000 0.46930  0.75710  0.65930  Biso   1.000  C
  C39      1.0000 0.71630  0.12320  0.82680  Biso   1.000  C
  C40      1.0000 0.73190  0.11720  0.79870  Biso   1.000  C
  C41      1.0000 0.78910  0.02400  0.78840  Biso   1.000  C
  H24      1.0000 0.81950  0.96360  0.79950  Biso   1.000  H
  C42      1.0000 0.04090  0.12850  0.04290  Biso   1.000  C
  C43      1.0000 0.08300  0.16500  0.01670  Biso   1.000  C
  C44      1.0000 0.94650  0.12610  0.14180  Biso   1.000  C
  C45      1.0000 0.91310  0.17570  0.16730  Biso   1.000  C
  C46      1.0000 0.60530  0.88510  0.07250  Biso   1.000  C
  C47      1.0000 0.61270  0.89760  0.04210  Biso   1.000  C
  C48      1.0000 0.38700  0.50500  0.85160  Biso   1.000  C
  F1       1.0000 0.18310  0.13300  0.01110  Biso   1.000  F
  F2       1.0000 0.09900  0.27700  0.01720  Biso   1.000  F
  F3       1.0000 0.00390  0.14500  0.99570  Biso   1.000  F
  F4       1.0000 0.80460  0.20660  0.16920  Biso   1.000  F
  F5       1.0000 0.91900  0.10500  0.18520  Biso   1.000  F
  F6       1.0000 0.98480  0.24700  0.17850  Biso   1.000  F
  F7       1.0000 0.62390  0.79900  0.03100  Biso   1.000  F
  F8       1.0000 0.50630  0.93390  0.02910  Biso   1.000  F
  F9       1.0000 0.69280  0.96700  0.03530  Biso   1.000  F
  F10      1.0000 0.29500  0.53470  0.86220  Biso   1.000  F
  F11      1.0000 0.48100  0.52820  0.87230  Biso   1.000  F
  F12      1.0000 0.42400  0.57330  0.83450  Biso   1.000  F
  N1       1.0000 0.33940  0.04640  0.10510  Biso   1.000  N
  N2       1.0000 0.70210  0.38900  0.03530  Biso   1.000  N
  N3       1.0000 0.02150  0.84890  0.09050  Biso   1.000  N
  N4       1.0000 0.71210  0.32640  0.90210  Biso   1.000  N
  N5       1.0000 0.76330  0.10090  0.71670  Biso   1.000  N
  N6       1.0000 0.40880  0.68900  0.64960  Biso   1.000  N
  N7       1.0000 0.70200  0.12750  0.84880  Biso   1.000  N
  O1       1.0000 0.12630  0.09540  0.05930  Biso   1.000  O
  O2       1.0000 0.92770  0.13660  0.04450  Biso   1.000  O
  O3       1.0000 0.06060  0.10910  0.13980  Biso   1.000  O
  O4       1.0000 0.85380  0.10280  0.12562  Biso   1.000  O
  O5       1.0000 0.69740  0.92580  0.08686  Biso   1.000  O
  O6       1.0000 0.50890  0.84380  0.07860  Biso   1.000  O
  O7       1.0000 0.38130  0.30330  0.86600  Biso   1.000  O
  O8       1.0000 0.51440  0.34720  0.83410  Biso   1.000  O
  O9       1.0000 0.28100  0.38100  0.82200  Biso   1.000  O
  S1       1.0000 0.39680  0.36540  0.84182  Biso   1.000  S
  N8       1.0000 0.09340  0.50190  0.65630  Biso   1.000  N
  C49      1.0000 0.04030  0.43990  0.66710  Biso   1.000  C
  Ag5      1.0000 0.37499  0.50536  0.39544  Biso   1.000  Ag
  Ag6      1.0000 0.64164  0.57147  0.41848  Biso   1.000  Ag
  Ag7      1.0000 0.27405  0.10366  0.86701  Biso   1.000  Ag
  Ag8      1.0000 0.93021  0.67727  0.62007  Biso   1.000  Ag
  C50      1.0000 0.09410  0.59760  0.40640  Biso   1.000  C
  C51      1.0000 0.01270  0.67020  0.42080  Biso   1.000  C
  C52      1.0000 0.89940  0.71720  0.40890  Biso   1.000  C
  H25      1.0000 0.87240  0.70130  0.39100  Biso   1.000  H
  C53      1.0000 0.82850  0.78670  0.42350  Biso   1.000  C
  H26      1.0000 0.75150  0.81600  0.41560  Biso   1.000  H
  C54      1.0000 0.86810  0.81470  0.44970  Biso   1.000  C
  C55      1.0000 0.97970  0.76200  0.46230  Biso   1.000  C
  H27      1.0000 0.00430  0.77500  0.48030  Biso   1.000  H
  C56      1.0000 0.05090  0.69180  0.44770  Biso   1.000  C
  H28      1.0000 0.12520  0.65830  0.45580  Biso   1.000  H
  C57      1.0000 0.73130  0.98640  0.45280  Biso   1.000  C
  C58      1.0000 0.77760  0.04520  0.43150  Biso   1.000  C
  H29      1.0000 0.85370  0.02230  0.42510  Biso   1.000  H
  C59      1.0000 0.71040  0.13660  0.41990  Biso   1.000  C
  H30      1.0000 0.73980  0.17410  0.40540  Biso   1.000  H
  C60      1.0000 0.60180  0.17280  0.42960  Biso   1.000  C
  C61      1.0000 0.53240  0.27030  0.41820  Biso   1.000  C
  C62      1.0000 0.55470  0.11490  0.45050  Biso   1.000  C
  H31      1.0000 0.47850  0.13870  0.45660  Biso   1.000  H
  C63      1.0000 0.62030  0.02150  0.46240  Biso   1.000  C
  H32      1.0000 0.58920  0.98330  0.47670  Biso   1.000  H
  C64      1.0000 0.80010  0.87640  0.49250  Biso   1.000  C
  C65      1.0000 0.82640  0.96870  0.50970  Biso   1.000  C
  H33      1.0000 0.84420  0.04100  0.50290  Biso   1.000  H
  C66      1.0000 0.82590  0.95260  0.53660  Biso   1.000  C
  H34      1.0000 0.84440  0.01540  0.54780  Biso   1.000  H
  C67      1.0000 0.80020  0.85110  0.54780  Biso   1.000  C
  C68      1.0000 0.77270  0.75480  0.53060  Biso   1.000  C
  H35      1.0000 0.75370  0.68310  0.53750  Biso   1.000  H
  C69      1.0000 0.77500  0.77020  0.50320  Biso   1.000  C
  H36      1.0000 0.75930  0.70740  0.49190  Biso   1.000  H
  C70      1.0000 0.79360  0.83590  0.57570  Biso   1.000  C
  C71      1.0000 0.53290  0.85390  0.81960  Biso   1.000  C
  C72      1.0000 0.49050  0.81470  0.79390  Biso   1.000  C
  H37      1.0000 0.41760  0.84570  0.78460  Biso   1.000  H
  C73      1.0000 0.55820  0.73030  0.78280  Biso   1.000  C
  H38      1.0000 0.52830  0.70180  0.76610  Biso   1.000  H
  C74      1.0000 0.66880  0.68590  0.79560  Biso   1.000  C
  C75      1.0000 0.71350  0.72860  0.82100  Biso   1.000  C
  H39      1.0000 0.78960  0.70120  0.82970  Biso   1.000  H
  C76      1.0000 0.64350  0.81160  0.83290  Biso   1.000  C
  H40      1.0000 0.67130  0.83880  0.84990  Biso   1.000  H
  C77      1.0000 0.81080  0.51380  0.79820  Biso   1.000  C
  C78      1.0000 0.91980  0.47100  0.78850  Biso   1.000  C
  H41      1.0000 0.94500  0.49870  0.77250  Biso   1.000  H
  C79      1.0000 0.99060  0.38810  0.80250  Biso   1.000  C
  H42      1.0000 0.06550  0.36120  0.79620  Biso   1.000  H
  C80      1.0000 0.95130  0.34500  0.82540  Biso   1.000  C
  C81      1.0000 0.84460  0.38650  0.83520  Biso   1.000  C
  H43      1.0000 0.82120  0.35900  0.85140  Biso   1.000  H
  C82      1.0000 0.77110  0.46880  0.82140  Biso   1.000  C
  H44      1.0000 0.69550  0.49400  0.82760  Biso   1.000  H
  C83      1.0000 0.74480  0.60640  0.75550  Biso   1.000  C
  C84      1.0000 0.69900  0.52110  0.73850  Biso   1.000  C
  H45      1.0000 0.65810  0.45840  0.74550  Biso   1.000  H
  C85      1.0000 0.82000  0.70590  0.71770  Biso   1.000  C
  H46      1.0000 0.86370  0.76690  0.71080  Biso   1.000  H
  C86      1.0000 0.80300  0.69900  0.74500  Biso   1.000  C
  H47      1.0000 0.83220  0.75900  0.75630  Biso   1.000  H
  C87      1.0000 0.03070  0.25710  0.84070  Biso   1.000  C
  C88      1.0000 0.78370  0.62320  0.67320  Biso   1.000  C
  C89      1.0000 0.76810  0.61720  0.70130  Biso   1.000  C
  C90      1.0000 0.71090  0.52400  0.71160  Biso   1.000  C
  H48      1.0000 0.68050  0.46360  0.70050  Biso   1.000  H
  C91      1.0000 0.45910  0.62850  0.45710  Biso   1.000  C
  C92      1.0000 0.41700  0.66500  0.48330  Biso   1.000  C
  C93      1.0000 0.55350  0.62610  0.35820  Biso   1.000  C
  C94      1.0000 0.58690  0.67570  0.33270  Biso   1.000  C
  C95      1.0000 0.89470  0.38510  0.42750  Biso   1.000  C
  C96      1.0000 0.88730  0.39760  0.45790  Biso   1.000  C
  C97      1.0000 0.11300  0.00500  0.64840  Biso   1.000  C
  F13      1.0000 0.31690  0.63300  0.48890  Biso   1.000  F
  F14      1.0000 0.40100  0.77700  0.48280  Biso   1.000  F
  F15      1.0000 0.49610  0.64500  0.50430  Biso   1.000  F
  F16      1.0000 0.69540  0.70660  0.33080  Biso   1.000  F
  F17      1.0000 0.58100  0.60500  0.31480  Biso   1.000  F
  F18      1.0000 0.51520  0.74700  0.32150  Biso   1.000  F
  F19      1.0000 0.87610  0.29900  0.46900  Biso   1.000  F
  F20      1.0000 0.99370  0.43390  0.47090  Biso   1.000  F
  F21      1.0000 0.80720  0.46700  0.46470  Biso   1.000  F
  F22      1.0000 0.20500  0.03470  0.63780  Biso   1.000  F
  F23      1.0000 0.01900  0.02820  0.62770  Biso   1.000  F
  F24      1.0000 0.07600  0.07330  0.66550  Biso   1.000  F
  N9       1.0000 0.16060  0.54640  0.39490  Biso   1.000  N
  N10      1.0000 0.79790  0.88900  0.46470  Biso   1.000  N
  N11      1.0000 0.47850  0.34890  0.40950  Biso   1.000  N
  N12      1.0000 0.78790  0.82640  0.59790  Biso   1.000  N
  N13      1.0000 0.73670  0.60090  0.78330  Biso   1.000  N
  N14      1.0000 0.09120  0.18900  0.85040  Biso   1.000  N
  N15      1.0000 0.79800  0.62750  0.65120  Biso   1.000  N
  O10      1.0000 0.37370  0.59540  0.44070  Biso   1.000  O
  O11      1.0000 0.57230  0.63660  0.45550  Biso   1.000  O
  O12      1.0000 0.43940  0.60910  0.36020  Biso   1.000  O
  O13      1.0000 0.64620  0.60280  0.37438  Biso   1.000  O
  O14      1.0000 0.80260  0.42580  0.41314  Biso   1.000  O
  O15      1.0000 0.99110  0.34380  0.42140  Biso   1.000  O
  O16      1.0000 0.11870  0.80330  0.63400  Biso   1.000  O
  O17      1.0000 0.98560  0.84720  0.66590  Biso   1.000  O
  O18      1.0000 0.21900  0.88100  0.67800  Biso   1.000  O
  S2       1.0000 0.10320  0.86540  0.65818  Biso   1.000  S
  N16      1.0000 0.40660  0.00190  0.84370  Biso   1.000  N
  C98      1.0000 0.45970  0.93990  0.83290  Biso   1.000  C
  Ag9      1.0000 0.87499  0.99464  0.89544  Biso   1.000  Ag
  Ag10     1.0000 0.14164  0.92853  0.91848  Biso   1.000  Ag
  Ag11     1.0000 0.77405  0.39634  0.36701  Biso   1.000  Ag
  Ag12     1.0000 0.43021  0.82273  0.12007  Biso   1.000  Ag
  C99      1.0000 0.59410  0.90240  0.90640  Biso   1.000  C
  C100     1.0000 0.51270  0.82980  0.92080  Biso   1.000  C
  C101     1.0000 0.39940  0.78280  0.90890  Biso   1.000  C
  H49      1.0000 0.37240  0.79870  0.89100  Biso   1.000  H
  C102     1.0000 0.32850  0.71330  0.92350  Biso   1.000  C
  H50      1.0000 0.25150  0.68400  0.91560  Biso   1.000  H
  C103     1.0000 0.36810  0.68530  0.94970  Biso   1.000  C
  C104     1.0000 0.47970  0.73800  0.96230  Biso   1.000  C
  H51      1.0000 0.50430  0.72500  0.98030  Biso   1.000  H
  C105     1.0000 0.55090  0.80820  0.94770  Biso   1.000  C
  H52      1.0000 0.62520  0.84170  0.95580  Biso   1.000  H
  C106     1.0000 0.23130  0.51360  0.95280  Biso   1.000  C
  C107     1.0000 0.27760  0.45480  0.93150  Biso   1.000  C
  H53      1.0000 0.35370  0.47770  0.92510  Biso   1.000  H
  C108     1.0000 0.21040  0.36340  0.91990  Biso   1.000  C
  H54      1.0000 0.23980  0.32590  0.90540  Biso   1.000  H
  C109     1.0000 0.10180  0.32720  0.92960  Biso   1.000  C
  C110     1.0000 0.03240  0.22970  0.91820  Biso   1.000  C
  C111     1.0000 0.05470  0.38510  0.95050  Biso   1.000  C
  H55      1.0000 0.97850  0.36130  0.95660  Biso   1.000  H
  C112     1.0000 0.12030  0.47850  0.96240  Biso   1.000  C
  H56      1.0000 0.08920  0.51670  0.97670  Biso   1.000  H
  C113     1.0000 0.30010  0.62360  0.99250  Biso   1.000  C
  C114     1.0000 0.32640  0.53130  0.00970  Biso   1.000  C
  H57      1.0000 0.34420  0.45900  0.00290  Biso   1.000  H
  C115     1.0000 0.32590  0.54740  0.03660  Biso   1.000  C
  H58      1.0000 0.34440  0.48460  0.04780  Biso   1.000  H
  C116     1.0000 0.30020  0.64890  0.04780  Biso   1.000  C
  C117     1.0000 0.27270  0.74520  0.03060  Biso   1.000  C
  H59      1.0000 0.25370  0.81690  0.03750  Biso   1.000  H
  C118     1.0000 0.27500  0.72980  0.00320  Biso   1.000  C
  H60      1.0000 0.25930  0.79260  0.99190  Biso   1.000  H
  C119     1.0000 0.29360  0.66410  0.07570  Biso   1.000  C
  C120     1.0000 0.03290  0.64610  0.31960  Biso   1.000  C
  C121     1.0000 0.99050  0.68530  0.29390  Biso   1.000  C
  H61      1.0000 0.91760  0.65430  0.28460  Biso   1.000  H
  C122     1.0000 0.05820  0.76970  0.28280  Biso   1.000  C
  H62      1.0000 0.02830  0.79820  0.26610  Biso   1.000  H
  C123     1.0000 0.16880  0.81410  0.29560  Biso   1.000  C
  C124     1.0000 0.21350  0.77140  0.32100  Biso   1.000  C
  H63      1.0000 0.28960  0.79880  0.32970  Biso   1.000  H
  C125     1.0000 0.14350  0.68840  0.33290  Biso   1.000  C
  H64      1.0000 0.17130  0.66120  0.34990  Biso   1.000  H
  C126     1.0000 0.31080  0.98620  0.29820  Biso   1.000  C
  C127     1.0000 0.41980  0.02900  0.28850  Biso   1.000  C
  H65      1.0000 0.44500  0.00130  0.27250  Biso   1.000  H
  C128     1.0000 0.49060  0.11190  0.30250  Biso   1.000  C
  H66      1.0000 0.56550  0.13880  0.29620  Biso   1.000  H
  C129     1.0000 0.45130  0.15500  0.32540  Biso   1.000  C
  C130     1.0000 0.34460  0.11350  0.33520  Biso   1.000  C
  H67      1.0000 0.32120  0.14100  0.35140  Biso   1.000  H
  C131     1.0000 0.27110  0.03120  0.32140  Biso   1.000  C
  H68      1.0000 0.19550  0.00600  0.32760  Biso   1.000  H
  C132     1.0000 0.24480  0.89360  0.25550  Biso   1.000  C
  C133     1.0000 0.19900  0.97890  0.23850  Biso   1.000  C
  H69      1.0000 0.15810  0.04160  0.24550  Biso   1.000  H
  C134     1.0000 0.32000  0.79410  0.21770  Biso   1.000  C
  H70      1.0000 0.36370  0.73310  0.21080  Biso   1.000  H
  C135     1.0000 0.30300  0.80100  0.24500  Biso   1.000  C
  H71      1.0000 0.33220  0.74100  0.25630  Biso   1.000  H
  C136     1.0000 0.53070  0.24290  0.34070  Biso   1.000  C
  C137     1.0000 0.28370  0.87680  0.17320  Biso   1.000  C
  C138     1.0000 0.26810  0.88280  0.20130  Biso   1.000  C
  C139     1.0000 0.21090  0.97600  0.21160  Biso   1.000  C
  H72      1.0000 0.18050  0.03640  0.20050  Biso   1.000  H
  C140     1.0000 0.95910  0.87150  0.95710  Biso   1.000  C
  C141     1.0000 0.91700  0.83500  0.98330  Biso   1.000  C
  C142     1.0000 0.05350  0.87390  0.85820  Biso   1.000  C
  C143     1.0000 0.08690  0.82430  0.83270  Biso   1.000  C
  C144     1.0000 0.39470  0.11490  0.92750  Biso   1.000  C
  C145     1.0000 0.38730  0.10240  0.95790  Biso   1.000  C
  C146     1.0000 0.61300  0.49500  0.14840  Biso   1.000  C
  F25      1.0000 0.81690  0.86700  0.98890  Biso   1.000  F
  F26      1.0000 0.90100  0.72300  0.98280  Biso   1.000  F
  F27      1.0000 0.99610  0.85500  0.00430  Biso   1.000  F
  F28      1.0000 0.19540  0.79340  0.83080  Biso   1.000  F
  F29      1.0000 0.08100  0.89500  0.81480  Biso   1.000  F
  F30      1.0000 0.01520  0.75300  0.82150  Biso   1.000  F
  F31      1.0000 0.37610  0.20100  0.96900  Biso   1.000  F
  F32      1.0000 0.49370  0.06610  0.97090  Biso   1.000  F
  F33      1.0000 0.30720  0.03300  0.96470  Biso   1.000  F
  F34      1.0000 0.70500  0.46530  0.13780  Biso   1.000  F
  F35      1.0000 0.51900  0.47180  0.12770  Biso   1.000  F
  F36      1.0000 0.57600  0.42670  0.16550  Biso   1.000  F
  N17      1.0000 0.66060  0.95360  0.89490  Biso   1.000  N
  N18      1.0000 0.29790  0.61100  0.96470  Biso   1.000  N
  N19      1.0000 0.97850  0.15110  0.90950  Biso   1.000  N
  N20      1.0000 0.28790  0.67360  0.09790  Biso   1.000  N
  N21      1.0000 0.23670  0.89910  0.28330  Biso   1.000  N
  N22      1.0000 0.59120  0.31100  0.35040  Biso   1.000  N
  N23      1.0000 0.29800  0.87250  0.15120  Biso   1.000  N
  O19      1.0000 0.87370  0.90460  0.94070  Biso   1.000  O
  O20      1.0000 0.07230  0.86340  0.95550  Biso   1.000  O
  O21      1.0000 0.93940  0.89090  0.86020  Biso   1.000  O
  O22      1.0000 0.14620  0.89720  0.87438  Biso   1.000  O
  O23      1.0000 0.30260  0.07420  0.91314  Biso   1.000  O
  O24      1.0000 0.49110  0.15620  0.92140  Biso   1.000  O
  O25      1.0000 0.61870  0.69670  0.13400  Biso   1.000  O
  O26      1.0000 0.48560  0.65280  0.16590  Biso   1.000  O
  O27      1.0000 0.71900  0.61900  0.17800  Biso   1.000  O
  S3       1.0000 0.60320  0.63460  0.15818  Biso   1.000  S
  N24      1.0000 0.90660  0.49810  0.34370  Biso   1.000  N
  C147     1.0000 0.95970  0.56010  0.33290  Biso   1.000  C
  Ag13     1.0000 0.62501  0.49464  0.60456  Biso   1.000  Ag
  Ag14     1.0000 0.35836  0.42853  0.58152  Biso   1.000  Ag
  Ag15     1.0000 0.72595  0.89634  0.13299  Biso   1.000  Ag
  Ag16     1.0000 0.06979  0.32273  0.37993  Biso   1.000  Ag
  C148     1.0000 0.90590  0.40240  0.59360  Biso   1.000  C
  C149     1.0000 0.98730  0.32980  0.57920  Biso   1.000  C
  C150     1.0000 0.10060  0.28280  0.59110  Biso   1.000  C
  H73      1.0000 0.12760  0.29870  0.60900  Biso   1.000  H
  C151     1.0000 0.17150  0.21330  0.57650  Biso   1.000  C
  H74      1.0000 0.24850  0.18400  0.58440  Biso   1.000  H
  C152     1.0000 0.13190  0.18530  0.55030  Biso   1.000  C
  C153     1.0000 0.02030  0.23800  0.53770  Biso   1.000  C
  H75      1.0000 0.99570  0.22500  0.51970  Biso   1.000  H
  C154     1.0000 0.94910  0.30820  0.55230  Biso   1.000  C
  H76      1.0000 0.87480  0.34170  0.54420  Biso   1.000  H
  C155     1.0000 0.26870  0.01360  0.54720  Biso   1.000  C
  C156     1.0000 0.22240  0.95480  0.56850  Biso   1.000  C
  H77      1.0000 0.14630  0.97770  0.57490  Biso   1.000  H
  C157     1.0000 0.28960  0.86340  0.58010  Biso   1.000  C
  H78      1.0000 0.26020  0.82590  0.59460  Biso   1.000  H
  C158     1.0000 0.39820  0.82720  0.57040  Biso   1.000  C
  C159     1.0000 0.46760  0.72970  0.58180  Biso   1.000  C
  C160     1.0000 0.44530  0.88510  0.54950  Biso   1.000  C
  H79      1.0000 0.52150  0.86130  0.54340  Biso   1.000  H
  C161     1.0000 0.37970  0.97850  0.53760  Biso   1.000  C
  H80      1.0000 0.41080  0.01670  0.52330  Biso   1.000  H
  C162     1.0000 0.19990  0.12360  0.50750  Biso   1.000  C
  C163     1.0000 0.17360  0.03130  0.49030  Biso   1.000  C
  H81      1.0000 0.15580  0.95900  0.49710  Biso   1.000  H
  C164     1.0000 0.17410  0.04740  0.46340  Biso   1.000  C
  H82      1.0000 0.15560  0.98460  0.45220  Biso   1.000  H
  C165     1.0000 0.19980  0.14890  0.45220  Biso   1.000  C
  C166     1.0000 0.22730  0.24520  0.46940  Biso   1.000  C
  H83      1.0000 0.24630  0.31690  0.46250  Biso   1.000  H
  C167     1.0000 0.22500  0.22980  0.49680  Biso   1.000  C
  H84      1.0000 0.24070  0.29260  0.50810  Biso   1.000  H
  C168     1.0000 0.20640  0.16410  0.42430  Biso   1.000  C
  C169     1.0000 0.46710  0.14610  0.18040  Biso   1.000  C
  C170     1.0000 0.50950  0.18530  0.20610  Biso   1.000  C
  H85      1.0000 0.58240  0.15430  0.21540  Biso   1.000  H
  C171     1.0000 0.44180  0.26970  0.21720  Biso   1.000  C
  H86      1.0000 0.47170  0.29820  0.23390  Biso   1.000  H
  C172     1.0000 0.33120  0.31410  0.20440  Biso   1.000  C
  C173     1.0000 0.28650  0.27140  0.17900  Biso   1.000  C
  H87      1.0000 0.21040  0.29880  0.17030  Biso   1.000  H
  C174     1.0000 0.35650  0.18840  0.16710  Biso   1.000  C
  H88      1.0000 0.32870  0.16120  0.15010  Biso   1.000  H
  C175     1.0000 0.18920  0.48620  0.20180  Biso   1.000  C
  C176     1.0000 0.08020  0.52900  0.21150  Biso   1.000  C
  H89      1.0000 0.05500  0.50130  0.22750  Biso   1.000  H
  C177     1.0000 0.00940  0.61190  0.19750  Biso   1.000  C
  H90      1.0000 0.93450  0.63880  0.20380  Biso   1.000  H
  C178     1.0000 0.04870  0.65500  0.17460  Biso   1.000  C
  C179     1.0000 0.15540  0.61350  0.16480  Biso   1.000  C
  H91      1.0000 0.17880  0.64100  0.14860  Biso   1.000  H
  C180     1.0000 0.22890  0.53120  0.17860  Biso   1.000  C
  H92      1.0000 0.30450  0.50600  0.17240  Biso   1.000  H
  C181     1.0000 0.25520  0.39360  0.24450  Biso   1.000  C
  C182     1.0000 0.30100  0.47890  0.26150  Biso   1.000  C
  H93      1.0000 0.34190  0.54160  0.25450  Biso   1.000  H
  C183     1.0000 0.18000  0.29410  0.28230  Biso   1.000  C
  H94      1.0000 0.13630  0.23310  0.28920  Biso   1.000  H
  C184     1.0000 0.19700  0.30100  0.25500  Biso   1.000  C
  H95      1.0000 0.16780  0.24100  0.24370  Biso   1.000  H
  C185     1.0000 0.96930  0.74290  0.15930  Biso   1.000  C
  C186     1.0000 0.21630  0.37680  0.32680  Biso   1.000  C
  C187     1.0000 0.23190  0.38280  0.29870  Biso   1.000  C
  C188     1.0000 0.28910  0.47600  0.28840  Biso   1.000  C
  H96      1.0000 0.31950  0.53640  0.29950  Biso   1.000  H
  C189     1.0000 0.54090  0.37150  0.54290  Biso   1.000  C
  C190     1.0000 0.58300  0.33500  0.51670  Biso   1.000  C
  C191     1.0000 0.44650  0.37390  0.64180  Biso   1.000  C
  C192     1.0000 0.41310  0.32430  0.66730  Biso   1.000  C
  C193     1.0000 0.10530  0.61490  0.57250  Biso   1.000  C
  C194     1.0000 0.11270  0.60240  0.54210  Biso   1.000  C
  C195     1.0000 0.88700  0.99500  0.35160  Biso   1.000  C
  F37      1.0000 0.68310  0.36700  0.51110  Biso   1.000  F
  F38      1.0000 0.59900  0.22300  0.51720  Biso   1.000  F
  F39      1.0000 0.50390  0.35500  0.49570  Biso   1.000  F
  F40      1.0000 0.30460  0.29340  0.66920  Biso   1.000  F
  F41      1.0000 0.41900  0.39500  0.68520  Biso   1.000  F
  F42      1.0000 0.48480  0.25300  0.67850  Biso   1.000  F
  F43      1.0000 0.12390  0.70100  0.53100  Biso   1.000  F
  F44      1.0000 0.00630  0.56610  0.52910  Biso   1.000  F
  F45      1.0000 0.19280  0.53300  0.53530  Biso   1.000  F
  F46      1.0000 0.79500  0.96530  0.36220  Biso   1.000  F
  F47      1.0000 0.98100  0.97180  0.37230  Biso   1.000  F
  F48      1.0000 0.92400  0.92670  0.33450  Biso   1.000  F
  N25      1.0000 0.83940  0.45360  0.60510  Biso   1.000  N
  N26      1.0000 0.20210  0.11100  0.53530  Biso   1.000  N
  N27      1.0000 0.52150  0.65110  0.59050  Biso   1.000  N
  N28      1.0000 0.21210  0.17360  0.40210  Biso   1.000  N
  N29      1.0000 0.26330  0.39910  0.21670  Biso   1.000  N
  N30      1.0000 0.90880  0.81100  0.14960  Biso   1.000  N
  N31      1.0000 0.20200  0.37250  0.34880  Biso   1.000  N
  O28      1.0000 0.62630  0.40460  0.55930  Biso   1.000  O
  O29      1.0000 0.42770  0.36340  0.54450  Biso   1.000  O
  O30      1.0000 0.56060  0.39090  0.63980  Biso   1.000  O
  O31      1.0000 0.35380  0.39720  0.62562  Biso   1.000  O
  O32      1.0000 0.19740  0.57420  0.58686  Biso   1.000  O
  O33      1.0000 0.00890  0.65620  0.57860  Biso   1.000  O
  O34      1.0000 0.88130  0.19670  0.36600  Biso   1.000  O
  O35      1.0000 0.01440  0.15280  0.33410  Biso   1.000  O
  O36      1.0000 0.78100  0.11900  0.32200  Biso   1.000  O
  S4       1.0000 0.89680  0.13460  0.34182  Biso   1.000  S
  N32      1.0000 0.59340  0.99810  0.15630  Biso   1.000  N
  C196     1.0000 0.54030  0.06010  0.16710  Biso   1.000  C
