data_image0
_cell_length_a       8.0098
_cell_length_b       13.813
_cell_length_c       22.126
_cell_angle_alpha    90
_cell_angle_beta     98.25
_cell_angle_gamma    90

_symmetry_space_group_name_H-M    "P 1"
_symmetry_int_tables_number       1

loop_
  _symmetry_equiv_pos_as_xyz
  'x, y, z'

loop_
  _atom_site_label
  _atom_site_occupancy
  _atom_site_fract_x
  _atom_site_fract_y
  _atom_site_fract_z
  _atom_site_thermal_displace_type
  _atom_site_B_iso_or_equiv
  _atom_site_type_symbol
  Zn1      1.0000 0.19051  0.02099  0.15018  Biso   1.000  Zn
  O1       1.0000 0.16350  0.93860  0.07769  Biso   1.000  O
  O2       1.0000 0.00660  0.84860  0.12870  Biso   1.000  O
  H1       1.0000 0.07040  0.81310  0.15090  Biso   1.000  H
  O3       1.0000 0.02900  0.90770  0.84759  Biso   1.000  O
  O4       1.0000 0.05990  0.75710  0.81640  Biso   1.000  O
  O5       1.0000 0.76760  0.48390  0.26290  Biso   1.000  O
  O6       1.0000 0.56910  0.39110  0.29140  Biso   1.000  O
  O7       1.0000 0.34970  0.12850  0.15062  Biso   1.000  O
  O8       1.0000 0.38570  0.13120  0.05280  Biso   1.000  O
  H2       1.0000 0.47700  0.11210  0.04490  Biso   1.000  H
  N1       1.0000 0.78100  0.53710  0.04158  Biso   1.000  N
  N2       1.0000 0.68940  0.42760  0.97310  Biso   1.000  N
  H3       1.0000 0.64250  0.37640  0.95630  Biso   1.000  H
  N3       1.0000 0.76660  0.50010  0.94410  Biso   1.000  N
  C1       1.0000 0.06870  0.86730  0.08270  Biso   1.000  C
  C2       1.0000 0.02190  0.80450  0.02620  Biso   1.000  C
  C3       1.0000 0.05020  0.83640  0.96940  Biso   1.000  C
  H4       1.0000 0.09870  0.89680  0.96540  Biso   1.000  H
  C4       1.0000 0.00650  0.77860  0.91800  Biso   1.000  C
  C5       1.0000 0.93700  0.68840  0.92350  Biso   1.000  C
  H5       1.0000 0.91250  0.64880  0.88940  Biso   1.000  H
  C6       1.0000 0.90330  0.65650  0.98050  Biso   1.000  C
  C7       1.0000 0.94610  0.71430  0.03150  Biso   1.000  C
  H6       1.0000 0.92440  0.69290  0.06950  Biso   1.000  H
  C8       1.0000 0.03230  0.81610  0.85540  Biso   1.000  C
  C9       1.0000 0.81740  0.56300  0.98570  Biso   1.000  C
  C10      1.0000 0.70070  0.45110  0.03080  Biso   1.000  C
  C11      1.0000 0.64130  0.39980  0.08070  Biso   1.000  C
  C12      1.0000 0.55630  0.30970  0.06990  Biso   1.000  C
  H7       1.0000 0.54270  0.28310  0.03090  Biso   1.000  H
  C13      1.0000 0.49370  0.26110  0.11650  Biso   1.000  C
  C14      1.0000 0.51800  0.30130  0.17510  Biso   1.000  C
  H8       1.0000 0.47230  0.27040  0.20630  Biso   1.000  H
  C15      1.0000 0.60900  0.38650  0.18790  Biso   1.000  C
  C16      1.0000 0.66990  0.43550  0.14020  Biso   1.000  C
  H9       1.0000 0.73040  0.49270  0.14830  Biso   1.000  H
  C17      1.0000 0.64860  0.42210  0.25200  Biso   1.000  C
  C18      1.0000 0.40460  0.16720  0.10510  Biso   1.000  C
  Zn2      1.0000 0.80949  0.52099  0.34982  Biso   1.000  Zn
  O9       1.0000 0.83650  0.43860  0.42231  Biso   1.000  O
  O10      1.0000 0.99340  0.34860  0.37130  Biso   1.000  O
  H10      1.0000 0.92960  0.31310  0.34910  Biso   1.000  H
  O11      1.0000 0.97100  0.40770  0.65241  Biso   1.000  O
  O12      1.0000 0.94010  0.25710  0.68360  Biso   1.000  O
  O13      1.0000 0.23240  0.98390  0.23710  Biso   1.000  O
  O14      1.0000 0.43090  0.89110  0.20860  Biso   1.000  O
  O15      1.0000 0.65030  0.62850  0.34938  Biso   1.000  O
  O16      1.0000 0.61430  0.63120  0.44720  Biso   1.000  O
  H11      1.0000 0.52300  0.61210  0.45510  Biso   1.000  H
  N4       1.0000 0.21900  0.03710  0.45842  Biso   1.000  N
  N5       1.0000 0.31060  0.92760  0.52690  Biso   1.000  N
  H12      1.0000 0.35750  0.87640  0.54370  Biso   1.000  H
  N6       1.0000 0.23340  0.00010  0.55590  Biso   1.000  N
  C19      1.0000 0.93130  0.36730  0.41730  Biso   1.000  C
  C20      1.0000 0.97810  0.30450  0.47380  Biso   1.000  C
  C21      1.0000 0.94980  0.33640  0.53060  Biso   1.000  C
  H13      1.0000 0.90130  0.39680  0.53460  Biso   1.000  H
  C22      1.0000 0.99350  0.27860  0.58200  Biso   1.000  C
  C23      1.0000 0.06300  0.18840  0.57650  Biso   1.000  C
  H14      1.0000 0.08750  0.14880  0.61060  Biso   1.000  H
  C24      1.0000 0.09670  0.15650  0.51950  Biso   1.000  C
  C25      1.0000 0.05390  0.21430  0.46850  Biso   1.000  C
  H15      1.0000 0.07560  0.19290  0.43050  Biso   1.000  H
  C26      1.0000 0.96770  0.31610  0.64460  Biso   1.000  C
  C27      1.0000 0.18260  0.06300  0.51430  Biso   1.000  C
  C28      1.0000 0.29930  0.95110  0.46920  Biso   1.000  C
  C29      1.0000 0.35870  0.89980  0.41930  Biso   1.000  C
  C30      1.0000 0.44370  0.80970  0.43010  Biso   1.000  C
  H16      1.0000 0.45730  0.78310  0.46910  Biso   1.000  H
  C31      1.0000 0.50630  0.76110  0.38350  Biso   1.000  C
  C32      1.0000 0.48200  0.80130  0.32490  Biso   1.000  C
  H17      1.0000 0.52770  0.77040  0.29370  Biso   1.000  H
  C33      1.0000 0.39100  0.88650  0.31210  Biso   1.000  C
  C34      1.0000 0.33010  0.93550  0.35980  Biso   1.000  C
  H18      1.0000 0.26960  0.99270  0.35170  Biso   1.000  H
  C35      1.0000 0.35140  0.92210  0.24800  Biso   1.000  C
  C36      1.0000 0.59540  0.66720  0.39490  Biso   1.000  C
  Zn3      1.0000 0.80949  0.97901  0.84982  Biso   1.000  Zn
  O17      1.0000 0.83650  0.06140  0.92231  Biso   1.000  O
  O18      1.0000 0.99340  0.15140  0.87130  Biso   1.000  O
  H19      1.0000 0.92960  0.18690  0.84910  Biso   1.000  H
  O19      1.0000 0.97100  0.09230  0.15241  Biso   1.000  O
  O20      1.0000 0.94010  0.24290  0.18360  Biso   1.000  O
  O21      1.0000 0.23240  0.51610  0.73710  Biso   1.000  O
  O22      1.0000 0.43090  0.60890  0.70860  Biso   1.000  O
  O23      1.0000 0.65030  0.87150  0.84938  Biso   1.000  O
  O24      1.0000 0.61430  0.86880  0.94720  Biso   1.000  O
  H20      1.0000 0.52300  0.88790  0.95510  Biso   1.000  H
  N7       1.0000 0.21900  0.46290  0.95842  Biso   1.000  N
  N8       1.0000 0.31060  0.57240  0.02690  Biso   1.000  N
  H21      1.0000 0.35750  0.62360  0.04370  Biso   1.000  H
  N9       1.0000 0.23340  0.49990  0.05590  Biso   1.000  N
  C37      1.0000 0.93130  0.13270  0.91730  Biso   1.000  C
  C38      1.0000 0.97810  0.19550  0.97380  Biso   1.000  C
  C39      1.0000 0.94980  0.16360  0.03060  Biso   1.000  C
  H22      1.0000 0.90130  0.10320  0.03460  Biso   1.000  H
  C40      1.0000 0.99350  0.22140  0.08200  Biso   1.000  C
  C41      1.0000 0.06300  0.31160  0.07650  Biso   1.000  C
  H23      1.0000 0.08750  0.35120  0.11060  Biso   1.000  H
  C42      1.0000 0.09670  0.34350  0.01950  Biso   1.000  C
  C43      1.0000 0.05390  0.28570  0.96850  Biso   1.000  C
  H24      1.0000 0.07560  0.30710  0.93050  Biso   1.000  H
  C44      1.0000 0.96770  0.18390  0.14460  Biso   1.000  C
  C45      1.0000 0.18260  0.43700  0.01430  Biso   1.000  C
  C46      1.0000 0.29930  0.54890  0.96920  Biso   1.000  C
  C47      1.0000 0.35870  0.60020  0.91930  Biso   1.000  C
  C48      1.0000 0.44370  0.69030  0.93010  Biso   1.000  C
  H25      1.0000 0.45730  0.71690  0.96910  Biso   1.000  H
  C49      1.0000 0.50630  0.73890  0.88350  Biso   1.000  C
  C50      1.0000 0.48200  0.69870  0.82490  Biso   1.000  C
  H26      1.0000 0.52770  0.72960  0.79370  Biso   1.000  H
  C51      1.0000 0.39100  0.61350  0.81210  Biso   1.000  C
  C52      1.0000 0.33010  0.56450  0.85980  Biso   1.000  C
  H27      1.0000 0.26960  0.50730  0.85170  Biso   1.000  H
  C53      1.0000 0.35140  0.57790  0.74800  Biso   1.000  C
  C54      1.0000 0.59540  0.83280  0.89490  Biso   1.000  C
  Zn4      1.0000 0.19051  0.47901  0.65018  Biso   1.000  Zn
  O25      1.0000 0.16350  0.56140  0.57769  Biso   1.000  O
  O26      1.0000 0.00660  0.65140  0.62870  Biso   1.000  O
  H28      1.0000 0.07040  0.68690  0.65090  Biso   1.000  H
  O27      1.0000 0.02900  0.59230  0.34759  Biso   1.000  O
  O28      1.0000 0.05990  0.74290  0.31640  Biso   1.000  O
  O29      1.0000 0.76760  0.01610  0.76290  Biso   1.000  O
  O30      1.0000 0.56910  0.10890  0.79140  Biso   1.000  O
  O31      1.0000 0.34970  0.37150  0.65062  Biso   1.000  O
  O32      1.0000 0.38570  0.36880  0.55280  Biso   1.000  O
  H29      1.0000 0.47700  0.38790  0.54490  Biso   1.000  H
  N10      1.0000 0.78100  0.96290  0.54158  Biso   1.000  N
  N11      1.0000 0.68940  0.07240  0.47310  Biso   1.000  N
  H30      1.0000 0.64250  0.12360  0.45630  Biso   1.000  H
  N12      1.0000 0.76660  0.99990  0.44410  Biso   1.000  N
  C55      1.0000 0.06870  0.63270  0.58270  Biso   1.000  C
  C56      1.0000 0.02190  0.69550  0.52620  Biso   1.000  C
  C57      1.0000 0.05020  0.66360  0.46940  Biso   1.000  C
  H31      1.0000 0.09870  0.60320  0.46540  Biso   1.000  H
  C58      1.0000 0.00650  0.72140  0.41800  Biso   1.000  C
  C59      1.0000 0.93700  0.81160  0.42350  Biso   1.000  C
  H32      1.0000 0.91250  0.85120  0.38940  Biso   1.000  H
  C60      1.0000 0.90330  0.84350  0.48050  Biso   1.000  C
  C61      1.0000 0.94610  0.78570  0.53150  Biso   1.000  C
  H33      1.0000 0.92440  0.80710  0.56950  Biso   1.000  H
  C62      1.0000 0.03230  0.68390  0.35540  Biso   1.000  C
  C63      1.0000 0.81740  0.93700  0.48570  Biso   1.000  C
  C64      1.0000 0.70070  0.04890  0.53080  Biso   1.000  C
  C65      1.0000 0.64130  0.10020  0.58070  Biso   1.000  C
  C66      1.0000 0.55630  0.19030  0.56990  Biso   1.000  C
  H34      1.0000 0.54270  0.21690  0.53090  Biso   1.000  H
  C67      1.0000 0.49370  0.23890  0.61650  Biso   1.000  C
  C68      1.0000 0.51800  0.19870  0.67510  Biso   1.000  C
  H35      1.0000 0.47230  0.22960  0.70630  Biso   1.000  H
  C69      1.0000 0.60900  0.11350  0.68790  Biso   1.000  C
  C70      1.0000 0.66990  0.06450  0.64020  Biso   1.000  C
  H36      1.0000 0.73040  0.00730  0.64830  Biso   1.000  H
  C71      1.0000 0.64860  0.07790  0.75200  Biso   1.000  C
  C72      1.0000 0.40460  0.33280  0.60510  Biso   1.000  C
