data_image0
_cell_length_a       7.1301
_cell_length_b       9.6227
_cell_length_c       16.7625
_cell_angle_alpha    90
_cell_angle_beta     90
_cell_angle_gamma    90

_symmetry_space_group_name_H-M    P 1
_symmetry_int_tables_number       1

loop_
  _symmetry_equiv_pos_as_xyz
  'x, y, z'

loop_
  _atom_site_label
  _atom_site_occupancy
  _atom_site_fract_x
  _atom_site_fract_y
  _atom_site_fract_z
  _atom_site_thermal_displace_type
  _atom_site_B_iso_or_equiv
  _atom_site_type_symbol
  Cd1      1.0000 0.70710  0.28259  0.65697  Biso   1.000  Cd
  Cd2      1.0000 0.95760  0.49952  0.50024  Biso   1.000  Cd
  Cd3      1.0000 0.20710  0.71741  0.34303  Biso   1.000  Cd
  Cd4      1.0000 0.45760  0.50048  0.49976  Biso   1.000  Cd
  Cd5      1.0000 0.70710  0.78259  0.84303  Biso   1.000  Cd
  Cd6      1.0000 0.95760  0.99952  0.99976  Biso   1.000  Cd
  Cd7      1.0000 0.20710  0.21741  0.15697  Biso   1.000  Cd
  Cd8      1.0000 0.45760  0.00048  0.00024  Biso   1.000  Cd
  H1       1.0000 0.73300  0.29800  0.50200  Biso   1.000  H
  H2       1.0000 0.06200  0.09920  0.75820  Biso   1.000  H
  H3       1.0000 0.25130  0.03530  0.72800  Biso   1.000  H
  H4       1.0000 0.25320  0.15240  0.79300  Biso   1.000  H
  H5       1.0000 0.23300  0.70200  0.49800  Biso   1.000  H
  H6       1.0000 0.56200  0.90080  0.24180  Biso   1.000  H
  H7       1.0000 0.75130  0.96470  0.27200  Biso   1.000  H
  H8       1.0000 0.75320  0.84760  0.20700  Biso   1.000  H
  H9       1.0000 0.73300  0.79800  0.99800  Biso   1.000  H
  H10      1.0000 0.06200  0.59920  0.74180  Biso   1.000  H
  H11      1.0000 0.25130  0.53530  0.77200  Biso   1.000  H
  H12      1.0000 0.25320  0.65240  0.70700  Biso   1.000  H
  H13      1.0000 0.23300  0.20200  0.00200  Biso   1.000  H
  H14      1.0000 0.56200  0.40080  0.25820  Biso   1.000  H
  H15      1.0000 0.75130  0.46470  0.22800  Biso   1.000  H
  H16      1.0000 0.75320  0.34760  0.29300  Biso   1.000  H
  C1       1.0000 0.20100  0.22590  0.68240  Biso   1.000  C
  C2       1.0000 0.19090  0.11870  0.74600  Biso   1.000  C
  C3       1.0000 0.70100  0.77410  0.31760  Biso   1.000  C
  C4       1.0000 0.69090  0.88130  0.25400  Biso   1.000  C
  C5       1.0000 0.20100  0.72590  0.81760  Biso   1.000  C
  C6       1.0000 0.19090  0.61870  0.75400  Biso   1.000  C
  C7       1.0000 0.70100  0.27410  0.18240  Biso   1.000  C
  C8       1.0000 0.69090  0.38130  0.24600  Biso   1.000  C
  S1       1.0000 0.70520  0.14321  0.84828  Biso   1.000  S
  S2       1.0000 0.20520  0.85679  0.15172  Biso   1.000  S
  S3       1.0000 0.70520  0.64321  0.65172  Biso   1.000  S
  S4       1.0000 0.20520  0.35679  0.34828  Biso   1.000  S
  N1       1.0000 0.04650  0.28210  0.64910  Biso   1.000  N
  N2       1.0000 0.12430  0.36810  0.59210  Biso   1.000  N
  N3       1.0000 0.30630  0.36890  0.59580  Biso   1.000  N
  N4       1.0000 0.35800  0.27850  0.64950  Biso   1.000  N
  N5       1.0000 0.54650  0.71790  0.35090  Biso   1.000  N
  N6       1.0000 0.62430  0.63190  0.40790  Biso   1.000  N
  N7       1.0000 0.80630  0.63110  0.40420  Biso   1.000  N
  N8       1.0000 0.85800  0.72150  0.35050  Biso   1.000  N
  N9       1.0000 0.04650  0.78210  0.85090  Biso   1.000  N
  N10      1.0000 0.12430  0.86810  0.90790  Biso   1.000  N
  N11      1.0000 0.30630  0.86890  0.90420  Biso   1.000  N
  N12      1.0000 0.35800  0.77850  0.85050  Biso   1.000  N
  N13      1.0000 0.54650  0.21790  0.14910  Biso   1.000  N
  N14      1.0000 0.62430  0.13190  0.09210  Biso   1.000  N
  N15      1.0000 0.80630  0.13110  0.09580  Biso   1.000  N
  N16      1.0000 0.85800  0.22150  0.14950  Biso   1.000  N
  O1       1.0000 0.71700  0.25930  0.79160  Biso   1.000  O
  O2       1.0000 0.72400  0.01110  0.80480  Biso   1.000  O
  O3       1.0000 0.53560  0.15180  0.90080  Biso   1.000  O
  O4       1.0000 0.87080  0.15250  0.89710  Biso   1.000  O
  O5       1.0000 0.69700  0.36550  0.53030  Biso   1.000  O
  O6       1.0000 0.71700  0.05140  0.63690  Biso   1.000  O
  O7       1.0000 0.21700  0.74070  0.20840  Biso   1.000  O
  O8       1.0000 0.22400  0.98890  0.19520  Biso   1.000  O
  O9       1.0000 0.03560  0.84820  0.09920  Biso   1.000  O
  O10      1.0000 0.37080  0.84750  0.10290  Biso   1.000  O
  O11      1.0000 0.19700  0.63450  0.46970  Biso   1.000  O
  O12      1.0000 0.21700  0.94860  0.36310  Biso   1.000  O
  O13      1.0000 0.71700  0.75930  0.70840  Biso   1.000  O
  O14      1.0000 0.72400  0.51110  0.69520  Biso   1.000  O
  O15      1.0000 0.53560  0.65180  0.59920  Biso   1.000  O
  O16      1.0000 0.87080  0.65250  0.60290  Biso   1.000  O
  O17      1.0000 0.69700  0.86550  0.96970  Biso   1.000  O
  O18      1.0000 0.71700  0.55140  0.86310  Biso   1.000  O
  O19      1.0000 0.21700  0.24070  0.29160  Biso   1.000  O
  O20      1.0000 0.22400  0.48890  0.30480  Biso   1.000  O
  O21      1.0000 0.03560  0.34820  0.40080  Biso   1.000  O
  O22      1.0000 0.37080  0.34750  0.39710  Biso   1.000  O
  O23      1.0000 0.19700  0.13450  0.03030  Biso   1.000  O
  O24      1.0000 0.21700  0.44860  0.13690  Biso   1.000  O
