data_image0
_cell_length_a       15.8809
_cell_length_b       15.8809
_cell_length_c       21.81
_cell_angle_alpha    90
_cell_angle_beta     90
_cell_angle_gamma    90

_symmetry_space_group_name_H-M    "P 1"
_symmetry_int_tables_number       1

loop_
  _symmetry_equiv_pos_as_xyz
  'x, y, z'

loop_
  _atom_site_label
  _atom_site_occupancy
  _atom_site_fract_x
  _atom_site_fract_y
  _atom_site_fract_z
  _atom_site_thermal_displace_type
  _atom_site_B_iso_or_equiv
  _atom_site_type_symbol
  C1       1.0000 0.19930  0.15680  0.57560  Biso   1.000  C
  H1       1.0000 0.23010  0.14010  0.54020  Biso   1.000  H
  C2       1.0000 0.23390  0.21750  0.61390  Biso   1.000  C
  H2       1.0000 0.28750  0.24070  0.60460  Biso   1.000  H
  C3       1.0000 0.19160  0.24420  0.66480  Biso   1.000  C
  C4       1.0000 0.11690  0.20130  0.67880  Biso   1.000  C
  H3       1.0000 0.08730  0.21370  0.71550  Biso   1.000  H
  C5       1.0000 0.08680  0.14100  0.63910  Biso   1.000  C
  H4       1.0000 0.03650  0.11220  0.64980  Biso   1.000  H
  C6       1.0000 0.22220  0.31740  0.70220  Biso   1.000  C
  C7       1.0000 0.28190  0.37110  0.67670  Biso   1.000  C
  H5       1.0000 0.30250  0.36030  0.63650  Biso   1.000  H
  C8       1.0000 0.31160  0.43980  0.70900  Biso   1.000  C
  C9       1.0000 0.28300  0.45550  0.76800  Biso   1.000  C
  H6       1.0000 0.30290  0.50260  0.79060  Biso   1.000  H
  C10      1.0000 0.22350  0.39970  0.79370  Biso   1.000  C
  H7       1.0000 0.20300  0.40960  0.83400  Biso   1.000  H
  C11      1.0000 0.19470  0.33110  0.76130  Biso   1.000  C
  H8       1.0000 0.15590  0.29330  0.77970  Biso   1.000  H
  C12      1.0000 0.37290  0.49510  0.67950  Biso   1.000  C
  C13      1.0000 0.42420  0.59110  0.61830  Biso   1.000  C
  C14      1.0000 0.43200  0.66100  0.57420  Biso   1.000  C
  C15      1.0000 0.50400  0.66360  0.53720  Biso   1.000  C
  H9       1.0000 0.54540  0.62070  0.54020  Biso   1.000  H
  C16      1.0000 0.51400  0.72850  0.49690  Biso   1.000  C
  H10      1.0000 0.56290  0.73000  0.47180  Biso   1.000  H
  C17      1.0000 0.45580  0.79140  0.49150  Biso   1.000  C
  H11      1.0000 0.46360  0.83490  0.46220  Biso   1.000  H
  C18      1.0000 0.38420  0.79130  0.52960  Biso   1.000  C
  C19      1.0000 0.37330  0.72500  0.56990  Biso   1.000  C
  H12      1.0000 0.32450  0.72340  0.59500  Biso   1.000  H
  C20      1.0000 0.31830  0.85790  0.52350  Biso   1.000  C
  C21      1.0000 0.30860  0.90420  0.47170  Biso   1.000  C
  H13      1.0000 0.34810  0.89770  0.43940  Biso   1.000  H
  C22      1.0000 0.24210  0.96140  0.46450  Biso   1.000  C
  H14      1.0000 0.23680  0.99110  0.42680  Biso   1.000  H
  C23      1.0000 0.19740  0.93190  0.56160  Biso   1.000  C
  H15      1.0000 0.15900  0.94150  0.59420  Biso   1.000  H
  C24      1.0000 0.26080  0.87520  0.57060  Biso   1.000  C
  H16      1.0000 0.26590  0.84730  0.60890  Biso   1.000  H
  N1       1.0000 0.12420  0.12070  0.58630  Biso   1.000  N
  N2       1.0000 0.45600  0.49400  0.68400  Biso   1.000  N
  N3       1.0000 0.48830  0.55570  0.64530  Biso   1.000  N
  N4       1.0000 0.35100  0.55530  0.63910  Biso   1.000  N
  N5       1.0000 0.27000  0.57300  0.61690  Biso   1.000  N
  H17      1.0000 0.24400  0.52380  0.60680  Biso   1.000  H
  H18      1.0000 0.23990  0.59960  0.64660  Biso   1.000  H
  N6       1.0000 0.18630  0.97520  0.50880  Biso   1.000  N
  C25      1.0000 0.80070  0.84320  0.07560  Biso   1.000  C
  H19      1.0000 0.76990  0.85990  0.04020  Biso   1.000  H
  C26      1.0000 0.76610  0.78250  0.11390  Biso   1.000  C
  H20      1.0000 0.71250  0.75930  0.10460  Biso   1.000  H
  C27      1.0000 0.80840  0.75580  0.16480  Biso   1.000  C
  C28      1.0000 0.88310  0.79870  0.17880  Biso   1.000  C
  H21      1.0000 0.91270  0.78630  0.21550  Biso   1.000  H
  C29      1.0000 0.91320  0.85900  0.13910  Biso   1.000  C
  H22      1.0000 0.96350  0.88780  0.14980  Biso   1.000  H
  C30      1.0000 0.77780  0.68260  0.20220  Biso   1.000  C
  C31      1.0000 0.71810  0.62890  0.17670  Biso   1.000  C
  H23      1.0000 0.69750  0.63970  0.13650  Biso   1.000  H
  C32      1.0000 0.68840  0.56020  0.20900  Biso   1.000  C
  C33      1.0000 0.71700  0.54450  0.26800  Biso   1.000  C
  H24      1.0000 0.69710  0.49740  0.29060  Biso   1.000  H
  C34      1.0000 0.77650  0.60030  0.29370  Biso   1.000  C
  H25      1.0000 0.79700  0.59040  0.33400  Biso   1.000  H
  C35      1.0000 0.80530  0.66890  0.26130  Biso   1.000  C
  H26      1.0000 0.84410  0.70670  0.27970  Biso   1.000  H
  C36      1.0000 0.62710  0.50490  0.17950  Biso   1.000  C
  C37      1.0000 0.57580  0.40890  0.11830  Biso   1.000  C
  C38      1.0000 0.56800  0.33900  0.07420  Biso   1.000  C
  C39      1.0000 0.49600  0.33640  0.03720  Biso   1.000  C
  H27      1.0000 0.45460  0.37930  0.04020  Biso   1.000  H
  C40      1.0000 0.48600  0.27150  0.99690  Biso   1.000  C
  H28      1.0000 0.43710  0.27000  0.97180  Biso   1.000  H
  C41      1.0000 0.54420  0.20860  0.99150  Biso   1.000  C
  H29      1.0000 0.53640  0.16510  0.96220  Biso   1.000  H
  C42      1.0000 0.61580  0.20870  0.02960  Biso   1.000  C
  C43      1.0000 0.62670  0.27500  0.06990  Biso   1.000  C
  H30      1.0000 0.67550  0.27660  0.09500  Biso   1.000  H
  C44      1.0000 0.68170  0.14210  0.02350  Biso   1.000  C
  C45      1.0000 0.69140  0.09580  0.97170  Biso   1.000  C
  H31      1.0000 0.65190  0.10230  0.93940  Biso   1.000  H
  C46      1.0000 0.75790  0.03860  0.96450  Biso   1.000  C
  H32      1.0000 0.76320  0.00890  0.92680  Biso   1.000  H
  C47      1.0000 0.80260  0.06810  0.06160  Biso   1.000  C
  H33      1.0000 0.84100  0.05850  0.09420  Biso   1.000  H
  C48      1.0000 0.73920  0.12480  0.07060  Biso   1.000  C
  H34      1.0000 0.73410  0.15270  0.10890  Biso   1.000  H
  N7       1.0000 0.87580  0.87930  0.08630  Biso   1.000  N
  N8       1.0000 0.54400  0.50600  0.18400  Biso   1.000  N
  N9       1.0000 0.51170  0.44430  0.14530  Biso   1.000  N
  N10      1.0000 0.64900  0.44470  0.13910  Biso   1.000  N
  N11      1.0000 0.73000  0.42700  0.11690  Biso   1.000  N
  H35      1.0000 0.75600  0.47620  0.10680  Biso   1.000  H
  H36      1.0000 0.76010  0.40040  0.14660  Biso   1.000  H
  N12      1.0000 0.81370  0.02480  0.00880  Biso   1.000  N
  C49      1.0000 0.34320  0.69930  0.32560  Biso   1.000  C
  H37      1.0000 0.35990  0.73010  0.29020  Biso   1.000  H
  C50      1.0000 0.28250  0.73390  0.36390  Biso   1.000  C
  H38      1.0000 0.25930  0.78750  0.35460  Biso   1.000  H
  C51      1.0000 0.25580  0.69160  0.41480  Biso   1.000  C
  C52      1.0000 0.29870  0.61690  0.42880  Biso   1.000  C
  H39      1.0000 0.28630  0.58730  0.46550  Biso   1.000  H
  C53      1.0000 0.35900  0.58680  0.38910  Biso   1.000  C
  H40      1.0000 0.38780  0.53650  0.39980  Biso   1.000  H
  C54      1.0000 0.18260  0.72220  0.45220  Biso   1.000  C
  C55      1.0000 0.12890  0.78190  0.42670  Biso   1.000  C
  H41      1.0000 0.13970  0.80250  0.38650  Biso   1.000  H
  C56      1.0000 0.06020  0.81160  0.45900  Biso   1.000  C
  C57      1.0000 0.04450  0.78300  0.51800  Biso   1.000  C
  H42      1.0000 0.99740  0.80290  0.54060  Biso   1.000  H
  C58      1.0000 0.10030  0.72350  0.54370  Biso   1.000  C
  H43      1.0000 0.09040  0.70300  0.58400  Biso   1.000  H
  C59      1.0000 0.16890  0.69470  0.51130  Biso   1.000  C
  H44      1.0000 0.20670  0.65590  0.52970  Biso   1.000  H
  C60      1.0000 0.00490  0.87290  0.42950  Biso   1.000  C
  C61      1.0000 0.90890  0.92420  0.36830  Biso   1.000  C
  C62      1.0000 0.83900  0.93200  0.32420  Biso   1.000  C
  C63      1.0000 0.83640  0.00400  0.28720  Biso   1.000  C
  H45      1.0000 0.87930  0.04540  0.29020  Biso   1.000  H
  C64      1.0000 0.77150  0.01400  0.24690  Biso   1.000  C
  H46      1.0000 0.77000  0.06290  0.22180  Biso   1.000  H
  C65      1.0000 0.70860  0.95580  0.24150  Biso   1.000  C
  H47      1.0000 0.66510  0.96360  0.21220  Biso   1.000  H
  C66      1.0000 0.70870  0.88420  0.27960  Biso   1.000  C
  C67      1.0000 0.77500  0.87330  0.31990  Biso   1.000  C
  H48      1.0000 0.77660  0.82450  0.34500  Biso   1.000  H
  C68      1.0000 0.64210  0.81830  0.27350  Biso   1.000  C
  C69      1.0000 0.59580  0.80860  0.22170  Biso   1.000  C
  H49      1.0000 0.60230  0.84810  0.18940  Biso   1.000  H
  C70      1.0000 0.53860  0.74210  0.21450  Biso   1.000  C
  H50      1.0000 0.50890  0.73680  0.17680  Biso   1.000  H
  C71      1.0000 0.56810  0.69740  0.31160  Biso   1.000  C
  H51      1.0000 0.55850  0.65900  0.34420  Biso   1.000  H
  C72      1.0000 0.62480  0.76080  0.32060  Biso   1.000  C
  H52      1.0000 0.65270  0.76590  0.35890  Biso   1.000  H
  N13      1.0000 0.37930  0.62420  0.33630  Biso   1.000  N
  N14      1.0000 0.00600  0.95600  0.43400  Biso   1.000  N
  N15      1.0000 0.94430  0.98830  0.39530  Biso   1.000  N
  N16      1.0000 0.94470  0.85100  0.38910  Biso   1.000  N
  N17      1.0000 0.92700  0.77000  0.36690  Biso   1.000  N
  H53      1.0000 0.97620  0.74400  0.35680  Biso   1.000  H
  H54      1.0000 0.90040  0.73990  0.39660  Biso   1.000  H
  N18      1.0000 0.52480  0.68630  0.25880  Biso   1.000  N
  C73      1.0000 0.65680  0.30070  0.82560  Biso   1.000  C
  H55      1.0000 0.64010  0.26990  0.79020  Biso   1.000  H
  C74      1.0000 0.71750  0.26610  0.86390  Biso   1.000  C
  H56      1.0000 0.74070  0.21250  0.85460  Biso   1.000  H
  C75      1.0000 0.74420  0.30840  0.91480  Biso   1.000  C
  C76      1.0000 0.70130  0.38310  0.92880  Biso   1.000  C
  H57      1.0000 0.71370  0.41270  0.96550  Biso   1.000  H
  C77      1.0000 0.64100  0.41320  0.88910  Biso   1.000  C
  H58      1.0000 0.61220  0.46350  0.89980  Biso   1.000  H
  C78      1.0000 0.81740  0.27780  0.95220  Biso   1.000  C
  C79      1.0000 0.87110  0.21810  0.92670  Biso   1.000  C
  H59      1.0000 0.86030  0.19750  0.88650  Biso   1.000  H
  C80      1.0000 0.93980  0.18840  0.95900  Biso   1.000  C
  C81      1.0000 0.95550  0.21700  0.01800  Biso   1.000  C
  H60      1.0000 0.00260  0.19710  0.04060  Biso   1.000  H
  C82      1.0000 0.89970  0.27650  0.04370  Biso   1.000  C
  H61      1.0000 0.90960  0.29700  0.08400  Biso   1.000  H
  C83      1.0000 0.83110  0.30530  0.01130  Biso   1.000  C
  H62      1.0000 0.79330  0.34410  0.02970  Biso   1.000  H
  C84      1.0000 0.99510  0.12710  0.92950  Biso   1.000  C
  C85      1.0000 0.09110  0.07580  0.86830  Biso   1.000  C
  C86      1.0000 0.16100  0.06800  0.82420  Biso   1.000  C
  C87      1.0000 0.16360  0.99600  0.78720  Biso   1.000  C
  H63      1.0000 0.12070  0.95460  0.79020  Biso   1.000  H
  C88      1.0000 0.22850  0.98600  0.74690  Biso   1.000  C
  H64      1.0000 0.23000  0.93710  0.72180  Biso   1.000  H
  C89      1.0000 0.29140  0.04420  0.74150  Biso   1.000  C
  H65      1.0000 0.33490  0.03640  0.71220  Biso   1.000  H
  C90      1.0000 0.29130  0.11580  0.77960  Biso   1.000  C
  C91      1.0000 0.22500  0.12670  0.81990  Biso   1.000  C
  H66      1.0000 0.22340  0.17550  0.84500  Biso   1.000  H
  C92      1.0000 0.35790  0.18170  0.77350  Biso   1.000  C
  C93      1.0000 0.40420  0.19140  0.72170  Biso   1.000  C
  H67      1.0000 0.39770  0.15190  0.68940  Biso   1.000  H
  C94      1.0000 0.46140  0.25790  0.71450  Biso   1.000  C
  H68      1.0000 0.49110  0.26320  0.67680  Biso   1.000  H
  C95      1.0000 0.43190  0.30260  0.81160  Biso   1.000  C
  H69      1.0000 0.44150  0.34100  0.84420  Biso   1.000  H
  C96      1.0000 0.37520  0.23920  0.82060  Biso   1.000  C
  H70      1.0000 0.34730  0.23410  0.85890  Biso   1.000  H
  N19      1.0000 0.62070  0.37580  0.83630  Biso   1.000  N
  N20      1.0000 0.99400  0.04400  0.93400  Biso   1.000  N
  N21      1.0000 0.05570  0.01170  0.89530  Biso   1.000  N
  N22      1.0000 0.05530  0.14900  0.88910  Biso   1.000  N
  N23      1.0000 0.07300  0.23000  0.86690  Biso   1.000  N
  H71      1.0000 0.02380  0.25600  0.85680  Biso   1.000  H
  H72      1.0000 0.09960  0.26010  0.89660  Biso   1.000  H
  N24      1.0000 0.47520  0.31370  0.75880  Biso   1.000  N
  C97      1.0000 0.30070  0.65680  0.17440  Biso   1.000  C
  H73      1.0000 0.26990  0.64010  0.20980  Biso   1.000  H
  C98      1.0000 0.26610  0.71750  0.13610  Biso   1.000  C
  H74      1.0000 0.21250  0.74070  0.14540  Biso   1.000  H
  C99      1.0000 0.30840  0.74420  0.08520  Biso   1.000  C
  C100     1.0000 0.38310  0.70130  0.07120  Biso   1.000  C
  H75      1.0000 0.41270  0.71370  0.03450  Biso   1.000  H
  C101     1.0000 0.41320  0.64100  0.11090  Biso   1.000  C
  H76      1.0000 0.46350  0.61220  0.10020  Biso   1.000  H
  C102     1.0000 0.27780  0.81740  0.04780  Biso   1.000  C
  C103     1.0000 0.21810  0.87110  0.07330  Biso   1.000  C
  H77      1.0000 0.19750  0.86030  0.11350  Biso   1.000  H
  C104     1.0000 0.18840  0.93980  0.04100  Biso   1.000  C
  C105     1.0000 0.21700  0.95550  0.98200  Biso   1.000  C
  H78      1.0000 0.19710  0.00260  0.95940  Biso   1.000  H
  C106     1.0000 0.27650  0.89970  0.95630  Biso   1.000  C
  H79      1.0000 0.29700  0.90960  0.91600  Biso   1.000  H
  C107     1.0000 0.30530  0.83110  0.98870  Biso   1.000  C
  H80      1.0000 0.34410  0.79330  0.97030  Biso   1.000  H
  C108     1.0000 0.12710  0.99510  0.07050  Biso   1.000  C
  C109     1.0000 0.07580  0.09110  0.13170  Biso   1.000  C
  C110     1.0000 0.06800  0.16100  0.17580  Biso   1.000  C
  C111     1.0000 0.99600  0.16360  0.21280  Biso   1.000  C
  H81      1.0000 0.95460  0.12070  0.20980  Biso   1.000  H
  C112     1.0000 0.98600  0.22850  0.25310  Biso   1.000  C
  H82      1.0000 0.93710  0.23000  0.27820  Biso   1.000  H
  C113     1.0000 0.04420  0.29140  0.25850  Biso   1.000  C
  H83      1.0000 0.03640  0.33490  0.28780  Biso   1.000  H
  C114     1.0000 0.11580  0.29130  0.22040  Biso   1.000  C
  C115     1.0000 0.12670  0.22500  0.18010  Biso   1.000  C
  H84      1.0000 0.17550  0.22340  0.15500  Biso   1.000  H
  C116     1.0000 0.18170  0.35790  0.22650  Biso   1.000  C
  C117     1.0000 0.19140  0.40420  0.27830  Biso   1.000  C
  H85      1.0000 0.15190  0.39770  0.31060  Biso   1.000  H
  C118     1.0000 0.25790  0.46140  0.28550  Biso   1.000  C
  H86      1.0000 0.26320  0.49110  0.32320  Biso   1.000  H
  C119     1.0000 0.30260  0.43190  0.18840  Biso   1.000  C
  H87      1.0000 0.34100  0.44150  0.15580  Biso   1.000  H
  C120     1.0000 0.23920  0.37520  0.17940  Biso   1.000  C
  H88      1.0000 0.23410  0.34730  0.14110  Biso   1.000  H
  N25      1.0000 0.37580  0.62070  0.16370  Biso   1.000  N
  N26      1.0000 0.04400  0.99400  0.06600  Biso   1.000  N
  N27      1.0000 0.01170  0.05570  0.10470  Biso   1.000  N
  N28      1.0000 0.14900  0.05530  0.11090  Biso   1.000  N
  N29      1.0000 0.23000  0.07300  0.13310  Biso   1.000  N
  H89      1.0000 0.25600  0.02380  0.14320  Biso   1.000  H
  H90      1.0000 0.26010  0.09960  0.10340  Biso   1.000  H
  N30      1.0000 0.31370  0.47520  0.24120  Biso   1.000  N
  C121     1.0000 0.69930  0.34320  0.67440  Biso   1.000  C
  H91      1.0000 0.73010  0.35990  0.70980  Biso   1.000  H
  C122     1.0000 0.73390  0.28250  0.63610  Biso   1.000  C
  H92      1.0000 0.78750  0.25930  0.64540  Biso   1.000  H
  C123     1.0000 0.69160  0.25580  0.58520  Biso   1.000  C
  C124     1.0000 0.61690  0.29870  0.57120  Biso   1.000  C
  H93      1.0000 0.58730  0.28630  0.53450  Biso   1.000  H
  C125     1.0000 0.58680  0.35900  0.61090  Biso   1.000  C
  H94      1.0000 0.53650  0.38780  0.60020  Biso   1.000  H
  C126     1.0000 0.72220  0.18260  0.54780  Biso   1.000  C
  C127     1.0000 0.78190  0.12890  0.57330  Biso   1.000  C
  H95      1.0000 0.80250  0.13970  0.61350  Biso   1.000  H
  C128     1.0000 0.81160  0.06020  0.54100  Biso   1.000  C
  C129     1.0000 0.78300  0.04450  0.48200  Biso   1.000  C
  H96      1.0000 0.80290  0.99740  0.45940  Biso   1.000  H
  C130     1.0000 0.72350  0.10030  0.45630  Biso   1.000  C
  H97      1.0000 0.70300  0.09040  0.41600  Biso   1.000  H
  C131     1.0000 0.69470  0.16890  0.48870  Biso   1.000  C
  H98      1.0000 0.65590  0.20670  0.47030  Biso   1.000  H
  C132     1.0000 0.87290  0.00490  0.57050  Biso   1.000  C
  C133     1.0000 0.92420  0.90890  0.63170  Biso   1.000  C
  C134     1.0000 0.93200  0.83900  0.67580  Biso   1.000  C
  C135     1.0000 0.00400  0.83640  0.71280  Biso   1.000  C
  H99      1.0000 0.04540  0.87930  0.70980  Biso   1.000  H
  C136     1.0000 0.01400  0.77150  0.75310  Biso   1.000  C
  H100     1.0000 0.06290  0.77000  0.77820  Biso   1.000  H
  C137     1.0000 0.95580  0.70860  0.75850  Biso   1.000  C
  H101     1.0000 0.96360  0.66510  0.78780  Biso   1.000  H
  C138     1.0000 0.88420  0.70870  0.72040  Biso   1.000  C
  C139     1.0000 0.87330  0.77500  0.68010  Biso   1.000  C
  H102     1.0000 0.82450  0.77660  0.65500  Biso   1.000  H
  C140     1.0000 0.81830  0.64210  0.72650  Biso   1.000  C
  C141     1.0000 0.80860  0.59580  0.77830  Biso   1.000  C
  H103     1.0000 0.84810  0.60230  0.81060  Biso   1.000  H
  C142     1.0000 0.74210  0.53860  0.78550  Biso   1.000  C
  H104     1.0000 0.73680  0.50890  0.82320  Biso   1.000  H
  C143     1.0000 0.69740  0.56810  0.68840  Biso   1.000  C
  H105     1.0000 0.65900  0.55850  0.65580  Biso   1.000  H
  C144     1.0000 0.76080  0.62480  0.67940  Biso   1.000  C
  H106     1.0000 0.76590  0.65270  0.64110  Biso   1.000  H
  N31      1.0000 0.62420  0.37930  0.66370  Biso   1.000  N
  N32      1.0000 0.95600  0.00600  0.56600  Biso   1.000  N
  N33      1.0000 0.98830  0.94430  0.60470  Biso   1.000  N
  N34      1.0000 0.85100  0.94470  0.61090  Biso   1.000  N
  N35      1.0000 0.77000  0.92700  0.63310  Biso   1.000  N
  H107     1.0000 0.74400  0.97620  0.64320  Biso   1.000  H
  H108     1.0000 0.73990  0.90040  0.60340  Biso   1.000  H
  N36      1.0000 0.68630  0.52480  0.74120  Biso   1.000  N
  C145     1.0000 0.15680  0.19930  0.42440  Biso   1.000  C
  H109     1.0000 0.14010  0.23010  0.45980  Biso   1.000  H
  C146     1.0000 0.21750  0.23390  0.38610  Biso   1.000  C
  H110     1.0000 0.24070  0.28750  0.39540  Biso   1.000  H
  C147     1.0000 0.24420  0.19160  0.33520  Biso   1.000  C
  C148     1.0000 0.20130  0.11690  0.32120  Biso   1.000  C
  H111     1.0000 0.21370  0.08730  0.28450  Biso   1.000  H
  C149     1.0000 0.14100  0.08680  0.36090  Biso   1.000  C
  H112     1.0000 0.11220  0.03650  0.35020  Biso   1.000  H
  C150     1.0000 0.31740  0.22220  0.29780  Biso   1.000  C
  C151     1.0000 0.37110  0.28190  0.32330  Biso   1.000  C
  H113     1.0000 0.36030  0.30250  0.36350  Biso   1.000  H
  C152     1.0000 0.43980  0.31160  0.29100  Biso   1.000  C
  C153     1.0000 0.45550  0.28300  0.23200  Biso   1.000  C
  H114     1.0000 0.50260  0.30290  0.20940  Biso   1.000  H
  C154     1.0000 0.39970  0.22350  0.20630  Biso   1.000  C
  H115     1.0000 0.40960  0.20300  0.16600  Biso   1.000  H
  C155     1.0000 0.33110  0.19470  0.23870  Biso   1.000  C
  H116     1.0000 0.29330  0.15590  0.22030  Biso   1.000  H
  C156     1.0000 0.49510  0.37290  0.32050  Biso   1.000  C
  C157     1.0000 0.59110  0.42420  0.38170  Biso   1.000  C
  C158     1.0000 0.66100  0.43200  0.42580  Biso   1.000  C
  C159     1.0000 0.66360  0.50400  0.46280  Biso   1.000  C
  H117     1.0000 0.62070  0.54540  0.45980  Biso   1.000  H
  C160     1.0000 0.72850  0.51400  0.50310  Biso   1.000  C
  H118     1.0000 0.73000  0.56290  0.52820  Biso   1.000  H
  C161     1.0000 0.79140  0.45580  0.50850  Biso   1.000  C
  H119     1.0000 0.83490  0.46360  0.53780  Biso   1.000  H
  C162     1.0000 0.79130  0.38420  0.47040  Biso   1.000  C
  C163     1.0000 0.72500  0.37330  0.43010  Biso   1.000  C
  H120     1.0000 0.72340  0.32450  0.40500  Biso   1.000  H
  C164     1.0000 0.85790  0.31830  0.47650  Biso   1.000  C
  C165     1.0000 0.90420  0.30860  0.52830  Biso   1.000  C
  H121     1.0000 0.89770  0.34810  0.56060  Biso   1.000  H
  C166     1.0000 0.96140  0.24210  0.53550  Biso   1.000  C
  H122     1.0000 0.99110  0.23680  0.57320  Biso   1.000  H
  C167     1.0000 0.93190  0.19740  0.43840  Biso   1.000  C
  H123     1.0000 0.94150  0.15900  0.40580  Biso   1.000  H
  C168     1.0000 0.87520  0.26080  0.42940  Biso   1.000  C
  H124     1.0000 0.84730  0.26590  0.39110  Biso   1.000  H
  N37      1.0000 0.12070  0.12420  0.41370  Biso   1.000  N
  N38      1.0000 0.49400  0.45600  0.31600  Biso   1.000  N
  N39      1.0000 0.55570  0.48830  0.35470  Biso   1.000  N
  N40      1.0000 0.55530  0.35100  0.36090  Biso   1.000  N
  N41      1.0000 0.57300  0.27000  0.38310  Biso   1.000  N
  H125     1.0000 0.52380  0.24400  0.39320  Biso   1.000  H
  H126     1.0000 0.59960  0.23990  0.35340  Biso   1.000  H
  N42      1.0000 0.97520  0.18630  0.49120  Biso   1.000  N
  C169     1.0000 0.84320  0.80070  0.92440  Biso   1.000  C
  H127     1.0000 0.85990  0.76990  0.95980  Biso   1.000  H
  C170     1.0000 0.78250  0.76610  0.88610  Biso   1.000  C
  H128     1.0000 0.75930  0.71250  0.89540  Biso   1.000  H
  C171     1.0000 0.75580  0.80840  0.83520  Biso   1.000  C
  C172     1.0000 0.79870  0.88310  0.82120  Biso   1.000  C
  H129     1.0000 0.78630  0.91270  0.78450  Biso   1.000  H
  C173     1.0000 0.85900  0.91320  0.86090  Biso   1.000  C
  H130     1.0000 0.88780  0.96350  0.85020  Biso   1.000  H
  C174     1.0000 0.68260  0.77780  0.79780  Biso   1.000  C
  C175     1.0000 0.62890  0.71810  0.82330  Biso   1.000  C
  H131     1.0000 0.63970  0.69750  0.86350  Biso   1.000  H
  C176     1.0000 0.56020  0.68840  0.79100  Biso   1.000  C
  C177     1.0000 0.54450  0.71700  0.73200  Biso   1.000  C
  H132     1.0000 0.49740  0.69710  0.70940  Biso   1.000  H
  C178     1.0000 0.60030  0.77650  0.70630  Biso   1.000  C
  H133     1.0000 0.59040  0.79700  0.66600  Biso   1.000  H
  C179     1.0000 0.66890  0.80530  0.73870  Biso   1.000  C
  H134     1.0000 0.70670  0.84410  0.72030  Biso   1.000  H
  C180     1.0000 0.50490  0.62710  0.82050  Biso   1.000  C
  C181     1.0000 0.40890  0.57580  0.88170  Biso   1.000  C
  C182     1.0000 0.33900  0.56800  0.92580  Biso   1.000  C
  C183     1.0000 0.33640  0.49600  0.96280  Biso   1.000  C
  H135     1.0000 0.37930  0.45460  0.95980  Biso   1.000  H
  C184     1.0000 0.27150  0.48600  0.00310  Biso   1.000  C
  H136     1.0000 0.27000  0.43710  0.02820  Biso   1.000  H
  C185     1.0000 0.20860  0.54420  0.00850  Biso   1.000  C
  H137     1.0000 0.16510  0.53640  0.03780  Biso   1.000  H
  C186     1.0000 0.20870  0.61580  0.97040  Biso   1.000  C
  C187     1.0000 0.27500  0.62670  0.93010  Biso   1.000  C
  H138     1.0000 0.27660  0.67550  0.90500  Biso   1.000  H
  C188     1.0000 0.14210  0.68170  0.97650  Biso   1.000  C
  C189     1.0000 0.09580  0.69140  0.02830  Biso   1.000  C
  H139     1.0000 0.10230  0.65190  0.06060  Biso   1.000  H
  C190     1.0000 0.03860  0.75790  0.03550  Biso   1.000  C
  H140     1.0000 0.00890  0.76320  0.07320  Biso   1.000  H
  C191     1.0000 0.06810  0.80260  0.93840  Biso   1.000  C
  H141     1.0000 0.05850  0.84100  0.90580  Biso   1.000  H
  C192     1.0000 0.12480  0.73920  0.92940  Biso   1.000  C
  H142     1.0000 0.15270  0.73410  0.89110  Biso   1.000  H
  N43      1.0000 0.87930  0.87580  0.91370  Biso   1.000  N
  N44      1.0000 0.50600  0.54400  0.81600  Biso   1.000  N
  N45      1.0000 0.44430  0.51170  0.85470  Biso   1.000  N
  N46      1.0000 0.44470  0.64900  0.86090  Biso   1.000  N
  N47      1.0000 0.42700  0.73000  0.88310  Biso   1.000  N
  H143     1.0000 0.47620  0.75600  0.89320  Biso   1.000  H
  H144     1.0000 0.40040  0.76010  0.85340  Biso   1.000  H
  N48      1.0000 0.02480  0.81370  0.99120  Biso   1.000  N
  Cd1      1.0000 0.55807  0.44193  0.75000  Biso   1.000  Cd
  Cd2      1.0000 0.44193  0.55807  0.25000  Biso   1.000  Cd
  Cd3      1.0000 0.05807  0.05807  0.50000  Biso   1.000  Cd
  Cd4      1.0000 0.94193  0.94193  0.00000  Biso   1.000  Cd
