data_image0
_cell_length_a       9.0521
_cell_length_b       15.401
_cell_length_c       17.141
_cell_angle_alpha    90
_cell_angle_beta     90
_cell_angle_gamma    90

_symmetry_space_group_name_H-M    P 1
_symmetry_int_tables_number       1

loop_
  _symmetry_equiv_pos_as_xyz
  'x, y, z'

loop_
  _atom_site_label
  _atom_site_occupancy
  _atom_site_fract_x
  _atom_site_fract_y
  _atom_site_fract_z
  _atom_site_thermal_displace_type
  _atom_site_B_iso_or_equiv
  _atom_site_type_symbol
  Cu1      1.0000 0.57064  0.27827  0.78185  Biso   1.000  Cu
  Cu2      1.0000 0.07064  0.72173  0.21815  Biso   1.000  Cu
  Cu3      1.0000 0.57064  0.77827  0.71815  Biso   1.000  Cu
  Cu4      1.0000 0.07064  0.22173  0.28185  Biso   1.000  Cu
  H1       1.0000 0.26510  0.69140  0.66790  Biso   1.000  H
  H2       1.0000 0.39110  0.76700  0.87450  Biso   1.000  H
  H3       1.0000 0.13960  0.70750  0.88770  Biso   1.000  H
  H4       1.0000 0.97600  0.66700  0.70030  Biso   1.000  H
  H5       1.0000 0.94120  0.65380  0.78900  Biso   1.000  H
  H6       1.0000 0.07550  0.53420  0.68860  Biso   1.000  H
  H7       1.0000 0.93180  0.51980  0.73780  Biso   1.000  H
  H8       1.0000 0.07670  0.51540  0.85240  Biso   1.000  H
  H9       1.0000 0.21930  0.52570  0.80130  Biso   1.000  H
  H10      1.0000 0.14390  0.38840  0.73790  Biso   1.000  H
  H11      1.0000 0.21230  0.38050  0.82170  Biso   1.000  H
  H12      1.0000 0.85690  0.36110  0.72610  Biso   1.000  H
  H13      1.0000 0.03550  0.32830  0.93410  Biso   1.000  H
  H14      1.0000 0.78340  0.27050  0.93650  Biso   1.000  H
  H15      1.0000 0.80830  0.22050  0.57430  Biso   1.000  H
  H16      1.0000 0.87590  0.02790  0.42110  Biso   1.000  H
  H17      1.0000 0.73750  0.93610  0.49700  Biso   1.000  H
  H18      1.0000 0.65310  0.98190  0.61810  Biso   1.000  H
  H19      1.0000 0.76510  0.30860  0.33210  Biso   1.000  H
  H20      1.0000 0.89110  0.23300  0.12550  Biso   1.000  H
  H21      1.0000 0.63960  0.29250  0.11230  Biso   1.000  H
  H22      1.0000 0.47600  0.33300  0.29970  Biso   1.000  H
  H23      1.0000 0.44120  0.34620  0.21100  Biso   1.000  H
  H24      1.0000 0.57550  0.46580  0.31140  Biso   1.000  H
  H25      1.0000 0.43180  0.48020  0.26220  Biso   1.000  H
  H26      1.0000 0.57670  0.48460  0.14760  Biso   1.000  H
  H27      1.0000 0.71930  0.47430  0.19870  Biso   1.000  H
  H28      1.0000 0.64390  0.61160  0.26210  Biso   1.000  H
  H29      1.0000 0.71230  0.61950  0.17830  Biso   1.000  H
  H30      1.0000 0.35690  0.63890  0.27390  Biso   1.000  H
  H31      1.0000 0.53550  0.67170  0.06590  Biso   1.000  H
  H32      1.0000 0.28340  0.72950  0.06350  Biso   1.000  H
  H33      1.0000 0.30830  0.77950  0.42570  Biso   1.000  H
  H34      1.0000 0.37590  0.97210  0.57890  Biso   1.000  H
  H35      1.0000 0.23750  0.06390  0.50300  Biso   1.000  H
  H36      1.0000 0.15310  0.01810  0.38190  Biso   1.000  H
  H37      1.0000 0.26510  0.19140  0.83210  Biso   1.000  H
  H38      1.0000 0.39110  0.26700  0.62550  Biso   1.000  H
  H39      1.0000 0.13960  0.20750  0.61230  Biso   1.000  H
  H40      1.0000 0.97600  0.16700  0.79970  Biso   1.000  H
  H41      1.0000 0.94120  0.15380  0.71100  Biso   1.000  H
  H42      1.0000 0.07550  0.03420  0.81140  Biso   1.000  H
  H43      1.0000 0.93180  0.01980  0.76220  Biso   1.000  H
  H44      1.0000 0.07670  0.01540  0.64760  Biso   1.000  H
  H45      1.0000 0.21930  0.02570  0.69870  Biso   1.000  H
  H46      1.0000 0.14390  0.88840  0.76210  Biso   1.000  H
  H47      1.0000 0.21230  0.88050  0.67830  Biso   1.000  H
  H48      1.0000 0.85690  0.86110  0.77390  Biso   1.000  H
  H49      1.0000 0.03550  0.82830  0.56590  Biso   1.000  H
  H50      1.0000 0.78340  0.77050  0.56350  Biso   1.000  H
  H51      1.0000 0.80830  0.72050  0.92570  Biso   1.000  H
  H52      1.0000 0.87590  0.52790  0.07890  Biso   1.000  H
  H53      1.0000 0.73750  0.43610  0.00300  Biso   1.000  H
  H54      1.0000 0.65310  0.48190  0.88190  Biso   1.000  H
  H55      1.0000 0.76510  0.80860  0.16790  Biso   1.000  H
  H56      1.0000 0.89110  0.73300  0.37450  Biso   1.000  H
  H57      1.0000 0.63960  0.79250  0.38770  Biso   1.000  H
  H58      1.0000 0.47600  0.83300  0.20030  Biso   1.000  H
  H59      1.0000 0.44120  0.84620  0.28900  Biso   1.000  H
  H60      1.0000 0.57550  0.96580  0.18860  Biso   1.000  H
  H61      1.0000 0.43180  0.98020  0.23780  Biso   1.000  H
  H62      1.0000 0.57670  0.98460  0.35240  Biso   1.000  H
  H63      1.0000 0.71930  0.97430  0.30130  Biso   1.000  H
  H64      1.0000 0.64390  0.11160  0.23790  Biso   1.000  H
  H65      1.0000 0.71230  0.11950  0.32170  Biso   1.000  H
  H66      1.0000 0.35690  0.13890  0.22610  Biso   1.000  H
  H67      1.0000 0.53550  0.17170  0.43410  Biso   1.000  H
  H68      1.0000 0.28340  0.22950  0.43650  Biso   1.000  H
  H69      1.0000 0.30830  0.27950  0.07430  Biso   1.000  H
  H70      1.0000 0.37590  0.47210  0.92110  Biso   1.000  H
  H71      1.0000 0.23750  0.56390  0.99700  Biso   1.000  H
  H72      1.0000 0.15310  0.51810  0.11810  Biso   1.000  H
  C1       1.0000 0.26510  0.70290  0.72120  Biso   1.000  C
  C2       1.0000 0.33380  0.74420  0.83440  Biso   1.000  C
  C3       1.0000 0.19470  0.71150  0.84200  Biso   1.000  C
  C4       1.0000 0.01340  0.64230  0.74850  Biso   1.000  C
  C5       1.0000 0.02950  0.54570  0.73860  Biso   1.000  C
  C6       1.0000 0.12000  0.50210  0.80200  Biso   1.000  C
  C7       1.0000 0.12850  0.40240  0.79250  Biso   1.000  C
  C8       1.0000 0.86920  0.34580  0.77820  Biso   1.000  C
  C9       1.0000 0.96900  0.32810  0.89280  Biso   1.000  C
  C10      1.0000 0.82970  0.29610  0.89390  Biso   1.000  C
  C11      1.0000 0.71890  0.10710  0.60720  Biso   1.000  C
  C12      1.0000 0.79670  0.16280  0.55970  Biso   1.000  C
  C13      1.0000 0.85790  0.13370  0.49030  Biso   1.000  C
  C14      1.0000 0.83580  0.04780  0.46770  Biso   1.000  C
  C15      1.0000 0.75560  0.99260  0.51360  Biso   1.000  C
  C16      1.0000 0.70110  0.02060  0.58520  Biso   1.000  C
  C17      1.0000 0.65620  0.13860  0.68310  Biso   1.000  C
  C18      1.0000 0.94610  0.19440  0.43780  Biso   1.000  C
  C19      1.0000 0.76510  0.29710  0.27880  Biso   1.000  C
  C20      1.0000 0.83380  0.25580  0.16560  Biso   1.000  C
  C21      1.0000 0.69470  0.28850  0.15800  Biso   1.000  C
  C22      1.0000 0.51340  0.35770  0.25150  Biso   1.000  C
  C23      1.0000 0.52950  0.45430  0.26140  Biso   1.000  C
  C24      1.0000 0.62000  0.49790  0.19800  Biso   1.000  C
  C25      1.0000 0.62850  0.59760  0.20750  Biso   1.000  C
  C26      1.0000 0.36920  0.65420  0.22180  Biso   1.000  C
  C27      1.0000 0.46900  0.67190  0.10720  Biso   1.000  C
  C28      1.0000 0.32970  0.70390  0.10610  Biso   1.000  C
  C29      1.0000 0.21890  0.89290  0.39280  Biso   1.000  C
  C30      1.0000 0.29670  0.83720  0.44030  Biso   1.000  C
  C31      1.0000 0.35790  0.86630  0.50970  Biso   1.000  C
  C32      1.0000 0.33580  0.95220  0.53230  Biso   1.000  C
  C33      1.0000 0.25560  0.00740  0.48640  Biso   1.000  C
  C34      1.0000 0.20110  0.97940  0.41480  Biso   1.000  C
  C35      1.0000 0.15620  0.86140  0.31690  Biso   1.000  C
  C36      1.0000 0.44610  0.80560  0.56220  Biso   1.000  C
  C37      1.0000 0.26510  0.20290  0.77880  Biso   1.000  C
  C38      1.0000 0.33380  0.24420  0.66560  Biso   1.000  C
  C39      1.0000 0.19470  0.21150  0.65800  Biso   1.000  C
  C40      1.0000 0.01340  0.14230  0.75150  Biso   1.000  C
  C41      1.0000 0.02950  0.04570  0.76140  Biso   1.000  C
  C42      1.0000 0.12000  0.00210  0.69800  Biso   1.000  C
  C43      1.0000 0.12850  0.90240  0.70750  Biso   1.000  C
  C44      1.0000 0.86920  0.84580  0.72180  Biso   1.000  C
  C45      1.0000 0.96900  0.82810  0.60720  Biso   1.000  C
  C46      1.0000 0.82970  0.79610  0.60610  Biso   1.000  C
  C47      1.0000 0.71890  0.60710  0.89280  Biso   1.000  C
  C48      1.0000 0.79670  0.66280  0.94030  Biso   1.000  C
  C49      1.0000 0.85790  0.63370  0.00970  Biso   1.000  C
  C50      1.0000 0.83580  0.54780  0.03230  Biso   1.000  C
  C51      1.0000 0.75560  0.49260  0.98640  Biso   1.000  C
  C52      1.0000 0.70110  0.52060  0.91480  Biso   1.000  C
  C53      1.0000 0.65620  0.63860  0.81690  Biso   1.000  C
  C54      1.0000 0.94610  0.69440  0.06220  Biso   1.000  C
  C55      1.0000 0.76510  0.79710  0.22120  Biso   1.000  C
  C56      1.0000 0.83380  0.75580  0.33440  Biso   1.000  C
  C57      1.0000 0.69470  0.78850  0.34200  Biso   1.000  C
  C58      1.0000 0.51340  0.85770  0.24850  Biso   1.000  C
  C59      1.0000 0.52950  0.95430  0.23860  Biso   1.000  C
  C60      1.0000 0.62000  0.99790  0.30200  Biso   1.000  C
  C61      1.0000 0.62850  0.09760  0.29250  Biso   1.000  C
  C62      1.0000 0.36920  0.15420  0.27820  Biso   1.000  C
  C63      1.0000 0.46900  0.17190  0.39280  Biso   1.000  C
  C64      1.0000 0.32970  0.20390  0.39390  Biso   1.000  C
  C65      1.0000 0.21890  0.39290  0.10720  Biso   1.000  C
  C66      1.0000 0.29670  0.33720  0.05970  Biso   1.000  C
  C67      1.0000 0.35790  0.36630  0.99030  Biso   1.000  C
  C68      1.0000 0.33580  0.45220  0.96770  Biso   1.000  C
  C69      1.0000 0.25560  0.50740  0.01360  Biso   1.000  C
  C70      1.0000 0.20110  0.47940  0.08520  Biso   1.000  C
  C71      1.0000 0.15620  0.36140  0.18310  Biso   1.000  C
  C72      1.0000 0.44610  0.30560  0.93780  Biso   1.000  C
  N1       1.0000 0.37470  0.73790  0.75860  Biso   1.000  N
  N2       1.0000 0.15240  0.68560  0.76890  Biso   1.000  N
  N3       1.0000 0.99330  0.35970  0.81990  Biso   1.000  N
  N4       1.0000 0.76810  0.30780  0.82100  Biso   1.000  N
  N5       1.0000 0.87470  0.26210  0.24140  Biso   1.000  N
  N6       1.0000 0.65240  0.31440  0.23110  Biso   1.000  N
  N7       1.0000 0.49330  0.64030  0.18010  Biso   1.000  N
  N8       1.0000 0.26810  0.69220  0.17900  Biso   1.000  N
  N9       1.0000 0.37470  0.23790  0.74140  Biso   1.000  N
  N10      1.0000 0.15240  0.18560  0.73110  Biso   1.000  N
  N11      1.0000 0.99330  0.85970  0.68010  Biso   1.000  N
  N12      1.0000 0.76810  0.80780  0.67900  Biso   1.000  N
  N13      1.0000 0.87470  0.76210  0.25860  Biso   1.000  N
  N14      1.0000 0.65240  0.81440  0.26890  Biso   1.000  N
  N15      1.0000 0.49330  0.14030  0.31990  Biso   1.000  N
  N16      1.0000 0.26810  0.19220  0.32100  Biso   1.000  N
  O1       1.0000 0.66100  0.22000  0.69350  Biso   1.000  O
  O2       1.0000 0.60810  0.08510  0.73070  Biso   1.000  O
  O3       1.0000 0.97440  0.16590  0.37110  Biso   1.000  O
  O4       1.0000 0.98630  0.26560  0.46400  Biso   1.000  O
  O5       1.0000 0.16100  0.78000  0.30650  Biso   1.000  O
  O6       1.0000 0.10810  0.91490  0.26930  Biso   1.000  O
  O7       1.0000 0.47440  0.83410  0.62890  Biso   1.000  O
  O8       1.0000 0.48630  0.73440  0.53600  Biso   1.000  O
  O9       1.0000 0.66100  0.72000  0.80650  Biso   1.000  O
  O10      1.0000 0.60810  0.58510  0.76930  Biso   1.000  O
  O11      1.0000 0.97440  0.66590  0.12890  Biso   1.000  O
  O12      1.0000 0.98630  0.76560  0.03600  Biso   1.000  O
  O13      1.0000 0.16100  0.28000  0.19350  Biso   1.000  O
  O14      1.0000 0.10810  0.41490  0.23070  Biso   1.000  O
  O15      1.0000 0.47440  0.33410  0.87110  Biso   1.000  O
  O16      1.0000 0.48630  0.23440  0.96400  Biso   1.000  O
