data_OLURUI_charged
_audit_creation_date              2014-07-02
_audit_creation_method            'Materials Studio'
_symmetry_space_group_name_H-M    'P1'
_symmetry_Int_Tables_number       1
_symmetry_cell_setting            triclinic
loop_
_symmetry_equiv_pos_as_xyz
  x,y,z
_cell_length_a                    15.0384
_cell_length_b                    15.0384
_cell_length_c                    15.0384
_cell_angle_alpha                 71.9781
_cell_angle_beta                  71.9781
_cell_angle_gamma                 71.9781
loop_
_atom_site_label
_atom_site_type_symbol
_atom_site_fract_x
_atom_site_fract_y
_atom_site_fract_z
_atom_site_U_iso_or_equiv
_atom_site_adp_type
_atom_site_occupancy
In1    In    0.25000   0.59009   0.90991   0.01267  Uiso   1.00
In2    In    0.90991   0.25000   0.59009   0.01267  Uiso   1.00
In3    In    0.59009   0.90991   0.25000   0.01267  Uiso   1.00
In4    In    0.75000   0.40991   0.09009   0.01267  Uiso   1.00
In5    In    0.09009   0.75000   0.40991   0.01267  Uiso   1.00
In6    In    0.40991   0.09009   0.75000   0.01267  Uiso   1.00
H1     H     0.60840   0.61170   0.87290   0.01267  Uiso   1.00
H2     H     0.49080   0.53310   0.89840   0.01267  Uiso   1.00
H3     H     0.87290   0.60840   0.61170   0.01267  Uiso   1.00
H4     H     0.89840   0.49080   0.53310   0.01267  Uiso   1.00
H5     H     0.61170   0.87290   0.60840   0.01267  Uiso   1.00
H6     H     0.53310   0.89840   0.49080   0.01267  Uiso   1.00
H7     H     0.88830   0.89160   0.62710   0.01267  Uiso   1.00
H8     H     0.96690   0.00920   0.60160   0.01267  Uiso   1.00
H9     H     0.89160   0.62710   0.88830   0.01267  Uiso   1.00
H10    H     0.00920   0.60160   0.96690   0.01267  Uiso   1.00
H11    H     0.62710   0.88830   0.89160   0.01267  Uiso   1.00
H12    H     0.60160   0.96690   0.00920   0.01267  Uiso   1.00
H13    H     0.39160   0.38830   0.12710   0.01267  Uiso   1.00
H14    H     0.50920   0.46690   0.10160   0.01267  Uiso   1.00
H15    H     0.12710   0.39160   0.38830   0.01267  Uiso   1.00
H16    H     0.10160   0.50920   0.46690   0.01267  Uiso   1.00
H17    H     0.38830   0.12710   0.39160   0.01267  Uiso   1.00
H18    H     0.46690   0.10160   0.50920   0.01267  Uiso   1.00
H19    H     0.11170   0.10840   0.37290   0.01267  Uiso   1.00
H20    H     0.03310   0.99080   0.39840   0.01267  Uiso   1.00
H21    H     0.10840   0.37290   0.11170   0.01267  Uiso   1.00
H22    H     0.99080   0.39840   0.03310   0.01267  Uiso   1.00
H23    H     0.37290   0.11170   0.10840   0.01267  Uiso   1.00
H24    H     0.39840   0.03310   0.99080   0.01267  Uiso   1.00
C1     C     0.36634   0.74578   0.86205   0.01267  Uiso   1.00
C2     C     0.43945   0.79201   0.84243   0.01267  Uiso   1.00
C3     C     0.54675   0.64775   0.86775   0.01267  Uiso   1.00
C4     C     0.47561   0.60001   0.88481   0.01267  Uiso   1.00
C5     C     0.42481   0.90021   0.81541   0.01267  Uiso   1.00
C6     C     0.26351   0.79825   0.86126   0.01267  Uiso   1.00
C7     C     0.86205   0.36634   0.74578   0.01267  Uiso   1.00
C8     C     0.84243   0.43945   0.79201   0.01267  Uiso   1.00
C9     C     0.86775   0.54675   0.64775   0.01267  Uiso   1.00
C10    C     0.88481   0.47561   0.60001   0.01267  Uiso   1.00
C11    C     0.81541   0.42481   0.90021   0.01267  Uiso   1.00
C12    C     0.86126   0.26351   0.79825   0.01267  Uiso   1.00
C13    C     0.74578   0.86205   0.36634   0.01267  Uiso   1.00
C14    C     0.79201   0.84243   0.43945   0.01267  Uiso   1.00
C15    C     0.64775   0.86775   0.54675   0.01267  Uiso   1.00
C16    C     0.60001   0.88481   0.47561   0.01267  Uiso   1.00
C17    C     0.90021   0.81541   0.42481   0.01267  Uiso   1.00
C18    C     0.79825   0.86126   0.26351   0.01267  Uiso   1.00
C19    C     0.75422   0.13366   0.63795   0.01267  Uiso   1.00
C20    C     0.70799   0.06055   0.65757   0.01267  Uiso   1.00
C21    C     0.85225   0.95325   0.63225   0.01267  Uiso   1.00
C22    C     0.89999   0.02439   0.61519   0.01267  Uiso   1.00
C23    C     0.59979   0.07519   0.68459   0.01267  Uiso   1.00
C24    C     0.70175   0.23649   0.63874   0.01267  Uiso   1.00
C25    C     0.13366   0.63795   0.75422   0.01267  Uiso   1.00
C26    C     0.06055   0.65757   0.70799   0.01267  Uiso   1.00
C27    C     0.95325   0.63225   0.85225   0.01267  Uiso   1.00
C28    C     0.02439   0.61519   0.89999   0.01267  Uiso   1.00
C29    C     0.07519   0.68459   0.59979   0.01267  Uiso   1.00
C30    C     0.23649   0.63874   0.70175   0.01267  Uiso   1.00
C31    C     0.63795   0.75422   0.13366   0.01267  Uiso   1.00
C32    C     0.65757   0.70799   0.06055   0.01267  Uiso   1.00
C33    C     0.63225   0.85225   0.95325   0.01267  Uiso   1.00
C34    C     0.61519   0.89999   0.02439   0.01267  Uiso   1.00
C35    C     0.68459   0.59979   0.07519   0.01267  Uiso   1.00
C36    C     0.63874   0.70175   0.23649   0.01267  Uiso   1.00
C37    C     0.63366   0.25422   0.13795   0.01267  Uiso   1.00
C38    C     0.56055   0.20799   0.15757   0.01267  Uiso   1.00
C39    C     0.45325   0.35225   0.13225   0.01267  Uiso   1.00
C40    C     0.52439   0.39999   0.11519   0.01267  Uiso   1.00
C41    C     0.57519   0.09979   0.18459   0.01267  Uiso   1.00
C42    C     0.73649   0.20175   0.13874   0.01267  Uiso   1.00
C43    C     0.13795   0.63366   0.25422   0.01267  Uiso   1.00
C44    C     0.15757   0.56055   0.20799   0.01267  Uiso   1.00
C45    C     0.13225   0.45325   0.35225   0.01267  Uiso   1.00
C46    C     0.11519   0.52439   0.39999   0.01267  Uiso   1.00
C47    C     0.18459   0.57519   0.09979   0.01267  Uiso   1.00
C48    C     0.13874   0.73649   0.20175   0.01267  Uiso   1.00
C49    C     0.25422   0.13795   0.63366   0.01267  Uiso   1.00
C50    C     0.20799   0.15757   0.56055   0.01267  Uiso   1.00
C51    C     0.35225   0.13225   0.45325   0.01267  Uiso   1.00
C52    C     0.39999   0.11519   0.52439   0.01267  Uiso   1.00
C53    C     0.09979   0.18459   0.57519   0.01267  Uiso   1.00
C54    C     0.20175   0.13874   0.73649   0.01267  Uiso   1.00
C55    C     0.24578   0.86634   0.36205   0.01267  Uiso   1.00
C56    C     0.29201   0.93945   0.34243   0.01267  Uiso   1.00
C57    C     0.14775   0.04675   0.36775   0.01267  Uiso   1.00
C58    C     0.10001   0.97561   0.38481   0.01267  Uiso   1.00
C59    C     0.40021   0.92481   0.31541   0.01267  Uiso   1.00
C60    C     0.29825   0.76351   0.36126   0.01267  Uiso   1.00
C61    C     0.86634   0.36205   0.24578   0.01267  Uiso   1.00
C62    C     0.93945   0.34243   0.29201   0.01267  Uiso   1.00
C63    C     0.04675   0.36775   0.14775   0.01267  Uiso   1.00
C64    C     0.97561   0.38481   0.10001   0.01267  Uiso   1.00
C65    C     0.92481   0.31541   0.40021   0.01267  Uiso   1.00
C66    C     0.76351   0.36126   0.29825   0.01267  Uiso   1.00
C67    C     0.36205   0.24578   0.86634   0.01267  Uiso   1.00
C68    C     0.34243   0.29201   0.93945   0.01267  Uiso   1.00
C69    C     0.36775   0.14775   0.04675   0.01267  Uiso   1.00
C70    C     0.38481   0.10001   0.97561   0.01267  Uiso   1.00
C71    C     0.31541   0.40021   0.92481   0.01267  Uiso   1.00
C72    C     0.36126   0.29825   0.76351   0.01267  Uiso   1.00
N1     N     0.38581   0.64888   0.88185   0.01267  Uiso   1.00
N2     N     0.53027   0.74375   0.84406   0.01267  Uiso   1.00
N3     N     0.88185   0.38581   0.64888   0.01267  Uiso   1.00
N4     N     0.84406   0.53027   0.74375   0.01267  Uiso   1.00
N5     N     0.64888   0.88185   0.38581   0.01267  Uiso   1.00
N6     N     0.74375   0.84406   0.53027   0.01267  Uiso   1.00
N7     N     0.85112   0.11419   0.61815   0.01267  Uiso   1.00
N8     N     0.75625   0.96973   0.65594   0.01267  Uiso   1.00
N9     N     0.11419   0.61815   0.85112   0.01267  Uiso   1.00
N10    N     0.96973   0.65594   0.75625   0.01267  Uiso   1.00
N11    N     0.61815   0.85112   0.11419   0.01267  Uiso   1.00
N12    N     0.65594   0.75625   0.96973   0.01267  Uiso   1.00
N13    N     0.61419   0.35112   0.11815   0.01267  Uiso   1.00
N14    N     0.46973   0.25625   0.15594   0.01267  Uiso   1.00
N15    N     0.11815   0.61419   0.35112   0.01267  Uiso   1.00
N16    N     0.15594   0.46973   0.25625   0.01267  Uiso   1.00
N17    N     0.35112   0.11815   0.61419   0.01267  Uiso   1.00
N18    N     0.25625   0.15594   0.46973   0.01267  Uiso   1.00
N19    N     0.14888   0.88581   0.38185   0.01267  Uiso   1.00
N20    N     0.24375   0.03027   0.34406   0.01267  Uiso   1.00
N21    N     0.88581   0.38185   0.14888   0.01267  Uiso   1.00
N22    N     0.03027   0.34406   0.24375   0.01267  Uiso   1.00
N23    N     0.38185   0.14888   0.88581   0.01267  Uiso   1.00
N24    N     0.34406   0.24375   0.03027   0.01267  Uiso   1.00
O1     O     0.20344   0.74645   0.88442   0.01267  Uiso   1.00
O2     O     0.27209   0.55829   0.05844   0.01267  Uiso   1.00
O3     O     0.12027   0.59857   0.05502   0.01267  Uiso   1.00
O4     O     0.24468   0.88628   0.83856   0.01267  Uiso   1.00
O5     O     0.88442   0.20344   0.74645   0.01267  Uiso   1.00
O6     O     0.05844   0.27209   0.55829   0.01267  Uiso   1.00
O7     O     0.05502   0.12027   0.59857   0.01267  Uiso   1.00
O8     O     0.83856   0.24468   0.88628   0.01267  Uiso   1.00
O9     O     0.74645   0.88442   0.20344   0.01267  Uiso   1.00
O10    O     0.55829   0.05844   0.27209   0.01267  Uiso   1.00
O11    O     0.59857   0.05502   0.12027   0.01267  Uiso   1.00
O12    O     0.88628   0.83856   0.24468   0.01267  Uiso   1.00
O13    O     0.75355   0.29656   0.61558   0.01267  Uiso   1.00
O14    O     0.94171   0.22791   0.44156   0.01267  Uiso   1.00
O15    O     0.90143   0.37973   0.44498   0.01267  Uiso   1.00
O16    O     0.61372   0.25532   0.66144   0.01267  Uiso   1.00
O17    O     0.29656   0.61558   0.75355   0.01267  Uiso   1.00
O18    O     0.22791   0.44156   0.94171   0.01267  Uiso   1.00
O19    O     0.37973   0.44498   0.90143   0.01267  Uiso   1.00
O20    O     0.25532   0.66144   0.61372   0.01267  Uiso   1.00
O21    O     0.61558   0.75355   0.29656   0.01267  Uiso   1.00
O22    O     0.44156   0.94171   0.22791   0.01267  Uiso   1.00
O23    O     0.44498   0.90143   0.37973   0.01267  Uiso   1.00
O24    O     0.66144   0.61372   0.25532   0.01267  Uiso   1.00
O25    O     0.79656   0.25355   0.11558   0.01267  Uiso   1.00
O26    O     0.72791   0.44171   0.94156   0.01267  Uiso   1.00
O27    O     0.87973   0.40143   0.94498   0.01267  Uiso   1.00
O28    O     0.75532   0.11372   0.16144   0.01267  Uiso   1.00
O29    O     0.11558   0.79656   0.25355   0.01267  Uiso   1.00
O30    O     0.94156   0.72791   0.44171   0.01267  Uiso   1.00
O31    O     0.94498   0.87973   0.40143   0.01267  Uiso   1.00
O32    O     0.16144   0.75532   0.11372   0.01267  Uiso   1.00
O33    O     0.25355   0.11558   0.79656   0.01267  Uiso   1.00
O34    O     0.44171   0.94156   0.72791   0.01267  Uiso   1.00
O35    O     0.40143   0.94498   0.87973   0.01267  Uiso   1.00
O36    O     0.11372   0.16144   0.75532   0.01267  Uiso   1.00
O37    O     0.24645   0.70344   0.38442   0.01267  Uiso   1.00
O38    O     0.05829   0.77209   0.55844   0.01267  Uiso   1.00
O39    O     0.09857   0.62027   0.55502   0.01267  Uiso   1.00
O40    O     0.38628   0.74468   0.33856   0.01267  Uiso   1.00
O41    O     0.70344   0.38442   0.24645   0.01267  Uiso   1.00
O42    O     0.77209   0.55844   0.05829   0.01267  Uiso   1.00
O43    O     0.62027   0.55502   0.09857   0.01267  Uiso   1.00
O44    O     0.74468   0.33856   0.38628   0.01267  Uiso   1.00
O45    O     0.38442   0.24645   0.70344   0.01267  Uiso   1.00
O46    O     0.55844   0.05829   0.77209   0.01267  Uiso   1.00
O47    O     0.55502   0.09857   0.62027   0.01267  Uiso   1.00
O48    O     0.33856   0.38628   0.74468   0.01267  Uiso   1.00
