data_OLURUI01_charged
_audit_creation_date              2014-07-02
_audit_creation_method            'Materials Studio'
_symmetry_space_group_name_H-M    'P1'
_symmetry_Int_Tables_number       1
_symmetry_cell_setting            triclinic
loop_
_symmetry_equiv_pos_as_xyz
  x,y,z
_cell_length_a                    14.9769
_cell_length_b                    14.9769
_cell_length_c                    14.9769
_cell_angle_alpha                 72.5711
_cell_angle_beta                  72.5711
_cell_angle_gamma                 72.5711
loop_
_atom_site_label
_atom_site_type_symbol
_atom_site_fract_x
_atom_site_fract_y
_atom_site_fract_z
_atom_site_U_iso_or_equiv
_atom_site_adp_type
_atom_site_occupancy
In1    In    0.58766   0.25000   0.91234   0.01267  Uiso   1.00
In2    In    0.91234   0.58766   0.25000   0.01267  Uiso   1.00
In3    In    0.25000   0.91234   0.58766   0.01267  Uiso   1.00
In4    In    0.41234   0.75000   0.08766   0.01267  Uiso   1.00
In5    In    0.08766   0.41234   0.75000   0.01267  Uiso   1.00
In6    In    0.75000   0.08766   0.41234   0.01267  Uiso   1.00
H1     H     0.53190   0.49380   0.89330   0.01267  Uiso   1.00
H2     H     0.61070   0.61030   0.86660   0.01267  Uiso   1.00
H3     H     0.89330   0.53190   0.49380   0.01267  Uiso   1.00
H4     H     0.86660   0.61070   0.61030   0.01267  Uiso   1.00
H5     H     0.49380   0.89330   0.53190   0.01267  Uiso   1.00
H6     H     0.61030   0.86660   0.61070   0.01267  Uiso   1.00
H7     H     0.00620   0.96810   0.60670   0.01267  Uiso   1.00
H8     H     0.88970   0.88930   0.63340   0.01267  Uiso   1.00
H9     H     0.96810   0.60670   0.00620   0.01267  Uiso   1.00
H10    H     0.88930   0.63340   0.88970   0.01267  Uiso   1.00
H11    H     0.60670   0.00620   0.96810   0.01267  Uiso   1.00
H12    H     0.63340   0.88970   0.88930   0.01267  Uiso   1.00
H13    H     0.46810   0.50620   0.10670   0.01267  Uiso   1.00
H14    H     0.38930   0.38970   0.13340   0.01267  Uiso   1.00
H15    H     0.10670   0.46810   0.50620   0.01267  Uiso   1.00
H16    H     0.13340   0.38930   0.38970   0.01267  Uiso   1.00
H17    H     0.50620   0.10670   0.46810   0.01267  Uiso   1.00
H18    H     0.38970   0.13340   0.38930   0.01267  Uiso   1.00
H19    H     0.99380   0.03190   0.39330   0.01267  Uiso   1.00
H20    H     0.11030   0.11070   0.36660   0.01267  Uiso   1.00
H21    H     0.03190   0.39330   0.99380   0.01267  Uiso   1.00
H22    H     0.11070   0.36660   0.11030   0.01267  Uiso   1.00
H23    H     0.39330   0.99380   0.03190   0.01267  Uiso   1.00
H24    H     0.36660   0.11030   0.11070   0.01267  Uiso   1.00
C1     C     0.78917   0.44207   0.84157   0.01267  Uiso   1.00
C2     C     0.79508   0.26518   0.86588   0.01267  Uiso   1.00
C3     C     0.74256   0.36856   0.86356   0.01267  Uiso   1.00
C4     C     0.59870   0.47800   0.88130   0.01267  Uiso   1.00
C5     C     0.64660   0.54830   0.86300   0.01267  Uiso   1.00
C6     C     0.89900   0.42810   0.81210   0.01267  Uiso   1.00
C7     C     0.84157   0.78917   0.44207   0.01267  Uiso   1.00
C8     C     0.86588   0.79508   0.26518   0.01267  Uiso   1.00
C9     C     0.86356   0.74256   0.36856   0.01267  Uiso   1.00
C10    C     0.88130   0.59870   0.47800   0.01267  Uiso   1.00
C11    C     0.86300   0.64660   0.54830   0.01267  Uiso   1.00
C12    C     0.81210   0.89900   0.42810   0.01267  Uiso   1.00
C13    C     0.44207   0.84157   0.78917   0.01267  Uiso   1.00
C14    C     0.26518   0.86588   0.79508   0.01267  Uiso   1.00
C15    C     0.36856   0.86356   0.74256   0.01267  Uiso   1.00
C16    C     0.47800   0.88130   0.59870   0.01267  Uiso   1.00
C17    C     0.54830   0.86300   0.64660   0.01267  Uiso   1.00
C18    C     0.42810   0.81210   0.89900   0.01267  Uiso   1.00
C19    C     0.05793   0.71083   0.65843   0.01267  Uiso   1.00
C20    C     0.23482   0.70492   0.63412   0.01267  Uiso   1.00
C21    C     0.13144   0.75744   0.63644   0.01267  Uiso   1.00
C22    C     0.02200   0.90130   0.61870   0.01267  Uiso   1.00
C23    C     0.95170   0.85340   0.63700   0.01267  Uiso   1.00
C24    C     0.07190   0.60100   0.68790   0.01267  Uiso   1.00
C25    C     0.71083   0.65843   0.05793   0.01267  Uiso   1.00
C26    C     0.70492   0.63412   0.23482   0.01267  Uiso   1.00
C27    C     0.75744   0.63644   0.13144   0.01267  Uiso   1.00
C28    C     0.90130   0.61870   0.02200   0.01267  Uiso   1.00
C29    C     0.85340   0.63700   0.95170   0.01267  Uiso   1.00
C30    C     0.60100   0.68790   0.07190   0.01267  Uiso   1.00
C31    C     0.65843   0.05793   0.71083   0.01267  Uiso   1.00
C32    C     0.63412   0.23482   0.70492   0.01267  Uiso   1.00
C33    C     0.63644   0.13144   0.75744   0.01267  Uiso   1.00
C34    C     0.61870   0.02200   0.90130   0.01267  Uiso   1.00
C35    C     0.63700   0.95170   0.85340   0.01267  Uiso   1.00
C36    C     0.68790   0.07190   0.60100   0.01267  Uiso   1.00
C37    C     0.21083   0.55793   0.15843   0.01267  Uiso   1.00
C38    C     0.20492   0.73482   0.13412   0.01267  Uiso   1.00
C39    C     0.25744   0.63144   0.13644   0.01267  Uiso   1.00
C40    C     0.40130   0.52200   0.11870   0.01267  Uiso   1.00
C41    C     0.35340   0.45170   0.13700   0.01267  Uiso   1.00
C42    C     0.10100   0.57190   0.18790   0.01267  Uiso   1.00
C43    C     0.15843   0.21083   0.55793   0.01267  Uiso   1.00
C44    C     0.13412   0.20492   0.73482   0.01267  Uiso   1.00
C45    C     0.13644   0.25744   0.63144   0.01267  Uiso   1.00
C46    C     0.11870   0.40130   0.52200   0.01267  Uiso   1.00
C47    C     0.13700   0.35340   0.45170   0.01267  Uiso   1.00
C48    C     0.18790   0.10100   0.57190   0.01267  Uiso   1.00
C49    C     0.55793   0.15843   0.21083   0.01267  Uiso   1.00
C50    C     0.73482   0.13412   0.20492   0.01267  Uiso   1.00
C51    C     0.63144   0.13644   0.25744   0.01267  Uiso   1.00
C52    C     0.52200   0.11870   0.40130   0.01267  Uiso   1.00
C53    C     0.45170   0.13700   0.35340   0.01267  Uiso   1.00
C54    C     0.57190   0.18790   0.10100   0.01267  Uiso   1.00
C55    C     0.94207   0.28917   0.34157   0.01267  Uiso   1.00
C56    C     0.76518   0.29508   0.36588   0.01267  Uiso   1.00
C57    C     0.86856   0.24256   0.36356   0.01267  Uiso   1.00
C58    C     0.97800   0.09870   0.38130   0.01267  Uiso   1.00
C59    C     0.04830   0.14660   0.36300   0.01267  Uiso   1.00
C60    C     0.92810   0.39900   0.31210   0.01267  Uiso   1.00
C61    C     0.28917   0.34157   0.94207   0.01267  Uiso   1.00
C62    C     0.29508   0.36588   0.76518   0.01267  Uiso   1.00
C63    C     0.24256   0.36356   0.86856   0.01267  Uiso   1.00
C64    C     0.09870   0.38130   0.97800   0.01267  Uiso   1.00
C65    C     0.14660   0.36300   0.04830   0.01267  Uiso   1.00
C66    C     0.39900   0.31210   0.92810   0.01267  Uiso   1.00
C67    C     0.34157   0.94207   0.28917   0.01267  Uiso   1.00
C68    C     0.36588   0.76518   0.29508   0.01267  Uiso   1.00
C69    C     0.36356   0.86856   0.24256   0.01267  Uiso   1.00
C70    C     0.38130   0.97800   0.09870   0.01267  Uiso   1.00
C71    C     0.36300   0.04830   0.14660   0.01267  Uiso   1.00
C72    C     0.31210   0.92810   0.39900   0.01267  Uiso   1.00
N1     N     0.64604   0.38714   0.88234   0.01267  Uiso   1.00
N2     N     0.74081   0.53281   0.84041   0.01267  Uiso   1.00
N3     N     0.88234   0.64604   0.38714   0.01267  Uiso   1.00
N4     N     0.84041   0.74081   0.53281   0.01267  Uiso   1.00
N5     N     0.38714   0.88234   0.64604   0.01267  Uiso   1.00
N6     N     0.53281   0.84041   0.74081   0.01267  Uiso   1.00
N7     N     0.11286   0.85396   0.61766   0.01267  Uiso   1.00
N8     N     0.96719   0.75919   0.65959   0.01267  Uiso   1.00
N9     N     0.85396   0.61766   0.11286   0.01267  Uiso   1.00
N10    N     0.75919   0.65959   0.96719   0.01267  Uiso   1.00
N11    N     0.61766   0.11286   0.85396   0.01267  Uiso   1.00
N12    N     0.65959   0.96719   0.75919   0.01267  Uiso   1.00
N13    N     0.35396   0.61286   0.11766   0.01267  Uiso   1.00
N14    N     0.25919   0.46719   0.15959   0.01267  Uiso   1.00
N15    N     0.11766   0.35396   0.61286   0.01267  Uiso   1.00
N16    N     0.15959   0.25919   0.46719   0.01267  Uiso   1.00
N17    N     0.61286   0.11766   0.35396   0.01267  Uiso   1.00
N18    N     0.46719   0.15959   0.25919   0.01267  Uiso   1.00
N19    N     0.88714   0.14604   0.38234   0.01267  Uiso   1.00
N20    N     0.03281   0.24081   0.34041   0.01267  Uiso   1.00
N21    N     0.14604   0.38234   0.88714   0.01267  Uiso   1.00
N22    N     0.24081   0.34041   0.03281   0.01267  Uiso   1.00
N23    N     0.38234   0.88714   0.14604   0.01267  Uiso   1.00
N24    N     0.34041   0.03281   0.24081   0.01267  Uiso   1.00
O1     O     0.74260   0.20460   0.88960   0.01267  Uiso   1.00
O2     O     0.88343   0.24773   0.84343   0.01267  Uiso   1.00
O3     O     0.94002   0.44032   0.72682   0.01267  Uiso   1.00
O4     O     0.12148   0.05848   0.59138   0.01267  Uiso   1.00
O5     O     0.88960   0.74260   0.20460   0.01267  Uiso   1.00
O6     O     0.84343   0.88343   0.24773   0.01267  Uiso   1.00
O7     O     0.72682   0.94002   0.44032   0.01267  Uiso   1.00
O8     O     0.59138   0.12148   0.05848   0.01267  Uiso   1.00
O9     O     0.20460   0.88960   0.74260   0.01267  Uiso   1.00
O10    O     0.24773   0.84343   0.88343   0.01267  Uiso   1.00
O11    O     0.44032   0.72682   0.94002   0.01267  Uiso   1.00
O12    O     0.05848   0.59138   0.12148   0.01267  Uiso   1.00
O13    O     0.29540   0.75740   0.61040   0.01267  Uiso   1.00
O14    O     0.25227   0.61657   0.65657   0.01267  Uiso   1.00
O15    O     0.05968   0.55998   0.77318   0.01267  Uiso   1.00
O16    O     0.44152   0.37852   0.90862   0.01267  Uiso   1.00
O17    O     0.75740   0.61040   0.29540   0.01267  Uiso   1.00
O18    O     0.61657   0.65657   0.25227   0.01267  Uiso   1.00
O19    O     0.55998   0.77318   0.05968   0.01267  Uiso   1.00
O20    O     0.37852   0.90862   0.44152   0.01267  Uiso   1.00
O21    O     0.61040   0.29540   0.75740   0.01267  Uiso   1.00
O22    O     0.65657   0.25227   0.61657   0.01267  Uiso   1.00
O23    O     0.77318   0.05968   0.55998   0.01267  Uiso   1.00
O24    O     0.90862   0.44152   0.37852   0.01267  Uiso   1.00
O25    O     0.25740   0.79540   0.11040   0.01267  Uiso   1.00
O26    O     0.11657   0.75227   0.15657   0.01267  Uiso   1.00
O27    O     0.05998   0.55968   0.27318   0.01267  Uiso   1.00
O28    O     0.87852   0.94152   0.40862   0.01267  Uiso   1.00
O29    O     0.11040   0.25740   0.79540   0.01267  Uiso   1.00
O30    O     0.15657   0.11657   0.75227   0.01267  Uiso   1.00
O31    O     0.27318   0.05998   0.55968   0.01267  Uiso   1.00
O32    O     0.40862   0.87852   0.94152   0.01267  Uiso   1.00
O33    O     0.79540   0.11040   0.25740   0.01267  Uiso   1.00
O34    O     0.75227   0.15657   0.11657   0.01267  Uiso   1.00
O35    O     0.55968   0.27318   0.05998   0.01267  Uiso   1.00
O36    O     0.94152   0.40862   0.87852   0.01267  Uiso   1.00
O37    O     0.70460   0.24260   0.38960   0.01267  Uiso   1.00
O38    O     0.74773   0.38343   0.34343   0.01267  Uiso   1.00
O39    O     0.94032   0.44002   0.22682   0.01267  Uiso   1.00
O40    O     0.55848   0.62148   0.09138   0.01267  Uiso   1.00
O41    O     0.24260   0.38960   0.70460   0.01267  Uiso   1.00
O42    O     0.38343   0.34343   0.74773   0.01267  Uiso   1.00
O43    O     0.44002   0.22682   0.94032   0.01267  Uiso   1.00
O44    O     0.62148   0.09138   0.55848   0.01267  Uiso   1.00
O45    O     0.38960   0.70460   0.24260   0.01267  Uiso   1.00
O46    O     0.34343   0.74773   0.38343   0.01267  Uiso   1.00
O47    O     0.22682   0.94032   0.44002   0.01267  Uiso   1.00
O48    O     0.09138   0.55848   0.62148   0.01267  Uiso   1.00
