data_image0
_cell_length_a       17.7099
_cell_length_b       17.7099
_cell_length_c       32.977
_cell_angle_alpha    90
_cell_angle_beta     90
_cell_angle_gamma    120

_symmetry_space_group_name_H-M    "P 1"
_symmetry_int_tables_number       1

loop_
  _symmetry_equiv_pos_as_xyz
  'x, y, z'

loop_
  _atom_site_label
  _atom_site_occupancy
  _atom_site_fract_x
  _atom_site_fract_y
  _atom_site_fract_z
  _atom_site_thermal_displace_type
  _atom_site_B_iso_or_equiv
  _atom_site_type_symbol
  C1       1.0000 0.12860  0.75260  0.00858  Biso   1.000  C
  C2       1.0000 0.18230  0.76670  0.97539  Biso   1.000  C
  C3       1.0000 0.15540  0.62770  0.98005  Biso   1.000  C
  H1       1.0000 0.16180  0.58200  0.97010  Biso   1.000  H
  C4       1.0000 0.10300  0.61260  0.01361  Biso   1.000  C
  H2       1.0000 0.07670  0.55830  0.02620  Biso   1.000  H
  C5       1.0000 0.23070  0.85190  0.95310  Biso   1.000  C
  C6       1.0000 0.11050  0.82150  0.02477  Biso   1.000  C
  N1       1.0000 0.08990  0.67550  0.02796  Biso   1.000  N
  N2       1.0000 0.19730  0.70440  0.96121  Biso   1.000  N
  O1       1.0000 0.05791  0.79963  0.05449  Biso   1.000  O
  O2       1.0000 0.30710  0.90400  0.96399  Biso   1.000  O
  O3       1.0000 0.33080  0.19730  0.07638  Biso   1.000  O
  O4       1.0000 0.14710  0.89280  0.00841  Biso   1.000  O
  C7       1.0000 0.79527  0.08593  0.34191  Biso   1.000  C
  C8       1.0000 0.84897  0.10003  0.30872  Biso   1.000  C
  C9       1.0000 0.82207  0.96103  0.31338  Biso   1.000  C
  H3       1.0000 0.82847  0.91533  0.30343  Biso   1.000  H
  C10      1.0000 0.76967  0.94593  0.34694  Biso   1.000  C
  H4       1.0000 0.74337  0.89163  0.35953  Biso   1.000  H
  C11      1.0000 0.89737  0.18523  0.28643  Biso   1.000  C
  C12      1.0000 0.77717  0.15483  0.35810  Biso   1.000  C
  N3       1.0000 0.75657  0.00883  0.36129  Biso   1.000  N
  N4       1.0000 0.86397  0.03773  0.29454  Biso   1.000  N
  O5       1.0000 0.72458  0.13296  0.38782  Biso   1.000  O
  O6       1.0000 0.97377  0.23733  0.29732  Biso   1.000  O
  O7       1.0000 0.99747  0.53063  0.40971  Biso   1.000  O
  O8       1.0000 0.81377  0.22613  0.34174  Biso   1.000  O
  C13      1.0000 0.46193  0.41927  0.67525  Biso   1.000  C
  C14      1.0000 0.51563  0.43337  0.64206  Biso   1.000  C
  C15      1.0000 0.48873  0.29437  0.64672  Biso   1.000  C
  H5       1.0000 0.49513  0.24867  0.63677  Biso   1.000  H
  C16      1.0000 0.43633  0.27927  0.68028  Biso   1.000  C
  H6       1.0000 0.41003  0.22497  0.69287  Biso   1.000  H
  C17      1.0000 0.56403  0.51857  0.61977  Biso   1.000  C
  C18      1.0000 0.44383  0.48817  0.69144  Biso   1.000  C
  N5       1.0000 0.42323  0.34217  0.69463  Biso   1.000  N
  N6       1.0000 0.53063  0.37107  0.62788  Biso   1.000  N
  O9       1.0000 0.39124  0.46630  0.72116  Biso   1.000  O
  O10      1.0000 0.64043  0.57067  0.63066  Biso   1.000  O
  O11      1.0000 0.66413  0.86397  0.74305  Biso   1.000  O
  O12      1.0000 0.48043  0.55947  0.67508  Biso   1.000  O
  C19      1.0000 0.24740  0.37600  0.00858  Biso   1.000  C
  C20      1.0000 0.23330  0.41560  0.97539  Biso   1.000  C
  C21      1.0000 0.37230  0.52770  0.98005  Biso   1.000  C
  H7       1.0000 0.41800  0.57980  0.97010  Biso   1.000  H
  C22      1.0000 0.38740  0.49040  0.01361  Biso   1.000  C
  H8       1.0000 0.44170  0.51840  0.02620  Biso   1.000  H
  C23      1.0000 0.14810  0.37880  0.95310  Biso   1.000  C
  C24      1.0000 0.17850  0.28900  0.02477  Biso   1.000  C
  N7       1.0000 0.32450  0.41440  0.02796  Biso   1.000  N
  N8       1.0000 0.29560  0.49290  0.96121  Biso   1.000  N
  O13      1.0000 0.20037  0.25828  0.05449  Biso   1.000  O
  O14      1.0000 0.09600  0.40310  0.96399  Biso   1.000  O
  O15      1.0000 0.80270  0.13350  0.07638  Biso   1.000  O
  O16      1.0000 0.10720  0.25430  0.00841  Biso   1.000  O
  C25      1.0000 0.91407  0.70933  0.34191  Biso   1.000  C
  C26      1.0000 0.89997  0.74893  0.30872  Biso   1.000  C
  C27      1.0000 0.03897  0.86103  0.31338  Biso   1.000  C
  H9       1.0000 0.08467  0.91313  0.30343  Biso   1.000  H
  C28      1.0000 0.05407  0.82373  0.34694  Biso   1.000  C
  H10      1.0000 0.10837  0.85173  0.35953  Biso   1.000  H
  C29      1.0000 0.81477  0.71213  0.28643  Biso   1.000  C
  C30      1.0000 0.84517  0.62233  0.35810  Biso   1.000  C
  N9       1.0000 0.99117  0.74773  0.36129  Biso   1.000  N
  N10      1.0000 0.96227  0.82623  0.29454  Biso   1.000  N
  O17      1.0000 0.86704  0.59161  0.38782  Biso   1.000  O
  O18      1.0000 0.76267  0.73643  0.29732  Biso   1.000  O
  O19      1.0000 0.46937  0.46683  0.40971  Biso   1.000  O
  O20      1.0000 0.77387  0.58763  0.34174  Biso   1.000  O
  C31      1.0000 0.58073  0.04267  0.67525  Biso   1.000  C
  C32      1.0000 0.56663  0.08227  0.64206  Biso   1.000  C
  C33      1.0000 0.70563  0.19437  0.64672  Biso   1.000  C
  H11      1.0000 0.75133  0.24647  0.63677  Biso   1.000  H
  C34      1.0000 0.72073  0.15707  0.68028  Biso   1.000  C
  H12      1.0000 0.77503  0.18507  0.69287  Biso   1.000  H
  C35      1.0000 0.48143  0.04547  0.61977  Biso   1.000  C
  C36      1.0000 0.51183  0.95567  0.69144  Biso   1.000  C
  N11      1.0000 0.65783  0.08107  0.69463  Biso   1.000  N
  N12      1.0000 0.62893  0.15957  0.62788  Biso   1.000  N
  O21      1.0000 0.53370  0.92495  0.72116  Biso   1.000  O
  O22      1.0000 0.42933  0.06977  0.63066  Biso   1.000  O
  O23      1.0000 0.13603  0.80017  0.74305  Biso   1.000  O
  O24      1.0000 0.44053  0.92097  0.67508  Biso   1.000  O
  C37      1.0000 0.62400  0.87140  0.00858  Biso   1.000  C
  C38      1.0000 0.58440  0.81770  0.97539  Biso   1.000  C
  C39      1.0000 0.47230  0.84460  0.98005  Biso   1.000  C
  H13      1.0000 0.42020  0.83820  0.97010  Biso   1.000  H
  C40      1.0000 0.50960  0.89700  0.01361  Biso   1.000  C
  H14      1.0000 0.48160  0.92330  0.02620  Biso   1.000  H
  C41      1.0000 0.62120  0.76930  0.95310  Biso   1.000  C
  C42      1.0000 0.71100  0.88950  0.02477  Biso   1.000  C
  N13      1.0000 0.58560  0.91010  0.02796  Biso   1.000  N
  N14      1.0000 0.50710  0.80270  0.96121  Biso   1.000  N
  O25      1.0000 0.74172  0.94209  0.05449  Biso   1.000  O
  O26      1.0000 0.59690  0.69290  0.96399  Biso   1.000  O
  O27      1.0000 0.86650  0.66920  0.07638  Biso   1.000  O
  O28      1.0000 0.74570  0.85290  0.00841  Biso   1.000  O
  C43      1.0000 0.29067  0.20473  0.34191  Biso   1.000  C
  C44      1.0000 0.25107  0.15103  0.30872  Biso   1.000  C
  C45      1.0000 0.13897  0.17793  0.31338  Biso   1.000  C
  H15      1.0000 0.08687  0.17153  0.30343  Biso   1.000  H
  C46      1.0000 0.17627  0.23033  0.34694  Biso   1.000  C
  H16      1.0000 0.14827  0.25663  0.35953  Biso   1.000  H
  C47      1.0000 0.28787  0.10263  0.28643  Biso   1.000  C
  C48      1.0000 0.37767  0.22283  0.35810  Biso   1.000  C
  N15      1.0000 0.25227  0.24343  0.36129  Biso   1.000  N
  N16      1.0000 0.17377  0.13603  0.29454  Biso   1.000  N
  O29      1.0000 0.40839  0.27542  0.38782  Biso   1.000  O
  O30      1.0000 0.26357  0.02623  0.29732  Biso   1.000  O
  O31      1.0000 0.53317  0.00253  0.40971  Biso   1.000  O
  O32      1.0000 0.41237  0.18623  0.34174  Biso   1.000  O
  C49      1.0000 0.95733  0.53807  0.67525  Biso   1.000  C
  C50      1.0000 0.91773  0.48437  0.64206  Biso   1.000  C
  C51      1.0000 0.80563  0.51127  0.64672  Biso   1.000  C
  H17      1.0000 0.75353  0.50487  0.63677  Biso   1.000  H
  C52      1.0000 0.84293  0.56367  0.68028  Biso   1.000  C
  H18      1.0000 0.81493  0.58997  0.69287  Biso   1.000  H
  C53      1.0000 0.95453  0.43597  0.61977  Biso   1.000  C
  C54      1.0000 0.04433  0.55617  0.69144  Biso   1.000  C
  N17      1.0000 0.91893  0.57677  0.69463  Biso   1.000  N
  N18      1.0000 0.84043  0.46937  0.62788  Biso   1.000  N
  O33      1.0000 0.07505  0.60876  0.72116  Biso   1.000  O
  O34      1.0000 0.93023  0.35957  0.63066  Biso   1.000  O
  O35      1.0000 0.19983  0.33587  0.74305  Biso   1.000  O
  O36      1.0000 0.07903  0.51957  0.67508  Biso   1.000  O
  C55      1.0000 0.75260  0.12860  0.49142  Biso   1.000  C
  C56      1.0000 0.76670  0.18230  0.52461  Biso   1.000  C
  C57      1.0000 0.62770  0.15540  0.51995  Biso   1.000  C
  H19      1.0000 0.58200  0.16180  0.52990  Biso   1.000  H
  C58      1.0000 0.61260  0.10300  0.48639  Biso   1.000  C
  H20      1.0000 0.55830  0.07670  0.47380  Biso   1.000  H
  C59      1.0000 0.85190  0.23070  0.54690  Biso   1.000  C
  C60      1.0000 0.82150  0.11050  0.47523  Biso   1.000  C
  N19      1.0000 0.67550  0.08990  0.47204  Biso   1.000  N
  N20      1.0000 0.70440  0.19730  0.53879  Biso   1.000  N
  O37      1.0000 0.79963  0.05791  0.44551  Biso   1.000  O
  O38      1.0000 0.90400  0.30710  0.53601  Biso   1.000  O
  O39      1.0000 0.19730  0.33080  0.42362  Biso   1.000  O
  O40      1.0000 0.89280  0.14710  0.49159  Biso   1.000  O
  C61      1.0000 0.41927  0.46193  0.82475  Biso   1.000  C
  C62      1.0000 0.43337  0.51563  0.85794  Biso   1.000  C
  C63      1.0000 0.29437  0.48873  0.85328  Biso   1.000  C
  H21      1.0000 0.24867  0.49513  0.86323  Biso   1.000  H
  C64      1.0000 0.27927  0.43633  0.81972  Biso   1.000  C
  H22      1.0000 0.22497  0.41003  0.80713  Biso   1.000  H
  C65      1.0000 0.51857  0.56403  0.88023  Biso   1.000  C
  C66      1.0000 0.48817  0.44383  0.80856  Biso   1.000  C
  N21      1.0000 0.34217  0.42323  0.80537  Biso   1.000  N
  N22      1.0000 0.37107  0.53063  0.87212  Biso   1.000  N
  O41      1.0000 0.46630  0.39124  0.77884  Biso   1.000  O
  O42      1.0000 0.57067  0.64043  0.86934  Biso   1.000  O
  O43      1.0000 0.86397  0.66413  0.75695  Biso   1.000  O
  O44      1.0000 0.55947  0.48043  0.82492  Biso   1.000  O
  C67      1.0000 0.08593  0.79527  0.15809  Biso   1.000  C
  C68      1.0000 0.10003  0.84897  0.19128  Biso   1.000  C
  C69      1.0000 0.96103  0.82207  0.18662  Biso   1.000  C
  H23      1.0000 0.91533  0.82847  0.19657  Biso   1.000  H
  C70      1.0000 0.94593  0.76967  0.15306  Biso   1.000  C
  H24      1.0000 0.89163  0.74337  0.14047  Biso   1.000  H
  C71      1.0000 0.18523  0.89737  0.21357  Biso   1.000  C
  C72      1.0000 0.15483  0.77717  0.14190  Biso   1.000  C
  N23      1.0000 0.00883  0.75657  0.13871  Biso   1.000  N
  N24      1.0000 0.03773  0.86397  0.20546  Biso   1.000  N
  O45      1.0000 0.13296  0.72458  0.11218  Biso   1.000  O
  O46      1.0000 0.23733  0.97377  0.20268  Biso   1.000  O
  O47      1.0000 0.53063  0.99747  0.09029  Biso   1.000  O
  O48      1.0000 0.22613  0.81377  0.15826  Biso   1.000  O
  C73      1.0000 0.37600  0.24740  0.49142  Biso   1.000  C
  C74      1.0000 0.41560  0.23330  0.52461  Biso   1.000  C
  C75      1.0000 0.52770  0.37230  0.51995  Biso   1.000  C
  H25      1.0000 0.57980  0.41800  0.52990  Biso   1.000  H
  C76      1.0000 0.49040  0.38740  0.48639  Biso   1.000  C
  H26      1.0000 0.51840  0.44170  0.47380  Biso   1.000  H
  C77      1.0000 0.37880  0.14810  0.54690  Biso   1.000  C
  C78      1.0000 0.28900  0.17850  0.47523  Biso   1.000  C
  N25      1.0000 0.41440  0.32450  0.47204  Biso   1.000  N
  N26      1.0000 0.49290  0.29560  0.53879  Biso   1.000  N
  O49      1.0000 0.25828  0.20037  0.44551  Biso   1.000  O
  O50      1.0000 0.40310  0.09600  0.53601  Biso   1.000  O
  O51      1.0000 0.13350  0.80270  0.42362  Biso   1.000  O
  O52      1.0000 0.25430  0.10720  0.49159  Biso   1.000  O
  C79      1.0000 0.04267  0.58073  0.82475  Biso   1.000  C
  C80      1.0000 0.08227  0.56663  0.85794  Biso   1.000  C
  C81      1.0000 0.19437  0.70563  0.85328  Biso   1.000  C
  H27      1.0000 0.24647  0.75133  0.86323  Biso   1.000  H
  C82      1.0000 0.15707  0.72073  0.81972  Biso   1.000  C
  H28      1.0000 0.18507  0.77503  0.80713  Biso   1.000  H
  C83      1.0000 0.04547  0.48143  0.88023  Biso   1.000  C
  C84      1.0000 0.95567  0.51183  0.80856  Biso   1.000  C
  N27      1.0000 0.08107  0.65783  0.80537  Biso   1.000  N
  N28      1.0000 0.15957  0.62893  0.87212  Biso   1.000  N
  O53      1.0000 0.92495  0.53370  0.77884  Biso   1.000  O
  O54      1.0000 0.06977  0.42933  0.86934  Biso   1.000  O
  O55      1.0000 0.80017  0.13603  0.75695  Biso   1.000  O
  O56      1.0000 0.92097  0.44053  0.82492  Biso   1.000  O
  C85      1.0000 0.70933  0.91407  0.15809  Biso   1.000  C
  C86      1.0000 0.74893  0.89997  0.19128  Biso   1.000  C
  C87      1.0000 0.86103  0.03897  0.18662  Biso   1.000  C
  H29      1.0000 0.91313  0.08467  0.19657  Biso   1.000  H
  C88      1.0000 0.82373  0.05407  0.15306  Biso   1.000  C
  H30      1.0000 0.85173  0.10837  0.14047  Biso   1.000  H
  C89      1.0000 0.71213  0.81477  0.21357  Biso   1.000  C
  C90      1.0000 0.62233  0.84517  0.14190  Biso   1.000  C
  N29      1.0000 0.74773  0.99117  0.13871  Biso   1.000  N
  N30      1.0000 0.82623  0.96227  0.20546  Biso   1.000  N
  O57      1.0000 0.59161  0.86704  0.11218  Biso   1.000  O
  O58      1.0000 0.73643  0.76267  0.20268  Biso   1.000  O
  O59      1.0000 0.46683  0.46937  0.09029  Biso   1.000  O
  O60      1.0000 0.58763  0.77387  0.15826  Biso   1.000  O
  C91      1.0000 0.87140  0.62400  0.49142  Biso   1.000  C
  C92      1.0000 0.81770  0.58440  0.52461  Biso   1.000  C
  C93      1.0000 0.84460  0.47230  0.51995  Biso   1.000  C
  H31      1.0000 0.83820  0.42020  0.52990  Biso   1.000  H
  C94      1.0000 0.89700  0.50960  0.48639  Biso   1.000  C
  H32      1.0000 0.92330  0.48160  0.47380  Biso   1.000  H
  C95      1.0000 0.76930  0.62120  0.54690  Biso   1.000  C
  C96      1.0000 0.88950  0.71100  0.47523  Biso   1.000  C
  N31      1.0000 0.91010  0.58560  0.47204  Biso   1.000  N
  N32      1.0000 0.80270  0.50710  0.53879  Biso   1.000  N
  O61      1.0000 0.94209  0.74172  0.44551  Biso   1.000  O
  O62      1.0000 0.69290  0.59690  0.53601  Biso   1.000  O
  O63      1.0000 0.66920  0.86650  0.42362  Biso   1.000  O
  O64      1.0000 0.85290  0.74570  0.49159  Biso   1.000  O
  C97      1.0000 0.53807  0.95733  0.82475  Biso   1.000  C
  C98      1.0000 0.48437  0.91773  0.85794  Biso   1.000  C
  C99      1.0000 0.51127  0.80563  0.85328  Biso   1.000  C
  H33      1.0000 0.50487  0.75353  0.86323  Biso   1.000  H
  C100     1.0000 0.56367  0.84293  0.81972  Biso   1.000  C
  H34      1.0000 0.58997  0.81493  0.80713  Biso   1.000  H
  C101     1.0000 0.43597  0.95453  0.88023  Biso   1.000  C
  C102     1.0000 0.55617  0.04433  0.80856  Biso   1.000  C
  N33      1.0000 0.57677  0.91893  0.80537  Biso   1.000  N
  N34      1.0000 0.46937  0.84043  0.87212  Biso   1.000  N
  O65      1.0000 0.60876  0.07505  0.77884  Biso   1.000  O
  O66      1.0000 0.35957  0.93023  0.86934  Biso   1.000  O
  O67      1.0000 0.33587  0.19983  0.75695  Biso   1.000  O
  O68      1.0000 0.51957  0.07903  0.82492  Biso   1.000  O
  C103     1.0000 0.20473  0.29067  0.15809  Biso   1.000  C
  C104     1.0000 0.15103  0.25107  0.19128  Biso   1.000  C
  C105     1.0000 0.17793  0.13897  0.18662  Biso   1.000  C
  H35      1.0000 0.17153  0.08687  0.19657  Biso   1.000  H
  C106     1.0000 0.23033  0.17627  0.15306  Biso   1.000  C
  H36      1.0000 0.25663  0.14827  0.14047  Biso   1.000  H
  C107     1.0000 0.10263  0.28787  0.21357  Biso   1.000  C
  C108     1.0000 0.22283  0.37767  0.14190  Biso   1.000  C
  N35      1.0000 0.24343  0.25227  0.13871  Biso   1.000  N
  N36      1.0000 0.13603  0.17377  0.20546  Biso   1.000  N
  O69      1.0000 0.27542  0.40839  0.11218  Biso   1.000  O
  O70      1.0000 0.02623  0.26357  0.20268  Biso   1.000  O
  O71      1.0000 0.00253  0.53317  0.09029  Biso   1.000  O
  O72      1.0000 0.18623  0.41237  0.15826  Biso   1.000  O
  C109     1.0000 0.87140  0.24740  0.99142  Biso   1.000  C
  C110     1.0000 0.81770  0.23330  0.02461  Biso   1.000  C
  C111     1.0000 0.84460  0.37230  0.01995  Biso   1.000  C
  H37      1.0000 0.83820  0.41800  0.02990  Biso   1.000  H
  C112     1.0000 0.89700  0.38740  0.98639  Biso   1.000  C
  H38      1.0000 0.92330  0.44170  0.97380  Biso   1.000  H
  C113     1.0000 0.76930  0.14810  0.04690  Biso   1.000  C
  C114     1.0000 0.88950  0.17850  0.97523  Biso   1.000  C
  N37      1.0000 0.91010  0.32450  0.97204  Biso   1.000  N
  N38      1.0000 0.80270  0.29560  0.03879  Biso   1.000  N
  O73      1.0000 0.94209  0.20037  0.94551  Biso   1.000  O
  O74      1.0000 0.69290  0.09600  0.03601  Biso   1.000  O
  O75      1.0000 0.66920  0.80270  0.92362  Biso   1.000  O
  O76      1.0000 0.85290  0.10720  0.99159  Biso   1.000  O
  C115     1.0000 0.53807  0.58073  0.32475  Biso   1.000  C
  C116     1.0000 0.48437  0.56663  0.35794  Biso   1.000  C
  C117     1.0000 0.51127  0.70563  0.35328  Biso   1.000  C
  H39      1.0000 0.50487  0.75133  0.36323  Biso   1.000  H
  C118     1.0000 0.56367  0.72073  0.31972  Biso   1.000  C
  H40      1.0000 0.58997  0.77503  0.30713  Biso   1.000  H
  C119     1.0000 0.43597  0.48143  0.38023  Biso   1.000  C
  C120     1.0000 0.55617  0.51183  0.30856  Biso   1.000  C
  N39      1.0000 0.57677  0.65783  0.30537  Biso   1.000  N
  N40      1.0000 0.46937  0.62893  0.37212  Biso   1.000  N
  O77      1.0000 0.60876  0.53370  0.27884  Biso   1.000  O
  O78      1.0000 0.35957  0.42933  0.36934  Biso   1.000  O
  O79      1.0000 0.33587  0.13603  0.25695  Biso   1.000  O
  O80      1.0000 0.51957  0.44053  0.32492  Biso   1.000  O
  C121     1.0000 0.20473  0.91407  0.65809  Biso   1.000  C
  C122     1.0000 0.15103  0.89997  0.69128  Biso   1.000  C
  C123     1.0000 0.17793  0.03897  0.68662  Biso   1.000  C
  H41      1.0000 0.17153  0.08467  0.69657  Biso   1.000  H
  C124     1.0000 0.23033  0.05407  0.65306  Biso   1.000  C
  H42      1.0000 0.25663  0.10837  0.64047  Biso   1.000  H
  C125     1.0000 0.10263  0.81477  0.71357  Biso   1.000  C
  C126     1.0000 0.22283  0.84517  0.64190  Biso   1.000  C
  N41      1.0000 0.24343  0.99117  0.63871  Biso   1.000  N
  N42      1.0000 0.13603  0.96227  0.70546  Biso   1.000  N
  O81      1.0000 0.27542  0.86704  0.61218  Biso   1.000  O
  O82      1.0000 0.02623  0.76267  0.70268  Biso   1.000  O
  O83      1.0000 0.00253  0.46937  0.59029  Biso   1.000  O
  O84      1.0000 0.18623  0.77387  0.65826  Biso   1.000  O
  C127     1.0000 0.75260  0.62400  0.99142  Biso   1.000  C
  C128     1.0000 0.76670  0.58440  0.02461  Biso   1.000  C
  C129     1.0000 0.62770  0.47230  0.01995  Biso   1.000  C
  H43      1.0000 0.58200  0.42020  0.02990  Biso   1.000  H
  C130     1.0000 0.61260  0.50960  0.98639  Biso   1.000  C
  H44      1.0000 0.55830  0.48160  0.97380  Biso   1.000  H
  C131     1.0000 0.85190  0.62120  0.04690  Biso   1.000  C
  C132     1.0000 0.82150  0.71100  0.97523  Biso   1.000  C
  N43      1.0000 0.67550  0.58560  0.97204  Biso   1.000  N
  N44      1.0000 0.70440  0.50710  0.03879  Biso   1.000  N
  O85      1.0000 0.79963  0.74172  0.94551  Biso   1.000  O
  O86      1.0000 0.90400  0.59690  0.03601  Biso   1.000  O
  O87      1.0000 0.19730  0.86650  0.92362  Biso   1.000  O
  O88      1.0000 0.89280  0.74570  0.99159  Biso   1.000  O
  C133     1.0000 0.41927  0.95733  0.32475  Biso   1.000  C
  C134     1.0000 0.43337  0.91773  0.35794  Biso   1.000  C
  C135     1.0000 0.29437  0.80563  0.35328  Biso   1.000  C
  H45      1.0000 0.24867  0.75353  0.36323  Biso   1.000  H
  C136     1.0000 0.27927  0.84293  0.31972  Biso   1.000  C
  H46      1.0000 0.22497  0.81493  0.30713  Biso   1.000  H
  C137     1.0000 0.51857  0.95453  0.38023  Biso   1.000  C
  C138     1.0000 0.48817  0.04433  0.30856  Biso   1.000  C
  N45      1.0000 0.34217  0.91893  0.30537  Biso   1.000  N
  N46      1.0000 0.37107  0.84043  0.37212  Biso   1.000  N
  O89      1.0000 0.46630  0.07505  0.27884  Biso   1.000  O
  O90      1.0000 0.57067  0.93023  0.36934  Biso   1.000  O
  O91      1.0000 0.86397  0.19983  0.25695  Biso   1.000  O
  O92      1.0000 0.55947  0.07903  0.32492  Biso   1.000  O
  C139     1.0000 0.08593  0.29067  0.65809  Biso   1.000  C
  C140     1.0000 0.10003  0.25107  0.69128  Biso   1.000  C
  C141     1.0000 0.96103  0.13897  0.68662  Biso   1.000  C
  H47      1.0000 0.91533  0.08687  0.69657  Biso   1.000  H
  C142     1.0000 0.94593  0.17627  0.65306  Biso   1.000  C
  H48      1.0000 0.89163  0.14827  0.64047  Biso   1.000  H
  C143     1.0000 0.18523  0.28787  0.71357  Biso   1.000  C
  C144     1.0000 0.15483  0.37767  0.64190  Biso   1.000  C
  N47      1.0000 0.00883  0.25227  0.63871  Biso   1.000  N
  N48      1.0000 0.03773  0.17377  0.70546  Biso   1.000  N
  O93      1.0000 0.13296  0.40839  0.61218  Biso   1.000  O
  O94      1.0000 0.23733  0.26357  0.70268  Biso   1.000  O
  O95      1.0000 0.53063  0.53317  0.59029  Biso   1.000  O
  O96      1.0000 0.22613  0.41237  0.65826  Biso   1.000  O
  C145     1.0000 0.37600  0.12860  0.99142  Biso   1.000  C
  C146     1.0000 0.41560  0.18230  0.02461  Biso   1.000  C
  C147     1.0000 0.52770  0.15540  0.01995  Biso   1.000  C
  H49      1.0000 0.57980  0.16180  0.02990  Biso   1.000  H
  C148     1.0000 0.49040  0.10300  0.98639  Biso   1.000  C
  H50      1.0000 0.51840  0.07670  0.97380  Biso   1.000  H
  C149     1.0000 0.37880  0.23070  0.04690  Biso   1.000  C
  C150     1.0000 0.28900  0.11050  0.97523  Biso   1.000  C
  N49      1.0000 0.41440  0.08990  0.97204  Biso   1.000  N
  N50      1.0000 0.49290  0.19730  0.03879  Biso   1.000  N
  O97      1.0000 0.25828  0.05791  0.94551  Biso   1.000  O
  O98      1.0000 0.40310  0.30710  0.03601  Biso   1.000  O
  O99      1.0000 0.13350  0.33080  0.92362  Biso   1.000  O
  O100     1.0000 0.25430  0.14710  0.99159  Biso   1.000  O
  C151     1.0000 0.04267  0.46193  0.32475  Biso   1.000  C
  C152     1.0000 0.08227  0.51563  0.35794  Biso   1.000  C
  C153     1.0000 0.19437  0.48873  0.35328  Biso   1.000  C
  H51      1.0000 0.24647  0.49513  0.36323  Biso   1.000  H
  C154     1.0000 0.15707  0.43633  0.31972  Biso   1.000  C
  H52      1.0000 0.18507  0.41003  0.30713  Biso   1.000  H
  C155     1.0000 0.04547  0.56403  0.38023  Biso   1.000  C
  C156     1.0000 0.95567  0.44383  0.30856  Biso   1.000  C
  N51      1.0000 0.08107  0.42323  0.30537  Biso   1.000  N
  N52      1.0000 0.15957  0.53063  0.37212  Biso   1.000  N
  O101     1.0000 0.92495  0.39124  0.27884  Biso   1.000  O
  O102     1.0000 0.06977  0.64043  0.36934  Biso   1.000  O
  O103     1.0000 0.80017  0.66413  0.25695  Biso   1.000  O
  O104     1.0000 0.92097  0.48043  0.32492  Biso   1.000  O
  C157     1.0000 0.70933  0.79527  0.65809  Biso   1.000  C
  C158     1.0000 0.74893  0.84897  0.69128  Biso   1.000  C
  C159     1.0000 0.86103  0.82207  0.68662  Biso   1.000  C
  H53      1.0000 0.91313  0.82847  0.69657  Biso   1.000  H
  C160     1.0000 0.82373  0.76967  0.65306  Biso   1.000  C
  H54      1.0000 0.85173  0.74337  0.64047  Biso   1.000  H
  C161     1.0000 0.71213  0.89737  0.71357  Biso   1.000  C
  C162     1.0000 0.62233  0.77717  0.64190  Biso   1.000  C
  N53      1.0000 0.74773  0.75657  0.63871  Biso   1.000  N
  N54      1.0000 0.82623  0.86397  0.70546  Biso   1.000  N
  O105     1.0000 0.59161  0.72458  0.61218  Biso   1.000  O
  O106     1.0000 0.73643  0.97377  0.70268  Biso   1.000  O
  O107     1.0000 0.46683  0.99747  0.59029  Biso   1.000  O
  O108     1.0000 0.58763  0.81377  0.65826  Biso   1.000  O
  C163     1.0000 0.24740  0.87140  0.50858  Biso   1.000  C
  C164     1.0000 0.23330  0.81770  0.47539  Biso   1.000  C
  C165     1.0000 0.37230  0.84460  0.48005  Biso   1.000  C
  H55      1.0000 0.41800  0.83820  0.47010  Biso   1.000  H
  C166     1.0000 0.38740  0.89700  0.51361  Biso   1.000  C
  H56      1.0000 0.44170  0.92330  0.52620  Biso   1.000  H
  C167     1.0000 0.14810  0.76930  0.45310  Biso   1.000  C
  C168     1.0000 0.17850  0.88950  0.52477  Biso   1.000  C
  N55      1.0000 0.32450  0.91010  0.52796  Biso   1.000  N
  N56      1.0000 0.29560  0.80270  0.46121  Biso   1.000  N
  O109     1.0000 0.20037  0.94209  0.55449  Biso   1.000  O
  O110     1.0000 0.09600  0.69290  0.46399  Biso   1.000  O
  O111     1.0000 0.80270  0.66920  0.57638  Biso   1.000  O
  O112     1.0000 0.10720  0.85290  0.50841  Biso   1.000  O
  C169     1.0000 0.91407  0.20473  0.84191  Biso   1.000  C
  C170     1.0000 0.89997  0.15103  0.80872  Biso   1.000  C
  C171     1.0000 0.03897  0.17793  0.81338  Biso   1.000  C
  H57      1.0000 0.08467  0.17153  0.80343  Biso   1.000  H
  C172     1.0000 0.05407  0.23033  0.84694  Biso   1.000  C
  H58      1.0000 0.10837  0.25663  0.85953  Biso   1.000  H
  C173     1.0000 0.81477  0.10263  0.78643  Biso   1.000  C
  C174     1.0000 0.84517  0.22283  0.85810  Biso   1.000  C
  N57      1.0000 0.99117  0.24343  0.86129  Biso   1.000  N
  N58      1.0000 0.96227  0.13603  0.79454  Biso   1.000  N
  O113     1.0000 0.86704  0.27542  0.88782  Biso   1.000  O
  O114     1.0000 0.76267  0.02623  0.79732  Biso   1.000  O
  O115     1.0000 0.46937  0.00253  0.90971  Biso   1.000  O
  O116     1.0000 0.77387  0.18623  0.84174  Biso   1.000  O
  C175     1.0000 0.58073  0.53807  0.17525  Biso   1.000  C
  C176     1.0000 0.56663  0.48437  0.14206  Biso   1.000  C
  C177     1.0000 0.70563  0.51127  0.14672  Biso   1.000  C
  H59      1.0000 0.75133  0.50487  0.13677  Biso   1.000  H
  C178     1.0000 0.72073  0.56367  0.18028  Biso   1.000  C
  H60      1.0000 0.77503  0.58997  0.19287  Biso   1.000  H
  C179     1.0000 0.48143  0.43597  0.11977  Biso   1.000  C
  C180     1.0000 0.51183  0.55617  0.19144  Biso   1.000  C
  N59      1.0000 0.65783  0.57677  0.19463  Biso   1.000  N
  N60      1.0000 0.62893  0.46937  0.12788  Biso   1.000  N
  O117     1.0000 0.53370  0.60876  0.22116  Biso   1.000  O
  O118     1.0000 0.42933  0.35957  0.13066  Biso   1.000  O
  O119     1.0000 0.13603  0.33587  0.24305  Biso   1.000  O
  O120     1.0000 0.44053  0.51957  0.17508  Biso   1.000  O
  C181     1.0000 0.62400  0.75260  0.50858  Biso   1.000  C
  C182     1.0000 0.58440  0.76670  0.47539  Biso   1.000  C
  C183     1.0000 0.47230  0.62770  0.48005  Biso   1.000  C
  H61      1.0000 0.42020  0.58200  0.47010  Biso   1.000  H
  C184     1.0000 0.50960  0.61260  0.51361  Biso   1.000  C
  H62      1.0000 0.48160  0.55830  0.52620  Biso   1.000  H
  C185     1.0000 0.62120  0.85190  0.45310  Biso   1.000  C
  C186     1.0000 0.71100  0.82150  0.52477  Biso   1.000  C
  N61      1.0000 0.58560  0.67550  0.52796  Biso   1.000  N
  N62      1.0000 0.50710  0.70440  0.46121  Biso   1.000  N
  O121     1.0000 0.74172  0.79963  0.55449  Biso   1.000  O
  O122     1.0000 0.59690  0.90400  0.46399  Biso   1.000  O
  O123     1.0000 0.86650  0.19730  0.57638  Biso   1.000  O
  O124     1.0000 0.74570  0.89280  0.50841  Biso   1.000  O
  C187     1.0000 0.29067  0.08593  0.84191  Biso   1.000  C
  C188     1.0000 0.25107  0.10003  0.80872  Biso   1.000  C
  C189     1.0000 0.13897  0.96103  0.81338  Biso   1.000  C
  H63      1.0000 0.08687  0.91533  0.80343  Biso   1.000  H
  C190     1.0000 0.17627  0.94593  0.84694  Biso   1.000  C
  H64      1.0000 0.14827  0.89163  0.85953  Biso   1.000  H
  C191     1.0000 0.28787  0.18523  0.78643  Biso   1.000  C
  C192     1.0000 0.37767  0.15483  0.85810  Biso   1.000  C
  N63      1.0000 0.25227  0.00883  0.86129  Biso   1.000  N
  N64      1.0000 0.17377  0.03773  0.79454  Biso   1.000  N
  O125     1.0000 0.40839  0.13296  0.88782  Biso   1.000  O
  O126     1.0000 0.26357  0.23733  0.79732  Biso   1.000  O
  O127     1.0000 0.53317  0.53063  0.90971  Biso   1.000  O
  O128     1.0000 0.41237  0.22613  0.84174  Biso   1.000  O
  C193     1.0000 0.95733  0.41927  0.17525  Biso   1.000  C
  C194     1.0000 0.91773  0.43337  0.14206  Biso   1.000  C
  C195     1.0000 0.80563  0.29437  0.14672  Biso   1.000  C
  H65      1.0000 0.75353  0.24867  0.13677  Biso   1.000  H
  C196     1.0000 0.84293  0.27927  0.18028  Biso   1.000  C
  H66      1.0000 0.81493  0.22497  0.19287  Biso   1.000  H
  C197     1.0000 0.95453  0.51857  0.11977  Biso   1.000  C
  C198     1.0000 0.04433  0.48817  0.19144  Biso   1.000  C
  N65      1.0000 0.91893  0.34217  0.19463  Biso   1.000  N
  N66      1.0000 0.84043  0.37107  0.12788  Biso   1.000  N
  O129     1.0000 0.07505  0.46630  0.22116  Biso   1.000  O
  O130     1.0000 0.93023  0.57067  0.13066  Biso   1.000  O
  O131     1.0000 0.19983  0.86397  0.24305  Biso   1.000  O
  O132     1.0000 0.07903  0.55947  0.17508  Biso   1.000  O
  C199     1.0000 0.12860  0.37600  0.50858  Biso   1.000  C
  C200     1.0000 0.18230  0.41560  0.47539  Biso   1.000  C
  C201     1.0000 0.15540  0.52770  0.48005  Biso   1.000  C
  H67      1.0000 0.16180  0.57980  0.47010  Biso   1.000  H
  C202     1.0000 0.10300  0.49040  0.51361  Biso   1.000  C
  H68      1.0000 0.07670  0.51840  0.52620  Biso   1.000  H
  C203     1.0000 0.23070  0.37880  0.45310  Biso   1.000  C
  C204     1.0000 0.11050  0.28900  0.52477  Biso   1.000  C
  N67      1.0000 0.08990  0.41440  0.52796  Biso   1.000  N
  N68      1.0000 0.19730  0.49290  0.46121  Biso   1.000  N
  O133     1.0000 0.05791  0.25828  0.55449  Biso   1.000  O
  O134     1.0000 0.30710  0.40310  0.46399  Biso   1.000  O
  O135     1.0000 0.33080  0.13350  0.57638  Biso   1.000  O
  O136     1.0000 0.14710  0.25430  0.50841  Biso   1.000  O
  C205     1.0000 0.79527  0.70933  0.84191  Biso   1.000  C
  C206     1.0000 0.84897  0.74893  0.80872  Biso   1.000  C
  C207     1.0000 0.82207  0.86103  0.81338  Biso   1.000  C
  H69      1.0000 0.82847  0.91313  0.80343  Biso   1.000  H
  C208     1.0000 0.76967  0.82373  0.84694  Biso   1.000  C
  H70      1.0000 0.74337  0.85173  0.85953  Biso   1.000  H
  C209     1.0000 0.89737  0.71213  0.78643  Biso   1.000  C
  C210     1.0000 0.77717  0.62233  0.85810  Biso   1.000  C
  N69      1.0000 0.75657  0.74773  0.86129  Biso   1.000  N
  N70      1.0000 0.86397  0.82623  0.79454  Biso   1.000  N
  O137     1.0000 0.72458  0.59161  0.88782  Biso   1.000  O
  O138     1.0000 0.97377  0.73643  0.79732  Biso   1.000  O
  O139     1.0000 0.99747  0.46683  0.90971  Biso   1.000  O
  O140     1.0000 0.81377  0.58763  0.84174  Biso   1.000  O
  C211     1.0000 0.46193  0.04267  0.17525  Biso   1.000  C
  C212     1.0000 0.51563  0.08227  0.14206  Biso   1.000  C
  C213     1.0000 0.48873  0.19437  0.14672  Biso   1.000  C
  H71      1.0000 0.49513  0.24647  0.13677  Biso   1.000  H
  C214     1.0000 0.43633  0.15707  0.18028  Biso   1.000  C
  H72      1.0000 0.41003  0.18507  0.19287  Biso   1.000  H
  C215     1.0000 0.56403  0.04547  0.11977  Biso   1.000  C
  C216     1.0000 0.44383  0.95567  0.19144  Biso   1.000  C
  N71      1.0000 0.42323  0.08107  0.19463  Biso   1.000  N
  N72      1.0000 0.53063  0.15957  0.12788  Biso   1.000  N
  O141     1.0000 0.39124  0.92495  0.22116  Biso   1.000  O
  O142     1.0000 0.64043  0.06977  0.13066  Biso   1.000  O
  O143     1.0000 0.66413  0.80017  0.24305  Biso   1.000  O
  O144     1.0000 0.48043  0.92097  0.17508  Biso   1.000  O
  In1      1.0000 0.00534  0.67201  0.08333  Biso   1.000  In
  In2      1.0000 0.33867  0.33867  0.75000  Biso   1.000  In
  In3      1.0000 0.32799  0.33333  0.08333  Biso   1.000  In
  In4      1.0000 0.66667  0.99466  0.08333  Biso   1.000  In
  In5      1.0000 0.33333  0.32799  0.41667  Biso   1.000  In
  In6      1.0000 0.67201  0.00534  0.41667  Biso   1.000  In
  In7      1.0000 0.00000  0.66133  0.75000  Biso   1.000  In
  In8      1.0000 0.99466  0.66667  0.41667  Biso   1.000  In
  In9      1.0000 0.66133  0.00000  0.75000  Biso   1.000  In
  In10     1.0000 0.99466  0.32799  0.91667  Biso   1.000  In
  In11     1.0000 0.66133  0.66133  0.25000  Biso   1.000  In
  In12     1.0000 0.67201  0.66667  0.91667  Biso   1.000  In
  In13     1.0000 0.33867  0.00000  0.25000  Biso   1.000  In
  In14     1.0000 0.00534  0.33333  0.58333  Biso   1.000  In
  In15     1.0000 0.33333  0.00534  0.91667  Biso   1.000  In
  In16     1.0000 0.00000  0.33867  0.25000  Biso   1.000  In
  In17     1.0000 0.32799  0.99466  0.58333  Biso   1.000  In
  In18     1.0000 0.66667  0.67201  0.58333  Biso   1.000  In
