data_om701262m-file004_freeONLY
_audit_creation_date              2015-08-19
_audit_creation_method            'Materials Studio'
_symmetry_space_group_name_H-M    'P1'
_symmetry_Int_Tables_number       1
_symmetry_cell_setting            triclinic
loop_
_symmetry_equiv_pos_as_xyz
  x,y,z
_cell_length_a                    12.4868
_cell_length_b                    13.0255
_cell_length_c                    23.7555
_cell_angle_alpha                 90.0000
_cell_angle_beta                  90.0000
_cell_angle_gamma                 90.0000
loop_
_atom_site_label
_atom_site_type_symbol
_atom_site_fract_x
_atom_site_fract_y
_atom_site_fract_z
_atom_site_U_iso_or_equiv
_atom_site_adp_type
_atom_site_occupancy
Zn1    Zn    0.25000   0.50000   0.79852   0.01267  Uiso   1.00
Zn2    Zn    0.75930   0.25000   0.25000   0.01267  Uiso   1.00
Zn3    Zn    0.24070   0.75000   0.75000   0.01267  Uiso   1.00
Zn4    Zn    0.25000   0.00000   0.70148   0.01267  Uiso   1.00
Zn5    Zn    0.75000   0.50000   0.20148   0.01267  Uiso   1.00
Zn6    Zn    0.25930   0.25000   0.75000   0.01267  Uiso   1.00
Zn7    Zn    0.75000   0.00000   0.29852   0.01267  Uiso   1.00
Zn8    Zn    0.74070   0.75000   0.25000   0.01267  Uiso   1.00
Si1    Si    0.25000   0.50000   0.46158   0.01267  Uiso   1.00
Si2    Si    0.25000   0.00000   0.03842   0.01267  Uiso   1.00
Si3    Si    0.75000   0.00000   0.96158   0.01267  Uiso   1.00
Si4    Si    0.75000   0.50000   0.53842   0.01267  Uiso   1.00
H1     H     0.89410   0.82310   0.46080   0.01267  Uiso   1.00
H2     H     0.99990   0.09110   0.18910   0.01267  Uiso   1.00
H3     H     0.63300   0.12250   0.87700   0.01267  Uiso   1.00
H4     H     0.13300   0.37750   0.37700   0.01267  Uiso   1.00
H5     H     0.39970   0.16630   0.06310   0.01267  Uiso   1.00
H6     H     0.64340   0.70000   0.37580   0.01267  Uiso   1.00
H7     H     0.89970   0.16630   0.93690   0.01267  Uiso   1.00
H8     H     0.86580   0.06880   0.05770   0.01267  Uiso   1.00
H9     H     0.03230   0.30200   0.62970   0.01267  Uiso   1.00
H10    H     0.53230   0.19800   0.12970   0.01267  Uiso   1.00
H11    H     0.96770   0.69800   0.37030   0.01267  Uiso   1.00
H12    H     0.60030   0.83370   0.93690   0.01267  Uiso   1.00
H13    H     0.63420   0.93120   0.05770   0.01267  Uiso   1.00
H14    H     0.39410   0.67690   0.96080   0.01267  Uiso   1.00
H15    H     0.11350   0.31010   0.47400   0.01267  Uiso   1.00
H16    H     0.11350   0.18990   0.02600   0.01267  Uiso   1.00
H17    H     0.38650   0.68990   0.47400   0.01267  Uiso   1.00
H18    H     0.13420   0.56880   0.55770   0.01267  Uiso   1.00
H19    H     0.88650   0.81010   0.97400   0.01267  Uiso   1.00
H20    H     0.64340   0.80000   0.12420   0.01267  Uiso   1.00
H21    H     0.63420   0.56880   0.44230   0.01267  Uiso   1.00
H22    H     0.13300   0.12250   0.12300   0.01267  Uiso   1.00
H23    H     0.39970   0.33370   0.43690   0.01267  Uiso   1.00
H24    H     0.13420   0.93120   0.94230   0.01267  Uiso   1.00
H25    H     0.89970   0.33370   0.56310   0.01267  Uiso   1.00
H26    H     0.50010   0.90890   0.18910   0.01267  Uiso   1.00
H27    H     0.36580   0.43120   0.55770   0.01267  Uiso   1.00
H28    H     0.46770   0.80200   0.87030   0.01267  Uiso   1.00
H29    H     0.60590   0.32310   0.03920   0.01267  Uiso   1.00
H30    H     0.63300   0.37750   0.62300   0.01267  Uiso   1.00
H31    H     0.60030   0.66630   0.56310   0.01267  Uiso   1.00
H32    H     0.86700   0.62250   0.62300   0.01267  Uiso   1.00
H33    H     0.10030   0.83370   0.06310   0.01267  Uiso   1.00
H34    H     0.14340   0.70000   0.62420   0.01267  Uiso   1.00
H35    H     0.85660   0.20000   0.12420   0.01267  Uiso   1.00
H36    H     0.46770   0.69800   0.62970   0.01267  Uiso   1.00
H37    H     0.36700   0.87750   0.12300   0.01267  Uiso   1.00
H38    H     0.96770   0.80200   0.12970   0.01267  Uiso   1.00
H39    H     0.49990   0.09110   0.81090   0.01267  Uiso   1.00
H40    H     0.00010   0.90890   0.81090   0.01267  Uiso   1.00
H41    H     0.10590   0.17690   0.53920   0.01267  Uiso   1.00
H42    H     0.86700   0.87750   0.87700   0.01267  Uiso   1.00
H43    H     0.99990   0.40890   0.31090   0.01267  Uiso   1.00
H44    H     0.10030   0.66630   0.43690   0.01267  Uiso   1.00
H45    H     0.89410   0.67690   0.03920   0.01267  Uiso   1.00
H46    H     0.36700   0.62250   0.37700   0.01267  Uiso   1.00
H47    H     0.88650   0.68990   0.52600   0.01267  Uiso   1.00
H48    H     0.10590   0.32310   0.96080   0.01267  Uiso   1.00
H49    H     0.03230   0.19800   0.87030   0.01267  Uiso   1.00
H50    H     0.85660   0.30000   0.37580   0.01267  Uiso   1.00
H51    H     0.60590   0.17690   0.46080   0.01267  Uiso   1.00
H52    H     0.14340   0.80000   0.87580   0.01267  Uiso   1.00
H53    H     0.39410   0.82310   0.53920   0.01267  Uiso   1.00
H54    H     0.61350   0.18990   0.97400   0.01267  Uiso   1.00
H55    H     0.86580   0.43120   0.44230   0.01267  Uiso   1.00
H56    H     0.50010   0.59110   0.31090   0.01267  Uiso   1.00
H57    H     0.49990   0.40890   0.68910   0.01267  Uiso   1.00
H58    H     0.38650   0.81010   0.02600   0.01267  Uiso   1.00
H59    H     0.35660   0.30000   0.62420   0.01267  Uiso   1.00
H60    H     0.00010   0.59110   0.68910   0.01267  Uiso   1.00
H61    H     0.36580   0.06880   0.94230   0.01267  Uiso   1.00
H62    H     0.53230   0.30200   0.37030   0.01267  Uiso   1.00
H63    H     0.61350   0.31010   0.52600   0.01267  Uiso   1.00
H64    H     0.35660   0.20000   0.87580   0.01267  Uiso   1.00
C1     C     0.22910   0.27320   0.91129   0.01267  Uiso   1.00
C2     C     0.19300   0.69800   0.59391   0.01267  Uiso   1.00
C3     C     0.13240   0.98120   0.08606   0.01267  Uiso   1.00
C4     C     0.02870   0.05710   0.83382   0.01267  Uiso   1.00
C5     C     0.69300   0.80200   0.09391   0.01267  Uiso   1.00
C6     C     0.30700   0.19800   0.90609   0.01267  Uiso   1.00
C7     C     0.21910   0.35560   0.86812   0.01267  Uiso   1.00
C8     C     0.40010   0.55690   0.37578   0.01267  Uiso   1.00
C9     C     0.34210   0.77040   0.54340   0.01267  Uiso   1.00
C10    C     0.97930   0.53830   0.66366   0.01267  Uiso   1.00
C11    C     0.00150   0.86730   0.12850   0.01267  Uiso   1.00
C12    C     0.81170   0.38030   0.44568   0.01267  Uiso   1.00
C13    C     0.08080   0.61370   0.41114   0.01267  Uiso   1.00
C14    C     0.28090   0.64440   0.86812   0.01267  Uiso   1.00
C15    C     0.99850   0.36730   0.62850   0.01267  Uiso   1.00
C16    C     0.33720   0.80870   0.99549   0.01267  Uiso   1.00
C17    C     0.90010   0.55690   0.62422   0.01267  Uiso   1.00
C18    C     0.78090   0.85560   0.36812   0.01267  Uiso   1.00
C19    C     0.97130   0.55710   0.33382   0.01267  Uiso   1.00
C20    C     0.68830   0.61970   0.44568   0.01267  Uiso   1.00
C21    C     0.27090   0.77320   0.58871   0.01267  Uiso   1.00
C22    C     0.18830   0.61970   0.55432   0.01267  Uiso   1.00
C23    C     0.11380   0.07790   0.79045   0.01267  Uiso   1.00
C24    C     0.86760   0.01880   0.91394   0.01267  Uiso   1.00
C25    C     0.59990   0.05690   0.87578   0.01267  Uiso   1.00
C26    C     0.81170   0.11970   0.05432   0.01267  Uiso   1.00
C27    C     0.63240   0.51880   0.58606   0.01267  Uiso   1.00
C28    C     0.73900   0.38640   0.49050   0.01267  Uiso   1.00
C29    C     0.15790   0.27040   0.95660   0.01267  Uiso   1.00
C30    C     0.31170   0.11970   0.94568   0.01267  Uiso   1.00
C31    C     0.78090   0.64440   0.13188   0.01267  Uiso   1.00
C32    C     0.31170   0.38030   0.55432   0.01267  Uiso   1.00
C33    C     0.84210   0.77040   0.45660   0.01267  Uiso   1.00
C34    C     0.26100   0.61360   0.50950   0.01267  Uiso   1.00
C35    C     0.58080   0.61370   0.58886   0.01267  Uiso   1.00
C36    C     0.34210   0.72960   0.95660   0.01267  Uiso   1.00
C37    C     0.09990   0.44310   0.37578   0.01267  Uiso   1.00
C38    C     0.38620   0.92210   0.79045   0.01267  Uiso   1.00
C39    C     0.47130   0.55710   0.66618   0.01267  Uiso   1.00
C40    C     0.86760   0.48120   0.58606   0.01267  Uiso   1.00
C41    C     0.02070   0.46170   0.33634   0.01267  Uiso   1.00
C42    C     0.47930   0.53830   0.33634   0.01267  Uiso   1.00
C43    C     0.08080   0.88630   0.08886   0.01267  Uiso   1.00
C44    C     0.30700   0.30200   0.59391   0.01267  Uiso   1.00
C45    C     0.38620   0.57790   0.70955   0.01267  Uiso   1.00
C46    C     0.49850   0.13270   0.12850   0.01267  Uiso   1.00
C47    C     0.72910   0.27320   0.08871   0.01267  Uiso   1.00
C48    C     0.80700   0.19800   0.09391   0.01267  Uiso   1.00
C49    C     0.27090   0.72680   0.91129   0.01267  Uiso   1.00
C50    C     0.18830   0.88030   0.94568   0.01267  Uiso   1.00
C51    C     0.49850   0.36730   0.37150   0.01267  Uiso   1.00
C52    C     0.15790   0.22960   0.54340   0.01267  Uiso   1.00
C53    C     0.99850   0.13270   0.87150   0.01267  Uiso   1.00
C54    C     0.65790   0.22960   0.45660   0.01267  Uiso   1.00
C55    C     0.11380   0.42210   0.70955   0.01267  Uiso   1.00
C56    C     0.52870   0.44290   0.33382   0.01267  Uiso   1.00
C57    C     0.66280   0.30870   0.49549   0.01267  Uiso   1.00
C58    C     0.28090   0.85560   0.63188   0.01267  Uiso   1.00
C59    C     0.09990   0.05690   0.12422   0.01267  Uiso   1.00
C60    C     0.97930   0.96170   0.83634   0.01267  Uiso   1.00
C61    C     0.83720   0.80870   0.00451   0.01267  Uiso   1.00
C62    C     0.23900   0.38640   0.50950   0.01267  Uiso   1.00
C63    C     0.41920   0.11370   0.08886   0.01267  Uiso   1.00
C64    C     0.23900   0.11360   0.99050   0.01267  Uiso   1.00
C65    C     0.61380   0.42210   0.29045   0.01267  Uiso   1.00
C66    C     0.66280   0.19130   0.00451   0.01267  Uiso   1.00
C67    C     0.13240   0.51880   0.41394   0.01267  Uiso   1.00
C68    C     0.61380   0.07790   0.20955   0.01267  Uiso   1.00
C69    C     0.73900   0.11360   0.00950   0.01267  Uiso   1.00
C70    C     0.97130   0.94290   0.16618   0.01267  Uiso   1.00
C71    C     0.76100   0.88640   0.00950   0.01267  Uiso   1.00
C72    C     0.36760   0.48120   0.41394   0.01267  Uiso   1.00
C73    C     0.63240   0.98120   0.91394   0.01267  Uiso   1.00
C74    C     0.40010   0.94310   0.12422   0.01267  Uiso   1.00
C75    C     0.41920   0.38630   0.41114   0.01267  Uiso   1.00
C76    C     0.16280   0.30870   0.50451   0.01267  Uiso   1.00
C77    C     0.52870   0.05710   0.16618   0.01267  Uiso   1.00
C78    C     0.80700   0.30200   0.40609   0.01267  Uiso   1.00
C79    C     0.26100   0.88640   0.99050   0.01267  Uiso   1.00
C80    C     0.72910   0.22680   0.41129   0.01267  Uiso   1.00
C81    C     0.77090   0.77320   0.41129   0.01267  Uiso   1.00
C82    C     0.91920   0.38630   0.58886   0.01267  Uiso   1.00
C83    C     0.90010   0.94310   0.87578   0.01267  Uiso   1.00
C84    C     0.33720   0.69130   0.50451   0.01267  Uiso   1.00
C85    C     0.47130   0.94290   0.83382   0.01267  Uiso   1.00
C86    C     0.00150   0.63270   0.37150   0.01267  Uiso   1.00
C87    C     0.88620   0.57790   0.29045   0.01267  Uiso   1.00
C88    C     0.52070   0.46170   0.66366   0.01267  Uiso   1.00
C89    C     0.52070   0.03830   0.83634   0.01267  Uiso   1.00
C90    C     0.77090   0.72680   0.08871   0.01267  Uiso   1.00
C91    C     0.19300   0.80200   0.90609   0.01267  Uiso   1.00
C92    C     0.02870   0.44290   0.66618   0.01267  Uiso   1.00
C93    C     0.71910   0.35560   0.13188   0.01267  Uiso   1.00
C94    C     0.88620   0.92210   0.20955   0.01267  Uiso   1.00
C95    C     0.50150   0.63270   0.62850   0.01267  Uiso   1.00
C96    C     0.22910   0.22680   0.58871   0.01267  Uiso   1.00
C97    C     0.02070   0.03830   0.16366   0.01267  Uiso   1.00
C98    C     0.84210   0.72960   0.04340   0.01267  Uiso   1.00
C99    C     0.58080   0.88630   0.91114   0.01267  Uiso   1.00
C100   C     0.50150   0.86730   0.87150   0.01267  Uiso   1.00
C101   C     0.59990   0.44310   0.62422   0.01267  Uiso   1.00
C102   C     0.21910   0.14440   0.63188   0.01267  Uiso   1.00
C103   C     0.83720   0.69130   0.49549   0.01267  Uiso   1.00
C104   C     0.76100   0.61360   0.49050   0.01267  Uiso   1.00
C105   C     0.69300   0.69800   0.40609   0.01267  Uiso   1.00
C106   C     0.47930   0.96170   0.16366   0.01267  Uiso   1.00
C107   C     0.71910   0.14440   0.36812   0.01267  Uiso   1.00
C108   C     0.36760   0.01880   0.08606   0.01267  Uiso   1.00
C109   C     0.91920   0.11370   0.91114   0.01267  Uiso   1.00
C110   C     0.16280   0.19130   0.99549   0.01267  Uiso   1.00
C111   C     0.65790   0.27040   0.04340   0.01267  Uiso   1.00
C112   C     0.68830   0.88030   0.05432   0.01267  Uiso   1.00
O1     O     0.15770   0.07030   0.62433   0.01267  Uiso   1.00
O2     O     0.16109   0.33708   0.70685   0.01267  Uiso   1.00
O3     O     0.91550   0.25000   0.25000   0.01267  Uiso   1.00
O4     O     0.15770   0.42970   0.87567   0.01267  Uiso   1.00
O5     O     0.37030   0.50861   0.74518   0.01267  Uiso   1.00
O6     O     0.65770   0.07030   0.37567   0.01267  Uiso   1.00
O7     O     0.62970   0.49139   0.25482   0.01267  Uiso   1.00
O8     O     0.77780   0.14939   0.32341   0.01267  Uiso   1.00
O9     O     0.84230   0.57030   0.12433   0.01267  Uiso   1.00
O10    O     0.33891   0.83708   0.79315   0.01267  Uiso   1.00
O11    O     0.22220   0.85061   0.67659   0.01267  Uiso   1.00
O12    O     0.83891   0.83708   0.20685   0.01267  Uiso   1.00
O13    O     0.34230   0.57030   0.87567   0.01267  Uiso   1.00
O14    O     0.66109   0.16292   0.20685   0.01267  Uiso   1.00
O15    O     0.77780   0.35061   0.17659   0.01267  Uiso   1.00
O16    O     0.62970   0.00861   0.24518   0.01267  Uiso   1.00
O17    O     0.72220   0.85061   0.32341   0.01267  Uiso   1.00
O18    O     0.87030   0.99139   0.24518   0.01267  Uiso   1.00
O19    O     0.12970   0.49139   0.74518   0.01267  Uiso   1.00
O20    O     0.87030   0.50861   0.25482   0.01267  Uiso   1.00
O21    O     0.84230   0.92970   0.37567   0.01267  Uiso   1.00
O22    O     0.33891   0.66292   0.70685   0.01267  Uiso   1.00
O23    O     0.16109   0.16292   0.79315   0.01267  Uiso   1.00
O24    O     0.65770   0.42970   0.12433   0.01267  Uiso   1.00
O25    O     0.58450   0.75000   0.25000   0.01267  Uiso   1.00
O26    O     0.66109   0.33708   0.29315   0.01267  Uiso   1.00
O27    O     0.12970   0.00861   0.75482   0.01267  Uiso   1.00
O28    O     0.08450   0.75000   0.75000   0.01267  Uiso   1.00
O29    O     0.72220   0.64939   0.17659   0.01267  Uiso   1.00
O30    O     0.41550   0.25000   0.75000   0.01267  Uiso   1.00
O31    O     0.83891   0.66292   0.29315   0.01267  Uiso   1.00
O32    O     0.27780   0.14939   0.67659   0.01267  Uiso   1.00
O33    O     0.34230   0.92970   0.62433   0.01267  Uiso   1.00
O34    O     0.22220   0.64939   0.82341   0.01267  Uiso   1.00
O35    O     0.37030   0.99139   0.75482   0.01267  Uiso   1.00
O36    O     0.27780   0.35061   0.82341   0.01267  Uiso   1.00
