data_image0
_cell_length_a       18.295
_cell_length_b       14.541
_cell_length_c       18.655
_cell_angle_alpha    90
_cell_angle_beta     90
_cell_angle_gamma    90

_symmetry_space_group_name_H-M    "P 1"
_symmetry_int_tables_number       1

loop_
  _symmetry_equiv_pos_as_xyz
  'x, y, z'

loop_
  _atom_site_label
  _atom_site_occupancy
  _atom_site_fract_x
  _atom_site_fract_y
  _atom_site_fract_z
  _atom_site_thermal_displace_type
  _atom_site_B_iso_or_equiv
  _atom_site_type_symbol
  Zn1      1.0000 0.72629  0.37430  0.45158  Biso   1.000  Zn
  C1       1.0000 0.79761  0.28780  0.57885  Biso   1.000  C
  H1       1.0000 0.83170  0.33490  0.58340  Biso   1.000  H
  C2       1.0000 0.70834  0.20340  0.54095  Biso   1.000  C
  H2       1.0000 0.66950  0.18190  0.51350  Biso   1.000  H
  C3       1.0000 0.73516  0.16260  0.60034  Biso   1.000  C
  H3       1.0000 0.71830  0.10860  0.62140  Biso   1.000  H
  C4       1.0000 0.83323  0.20030  0.69007  Biso   1.000  C
  H4       1.0000 0.83410  0.25750  0.71690  Biso   1.000  H
  H5       1.0000 0.80650  0.15580  0.71860  Biso   1.000  H
  C5       1.0000 0.91286  0.16596  0.68242  Biso   1.000  C
  C6       1.0000 0.94491  0.15890  0.75931  Biso   1.000  C
  H6       1.0000 0.95520  0.22050  0.77650  Biso   1.000  H
  H7       1.0000 0.99100  0.12600  0.75690  Biso   1.000  H
  C7       1.0000 0.84835  0.15520  0.85266  Biso   1.000  C
  H8       1.0000 0.83980  0.21820  0.85250  Biso   1.000  H
  C8       1.0000 0.89528  0.02070  0.82776  Biso   1.000  C
  H9       1.0000 0.92390  0.97440  0.80790  Biso   1.000  H
  C9       1.0000 0.84300  0.01080  0.87829  Biso   1.000  C
  H10      1.0000 0.82920  0.95550  0.89940  Biso   1.000  H
  C10      1.0000 0.95900  0.23997  0.64377  Biso   1.000  C
  H11      1.0000 0.94950  0.29900  0.66620  Biso   1.000  H
  H12      1.0000 0.94280  0.24400  0.59440  Biso   1.000  H
  C11      1.0000 0.08679  0.25850  0.69362  Biso   1.000  C
  H13      1.0000 0.07560  0.29330  0.73390  Biso   1.000  H
  C12      1.0000 0.15372  0.23190  0.67183  Biso   1.000  C
  H14      1.0000 0.19740  0.24570  0.69500  Biso   1.000  H
  C13      1.0000 0.07672  0.17850  0.59496  Biso   1.000  C
  H15      1.0000 0.05660  0.14910  0.55530  Biso   1.000  H
  C14      1.0000 0.91893  0.06990  0.64855  Biso   1.000  C
  H16      1.0000 0.89900  0.02570  0.68220  Biso   1.000  H
  H17      1.0000 0.97040  0.05570  0.64270  Biso   1.000  H
  C15      1.0000 0.83650  0.98670  0.56677  Biso   1.000  C
  H18      1.0000 0.81970  0.94640  0.60180  Biso   1.000  H
  C16      1.0000 0.89570  0.09850  0.51431  Biso   1.000  C
  H19      1.0000 0.92640  0.14840  0.50610  Biso   1.000  H
  C17      1.0000 0.85480  0.05340  0.46494  Biso   1.000  C
  H20      1.0000 0.85220  0.06760  0.41640  Biso   1.000  H
  N1       1.0000 0.74815  0.28257  0.52750  Biso   1.000  N
  N2       1.0000 0.79215  0.21613  0.62354  Biso   1.000  N
  N3       1.0000 0.89786  0.11278  0.81138  Biso   1.000  N
  N4       1.0000 0.81333  0.09565  0.89362  Biso   1.000  N
  N5       1.0000 0.03816  0.22358  0.64421  Biso   1.000  N
  N6       1.0000 0.14752  0.18091  0.60980  Biso   1.000  N
  N7       1.0000 0.88265  0.05582  0.57901  Biso   1.000  N
  N8       1.0000 0.81775  0.98297  0.49853  Biso   1.000  N
  Zn2      1.0000 0.77371  0.62570  0.95158  Biso   1.000  Zn
  C18      1.0000 0.70239  0.71220  0.07885  Biso   1.000  C
  H21      1.0000 0.66830  0.66510  0.08340  Biso   1.000  H
  C19      1.0000 0.79166  0.79660  0.04095  Biso   1.000  C
  H22      1.0000 0.83050  0.81810  0.01350  Biso   1.000  H
  C20      1.0000 0.76484  0.83740  0.10034  Biso   1.000  C
  H23      1.0000 0.78170  0.89140  0.12140  Biso   1.000  H
  C21      1.0000 0.66677  0.79970  0.19007  Biso   1.000  C
  H24      1.0000 0.66590  0.74250  0.21690  Biso   1.000  H
  H25      1.0000 0.69350  0.84420  0.21860  Biso   1.000  H
  C22      1.0000 0.58714  0.83404  0.18242  Biso   1.000  C
  C23      1.0000 0.55509  0.84110  0.25931  Biso   1.000  C
  H26      1.0000 0.54480  0.77950  0.27650  Biso   1.000  H
  H27      1.0000 0.50900  0.87400  0.25690  Biso   1.000  H
  C24      1.0000 0.65165  0.84480  0.35266  Biso   1.000  C
  H28      1.0000 0.66020  0.78180  0.35250  Biso   1.000  H
  C25      1.0000 0.60472  0.97930  0.32776  Biso   1.000  C
  H29      1.0000 0.57610  0.02560  0.30790  Biso   1.000  H
  C26      1.0000 0.65700  0.98920  0.37829  Biso   1.000  C
  H30      1.0000 0.67080  0.04450  0.39940  Biso   1.000  H
  C27      1.0000 0.54100  0.76003  0.14377  Biso   1.000  C
  H31      1.0000 0.55050  0.70100  0.16620  Biso   1.000  H
  H32      1.0000 0.55720  0.75600  0.09440  Biso   1.000  H
  C28      1.0000 0.41321  0.74150  0.19362  Biso   1.000  C
  H33      1.0000 0.42440  0.70670  0.23390  Biso   1.000  H
  C29      1.0000 0.34628  0.76810  0.17183  Biso   1.000  C
  H34      1.0000 0.30260  0.75430  0.19500  Biso   1.000  H
  C30      1.0000 0.42328  0.82150  0.09496  Biso   1.000  C
  H35      1.0000 0.44340  0.85090  0.05530  Biso   1.000  H
  C31      1.0000 0.58107  0.93010  0.14855  Biso   1.000  C
  H36      1.0000 0.60100  0.97430  0.18220  Biso   1.000  H
  H37      1.0000 0.52960  0.94430  0.14270  Biso   1.000  H
  C32      1.0000 0.66350  0.01330  0.06677  Biso   1.000  C
  H38      1.0000 0.68030  0.05360  0.10180  Biso   1.000  H
  C33      1.0000 0.60430  0.90150  0.01431  Biso   1.000  C
  H39      1.0000 0.57360  0.85160  0.00610  Biso   1.000  H
  C34      1.0000 0.64520  0.94660  0.96494  Biso   1.000  C
  H40      1.0000 0.64780  0.93240  0.91640  Biso   1.000  H
  N9       1.0000 0.75185  0.71743  0.02750  Biso   1.000  N
  N10      1.0000 0.70785  0.78387  0.12354  Biso   1.000  N
  N11      1.0000 0.60214  0.88722  0.31138  Biso   1.000  N
  N12      1.0000 0.68667  0.90435  0.39362  Biso   1.000  N
  N13      1.0000 0.46184  0.77642  0.14421  Biso   1.000  N
  N14      1.0000 0.35248  0.81909  0.10980  Biso   1.000  N
  N15      1.0000 0.61735  0.94418  0.07901  Biso   1.000  N
  N16      1.0000 0.68225  0.01703  0.99853  Biso   1.000  N
  Zn3      1.0000 0.27371  0.87430  0.04842  Biso   1.000  Zn
  C35      1.0000 0.20239  0.78780  0.92115  Biso   1.000  C
  H41      1.0000 0.16830  0.83490  0.91660  Biso   1.000  H
  C36      1.0000 0.29166  0.70340  0.95905  Biso   1.000  C
  H42      1.0000 0.33050  0.68190  0.98650  Biso   1.000  H
  C37      1.0000 0.26484  0.66260  0.89966  Biso   1.000  C
  H43      1.0000 0.28170  0.60860  0.87860  Biso   1.000  H
  C38      1.0000 0.16677  0.70030  0.80993  Biso   1.000  C
  H44      1.0000 0.16590  0.75750  0.78310  Biso   1.000  H
  H45      1.0000 0.19350  0.65580  0.78140  Biso   1.000  H
  C39      1.0000 0.08714  0.66596  0.81758  Biso   1.000  C
  C40      1.0000 0.05509  0.65890  0.74069  Biso   1.000  C
  H46      1.0000 0.04480  0.72050  0.72350  Biso   1.000  H
  H47      1.0000 0.00900  0.62600  0.74310  Biso   1.000  H
  C41      1.0000 0.15165  0.65520  0.64734  Biso   1.000  C
  H48      1.0000 0.16020  0.71820  0.64750  Biso   1.000  H
  C42      1.0000 0.10472  0.52070  0.67224  Biso   1.000  C
  H49      1.0000 0.07610  0.47440  0.69210  Biso   1.000  H
  C43      1.0000 0.15700  0.51080  0.62171  Biso   1.000  C
  H50      1.0000 0.17080  0.45550  0.60060  Biso   1.000  H
  C44      1.0000 0.04100  0.73997  0.85623  Biso   1.000  C
  H51      1.0000 0.05050  0.79900  0.83380  Biso   1.000  H
  H52      1.0000 0.05720  0.74400  0.90560  Biso   1.000  H
  C45      1.0000 0.91321  0.75850  0.80638  Biso   1.000  C
  H53      1.0000 0.92440  0.79330  0.76610  Biso   1.000  H
  C46      1.0000 0.84628  0.73190  0.82817  Biso   1.000  C
  H54      1.0000 0.80260  0.74570  0.80500  Biso   1.000  H
  C47      1.0000 0.92328  0.67850  0.90504  Biso   1.000  C
  H55      1.0000 0.94340  0.64910  0.94470  Biso   1.000  H
  C48      1.0000 0.08107  0.56990  0.85145  Biso   1.000  C
  H56      1.0000 0.10100  0.52570  0.81780  Biso   1.000  H
  H57      1.0000 0.02960  0.55570  0.85730  Biso   1.000  H
  C49      1.0000 0.16350  0.48670  0.93323  Biso   1.000  C
  H58      1.0000 0.18030  0.44640  0.89820  Biso   1.000  H
  C50      1.0000 0.10430  0.59850  0.98569  Biso   1.000  C
  H59      1.0000 0.07360  0.64840  0.99390  Biso   1.000  H
  C51      1.0000 0.14520  0.55340  0.03506  Biso   1.000  C
  H60      1.0000 0.14780  0.56760  0.08360  Biso   1.000  H
  N17      1.0000 0.25185  0.78257  0.97250  Biso   1.000  N
  N18      1.0000 0.20785  0.71613  0.87646  Biso   1.000  N
  N19      1.0000 0.10214  0.61278  0.68862  Biso   1.000  N
  N20      1.0000 0.18667  0.59565  0.60638  Biso   1.000  N
  N21      1.0000 0.96184  0.72358  0.85579  Biso   1.000  N
  N22      1.0000 0.85248  0.68091  0.89020  Biso   1.000  N
  N23      1.0000 0.11735  0.55582  0.92099  Biso   1.000  N
  N24      1.0000 0.18225  0.48297  0.00147  Biso   1.000  N
  Zn4      1.0000 0.22629  0.12570  0.54842  Biso   1.000  Zn
  C52      1.0000 0.29761  0.21220  0.42115  Biso   1.000  C
  H61      1.0000 0.33170  0.16510  0.41660  Biso   1.000  H
  C53      1.0000 0.20834  0.29660  0.45905  Biso   1.000  C
  H62      1.0000 0.16950  0.31810  0.48650  Biso   1.000  H
  C54      1.0000 0.23516  0.33740  0.39966  Biso   1.000  C
  H63      1.0000 0.21830  0.39140  0.37860  Biso   1.000  H
  C55      1.0000 0.33323  0.29970  0.30993  Biso   1.000  C
  H64      1.0000 0.33410  0.24250  0.28310  Biso   1.000  H
  H65      1.0000 0.30650  0.34420  0.28140  Biso   1.000  H
  C56      1.0000 0.41286  0.33404  0.31758  Biso   1.000  C
  C57      1.0000 0.44491  0.34110  0.24069  Biso   1.000  C
  H66      1.0000 0.45520  0.27950  0.22350  Biso   1.000  H
  H67      1.0000 0.49100  0.37400  0.24310  Biso   1.000  H
  C58      1.0000 0.34835  0.34480  0.14734  Biso   1.000  C
  H68      1.0000 0.33980  0.28180  0.14750  Biso   1.000  H
  C59      1.0000 0.39528  0.47930  0.17224  Biso   1.000  C
  H69      1.0000 0.42390  0.52560  0.19210  Biso   1.000  H
  C60      1.0000 0.34300  0.48920  0.12171  Biso   1.000  C
  H70      1.0000 0.32920  0.54450  0.10060  Biso   1.000  H
  C61      1.0000 0.45900  0.26003  0.35623  Biso   1.000  C
  H71      1.0000 0.44950  0.20100  0.33380  Biso   1.000  H
  H72      1.0000 0.44280  0.25600  0.40560  Biso   1.000  H
  C62      1.0000 0.58679  0.24150  0.30638  Biso   1.000  C
  H73      1.0000 0.57560  0.20670  0.26610  Biso   1.000  H
  C63      1.0000 0.65372  0.26810  0.32817  Biso   1.000  C
  H74      1.0000 0.69740  0.25430  0.30500  Biso   1.000  H
  C64      1.0000 0.57672  0.32150  0.40504  Biso   1.000  C
  H75      1.0000 0.55660  0.35090  0.44470  Biso   1.000  H
  C65      1.0000 0.41893  0.43010  0.35145  Biso   1.000  C
  H76      1.0000 0.39900  0.47430  0.31780  Biso   1.000  H
  H77      1.0000 0.47040  0.44430  0.35730  Biso   1.000  H
  C66      1.0000 0.33650  0.51330  0.43323  Biso   1.000  C
  H78      1.0000 0.31970  0.55360  0.39820  Biso   1.000  H
  C67      1.0000 0.39570  0.40150  0.48569  Biso   1.000  C
  H79      1.0000 0.42640  0.35160  0.49390  Biso   1.000  H
  C68      1.0000 0.35480  0.44660  0.53506  Biso   1.000  C
  H80      1.0000 0.35220  0.43240  0.58360  Biso   1.000  H
  N25      1.0000 0.24815  0.21743  0.47250  Biso   1.000  N
  N26      1.0000 0.29215  0.28387  0.37646  Biso   1.000  N
  N27      1.0000 0.39786  0.38722  0.18862  Biso   1.000  N
  N28      1.0000 0.31333  0.40435  0.10638  Biso   1.000  N
  N29      1.0000 0.53816  0.27642  0.35579  Biso   1.000  N
  N30      1.0000 0.64752  0.31909  0.39020  Biso   1.000  N
  N31      1.0000 0.38265  0.44418  0.42099  Biso   1.000  N
  N32      1.0000 0.31775  0.51703  0.50147  Biso   1.000  N
  Zn5      1.0000 0.27371  0.62570  0.54842  Biso   1.000  Zn
  C69      1.0000 0.20239  0.71220  0.42115  Biso   1.000  C
  H81      1.0000 0.16830  0.66510  0.41660  Biso   1.000  H
  C70      1.0000 0.29166  0.79660  0.45905  Biso   1.000  C
  H82      1.0000 0.33050  0.81810  0.48650  Biso   1.000  H
  C71      1.0000 0.26484  0.83740  0.39966  Biso   1.000  C
  H83      1.0000 0.28170  0.89140  0.37860  Biso   1.000  H
  C72      1.0000 0.16677  0.79970  0.30993  Biso   1.000  C
  H84      1.0000 0.16590  0.74250  0.28310  Biso   1.000  H
  H85      1.0000 0.19350  0.84420  0.28140  Biso   1.000  H
  C73      1.0000 0.08714  0.83404  0.31758  Biso   1.000  C
  C74      1.0000 0.05509  0.84110  0.24069  Biso   1.000  C
  H86      1.0000 0.04480  0.77950  0.22350  Biso   1.000  H
  H87      1.0000 0.00900  0.87400  0.24310  Biso   1.000  H
  C75      1.0000 0.15165  0.84480  0.14734  Biso   1.000  C
  H88      1.0000 0.16020  0.78180  0.14750  Biso   1.000  H
  C76      1.0000 0.10472  0.97930  0.17224  Biso   1.000  C
  H89      1.0000 0.07610  0.02560  0.19210  Biso   1.000  H
  C77      1.0000 0.15700  0.98920  0.12171  Biso   1.000  C
  H90      1.0000 0.17080  0.04450  0.10060  Biso   1.000  H
  C78      1.0000 0.04100  0.76003  0.35623  Biso   1.000  C
  H91      1.0000 0.05050  0.70100  0.33380  Biso   1.000  H
  H92      1.0000 0.05720  0.75600  0.40560  Biso   1.000  H
  C79      1.0000 0.91321  0.74150  0.30638  Biso   1.000  C
  H93      1.0000 0.92440  0.70670  0.26610  Biso   1.000  H
  C80      1.0000 0.84628  0.76810  0.32817  Biso   1.000  C
  H94      1.0000 0.80260  0.75430  0.30500  Biso   1.000  H
  C81      1.0000 0.92328  0.82150  0.40504  Biso   1.000  C
  H95      1.0000 0.94340  0.85090  0.44470  Biso   1.000  H
  C82      1.0000 0.08107  0.93010  0.35145  Biso   1.000  C
  H96      1.0000 0.10100  0.97430  0.31780  Biso   1.000  H
  H97      1.0000 0.02960  0.94430  0.35730  Biso   1.000  H
  C83      1.0000 0.16350  0.01330  0.43323  Biso   1.000  C
  H98      1.0000 0.18030  0.05360  0.39820  Biso   1.000  H
  C84      1.0000 0.10430  0.90150  0.48569  Biso   1.000  C
  H99      1.0000 0.07360  0.85160  0.49390  Biso   1.000  H
  C85      1.0000 0.14520  0.94660  0.53506  Biso   1.000  C
  H100     1.0000 0.14780  0.93240  0.58360  Biso   1.000  H
  N33      1.0000 0.25185  0.71743  0.47250  Biso   1.000  N
  N34      1.0000 0.20785  0.78387  0.37646  Biso   1.000  N
  N35      1.0000 0.10214  0.88722  0.18862  Biso   1.000  N
  N36      1.0000 0.18667  0.90435  0.10638  Biso   1.000  N
  N37      1.0000 0.96184  0.77642  0.35579  Biso   1.000  N
  N38      1.0000 0.85248  0.81909  0.39020  Biso   1.000  N
  N39      1.0000 0.11735  0.94418  0.42099  Biso   1.000  N
  N40      1.0000 0.18225  0.01703  0.50147  Biso   1.000  N
  Zn6      1.0000 0.22629  0.37430  0.04842  Biso   1.000  Zn
  C86      1.0000 0.29761  0.28780  0.92115  Biso   1.000  C
  H101     1.0000 0.33170  0.33490  0.91660  Biso   1.000  H
  C87      1.0000 0.20834  0.20340  0.95905  Biso   1.000  C
  H102     1.0000 0.16950  0.18190  0.98650  Biso   1.000  H
  C88      1.0000 0.23516  0.16260  0.89966  Biso   1.000  C
  H103     1.0000 0.21830  0.10860  0.87860  Biso   1.000  H
  C89      1.0000 0.33323  0.20030  0.80993  Biso   1.000  C
  H104     1.0000 0.33410  0.25750  0.78310  Biso   1.000  H
  H105     1.0000 0.30650  0.15580  0.78140  Biso   1.000  H
  C90      1.0000 0.41286  0.16596  0.81758  Biso   1.000  C
  C91      1.0000 0.44491  0.15890  0.74069  Biso   1.000  C
  H106     1.0000 0.45520  0.22050  0.72350  Biso   1.000  H
  H107     1.0000 0.49100  0.12600  0.74310  Biso   1.000  H
  C92      1.0000 0.34835  0.15520  0.64734  Biso   1.000  C
  H108     1.0000 0.33980  0.21820  0.64750  Biso   1.000  H
  C93      1.0000 0.39528  0.02070  0.67224  Biso   1.000  C
  H109     1.0000 0.42390  0.97440  0.69210  Biso   1.000  H
  C94      1.0000 0.34300  0.01080  0.62171  Biso   1.000  C
  H110     1.0000 0.32920  0.95550  0.60060  Biso   1.000  H
  C95      1.0000 0.45900  0.23997  0.85623  Biso   1.000  C
  H111     1.0000 0.44950  0.29900  0.83380  Biso   1.000  H
  H112     1.0000 0.44280  0.24400  0.90560  Biso   1.000  H
  C96      1.0000 0.58679  0.25850  0.80638  Biso   1.000  C
  H113     1.0000 0.57560  0.29330  0.76610  Biso   1.000  H
  C97      1.0000 0.65372  0.23190  0.82817  Biso   1.000  C
  H114     1.0000 0.69740  0.24570  0.80500  Biso   1.000  H
  C98      1.0000 0.57672  0.17850  0.90504  Biso   1.000  C
  H115     1.0000 0.55660  0.14910  0.94470  Biso   1.000  H
  C99      1.0000 0.41893  0.06990  0.85145  Biso   1.000  C
  H116     1.0000 0.39900  0.02570  0.81780  Biso   1.000  H
  H117     1.0000 0.47040  0.05570  0.85730  Biso   1.000  H
  C100     1.0000 0.33650  0.98670  0.93323  Biso   1.000  C
  H118     1.0000 0.31970  0.94640  0.89820  Biso   1.000  H
  C101     1.0000 0.39570  0.09850  0.98569  Biso   1.000  C
  H119     1.0000 0.42640  0.14840  0.99390  Biso   1.000  H
  C102     1.0000 0.35480  0.05340  0.03506  Biso   1.000  C
  H120     1.0000 0.35220  0.06760  0.08360  Biso   1.000  H
  N41      1.0000 0.24815  0.28257  0.97250  Biso   1.000  N
  N42      1.0000 0.29215  0.21613  0.87646  Biso   1.000  N
  N43      1.0000 0.39786  0.11278  0.68862  Biso   1.000  N
  N44      1.0000 0.31333  0.09565  0.60638  Biso   1.000  N
  N45      1.0000 0.53816  0.22358  0.85579  Biso   1.000  N
  N46      1.0000 0.64752  0.18091  0.89020  Biso   1.000  N
  N47      1.0000 0.38265  0.05582  0.92099  Biso   1.000  N
  N48      1.0000 0.31775  0.98297  0.00147  Biso   1.000  N
  Zn7      1.0000 0.72629  0.12570  0.95158  Biso   1.000  Zn
  C103     1.0000 0.79761  0.21220  0.07885  Biso   1.000  C
  H121     1.0000 0.83170  0.16510  0.08340  Biso   1.000  H
  C104     1.0000 0.70834  0.29660  0.04095  Biso   1.000  C
  H122     1.0000 0.66950  0.31810  0.01350  Biso   1.000  H
  C105     1.0000 0.73516  0.33740  0.10034  Biso   1.000  C
  H123     1.0000 0.71830  0.39140  0.12140  Biso   1.000  H
  C106     1.0000 0.83323  0.29970  0.19007  Biso   1.000  C
  H124     1.0000 0.83410  0.24250  0.21690  Biso   1.000  H
  H125     1.0000 0.80650  0.34420  0.21860  Biso   1.000  H
  C107     1.0000 0.91286  0.33404  0.18242  Biso   1.000  C
  C108     1.0000 0.94491  0.34110  0.25931  Biso   1.000  C
  H126     1.0000 0.95520  0.27950  0.27650  Biso   1.000  H
  H127     1.0000 0.99100  0.37400  0.25690  Biso   1.000  H
  C109     1.0000 0.84835  0.34480  0.35266  Biso   1.000  C
  H128     1.0000 0.83980  0.28180  0.35250  Biso   1.000  H
  C110     1.0000 0.89528  0.47930  0.32776  Biso   1.000  C
  H129     1.0000 0.92390  0.52560  0.30790  Biso   1.000  H
  C111     1.0000 0.84300  0.48920  0.37829  Biso   1.000  C
  H130     1.0000 0.82920  0.54450  0.39940  Biso   1.000  H
  C112     1.0000 0.95900  0.26003  0.14377  Biso   1.000  C
  H131     1.0000 0.94950  0.20100  0.16620  Biso   1.000  H
  H132     1.0000 0.94280  0.25600  0.09440  Biso   1.000  H
  C113     1.0000 0.08679  0.24150  0.19362  Biso   1.000  C
  H133     1.0000 0.07560  0.20670  0.23390  Biso   1.000  H
  C114     1.0000 0.15372  0.26810  0.17183  Biso   1.000  C
  H134     1.0000 0.19740  0.25430  0.19500  Biso   1.000  H
  C115     1.0000 0.07672  0.32150  0.09496  Biso   1.000  C
  H135     1.0000 0.05660  0.35090  0.05530  Biso   1.000  H
  C116     1.0000 0.91893  0.43010  0.14855  Biso   1.000  C
  H136     1.0000 0.89900  0.47430  0.18220  Biso   1.000  H
  H137     1.0000 0.97040  0.44430  0.14270  Biso   1.000  H
  C117     1.0000 0.83650  0.51330  0.06677  Biso   1.000  C
  H138     1.0000 0.81970  0.55360  0.10180  Biso   1.000  H
  C118     1.0000 0.89570  0.40150  0.01431  Biso   1.000  C
  H139     1.0000 0.92640  0.35160  0.00610  Biso   1.000  H
  C119     1.0000 0.85480  0.44660  0.96494  Biso   1.000  C
  H140     1.0000 0.85220  0.43240  0.91640  Biso   1.000  H
  N49      1.0000 0.74815  0.21743  0.02750  Biso   1.000  N
  N50      1.0000 0.79215  0.28387  0.12354  Biso   1.000  N
  N51      1.0000 0.89786  0.38722  0.31138  Biso   1.000  N
  N52      1.0000 0.81333  0.40435  0.39362  Biso   1.000  N
  N53      1.0000 0.03816  0.27642  0.14421  Biso   1.000  N
  N54      1.0000 0.14752  0.31909  0.10980  Biso   1.000  N
  N55      1.0000 0.88265  0.44418  0.07901  Biso   1.000  N
  N56      1.0000 0.81775  0.51703  0.99853  Biso   1.000  N
  Zn8      1.0000 0.77371  0.87430  0.45158  Biso   1.000  Zn
  C120     1.0000 0.70239  0.78780  0.57885  Biso   1.000  C
  H141     1.0000 0.66830  0.83490  0.58340  Biso   1.000  H
  C121     1.0000 0.79166  0.70340  0.54095  Biso   1.000  C
  H142     1.0000 0.83050  0.68190  0.51350  Biso   1.000  H
  C122     1.0000 0.76484  0.66260  0.60034  Biso   1.000  C
  H143     1.0000 0.78170  0.60860  0.62140  Biso   1.000  H
  C123     1.0000 0.66677  0.70030  0.69007  Biso   1.000  C
  H144     1.0000 0.66590  0.75750  0.71690  Biso   1.000  H
  H145     1.0000 0.69350  0.65580  0.71860  Biso   1.000  H
  C124     1.0000 0.58714  0.66596  0.68242  Biso   1.000  C
  C125     1.0000 0.55509  0.65890  0.75931  Biso   1.000  C
  H146     1.0000 0.54480  0.72050  0.77650  Biso   1.000  H
  H147     1.0000 0.50900  0.62600  0.75690  Biso   1.000  H
  C126     1.0000 0.65165  0.65520  0.85266  Biso   1.000  C
  H148     1.0000 0.66020  0.71820  0.85250  Biso   1.000  H
  C127     1.0000 0.60472  0.52070  0.82776  Biso   1.000  C
  H149     1.0000 0.57610  0.47440  0.80790  Biso   1.000  H
  C128     1.0000 0.65700  0.51080  0.87829  Biso   1.000  C
  H150     1.0000 0.67080  0.45550  0.89940  Biso   1.000  H
  C129     1.0000 0.54100  0.73997  0.64377  Biso   1.000  C
  H151     1.0000 0.55050  0.79900  0.66620  Biso   1.000  H
  H152     1.0000 0.55720  0.74400  0.59440  Biso   1.000  H
  C130     1.0000 0.41321  0.75850  0.69362  Biso   1.000  C
  H153     1.0000 0.42440  0.79330  0.73390  Biso   1.000  H
  C131     1.0000 0.34628  0.73190  0.67183  Biso   1.000  C
  H154     1.0000 0.30260  0.74570  0.69500  Biso   1.000  H
  C132     1.0000 0.42328  0.67850  0.59496  Biso   1.000  C
  H155     1.0000 0.44340  0.64910  0.55530  Biso   1.000  H
  C133     1.0000 0.58107  0.56990  0.64855  Biso   1.000  C
  H156     1.0000 0.60100  0.52570  0.68220  Biso   1.000  H
  H157     1.0000 0.52960  0.55570  0.64270  Biso   1.000  H
  C134     1.0000 0.66350  0.48670  0.56677  Biso   1.000  C
  H158     1.0000 0.68030  0.44640  0.60180  Biso   1.000  H
  C135     1.0000 0.60430  0.59850  0.51431  Biso   1.000  C
  H159     1.0000 0.57360  0.64840  0.50610  Biso   1.000  H
  C136     1.0000 0.64520  0.55340  0.46494  Biso   1.000  C
  H160     1.0000 0.64780  0.56760  0.41640  Biso   1.000  H
  N57      1.0000 0.75185  0.78257  0.52750  Biso   1.000  N
  N58      1.0000 0.70785  0.71613  0.62354  Biso   1.000  N
  N59      1.0000 0.60214  0.61278  0.81138  Biso   1.000  N
  N60      1.0000 0.68667  0.59565  0.89362  Biso   1.000  N
  N61      1.0000 0.46184  0.72358  0.64421  Biso   1.000  N
  N62      1.0000 0.35248  0.68091  0.60980  Biso   1.000  N
  N63      1.0000 0.61735  0.55582  0.57901  Biso   1.000  N
  N64      1.0000 0.68225  0.48297  0.49853  Biso   1.000  N
