data_image0
_cell_length_a       12.641
_cell_length_b       5.1953
_cell_length_c       21.15
_cell_angle_alpha    90
_cell_angle_beta     95.11
_cell_angle_gamma    90

_symmetry_space_group_name_H-M    "P 1"
_symmetry_int_tables_number       1

loop_
  _symmetry_equiv_pos_as_xyz
  'x, y, z'

loop_
  _atom_site_label
  _atom_site_occupancy
  _atom_site_fract_x
  _atom_site_fract_y
  _atom_site_fract_z
  _atom_site_thermal_displace_type
  _atom_site_B_iso_or_equiv
  _atom_site_type_symbol
  Mn1      1.0000 0.49393  0.21496  0.42970  Biso   1.000  Mn
  Mn2      1.0000 0.50116  0.73341  0.32720  Biso   1.000  Mn
  Mn3      1.0000 0.10038  0.77792  0.44532  Biso   1.000  Mn
  P1       1.0000 0.35972  0.73316  0.44730  Biso   1.000  P
  P2       1.0000 0.62654  0.24253  0.31363  Biso   1.000  P
  P3       1.0000 0.02793  0.70140  0.58311  Biso   1.000  P
  O1       1.0000 0.53766  0.37670  0.34953  Biso   1.000  O
  O2       1.0000 0.60123  0.29610  0.24281  Biso   1.000  O
  O3       1.0000 0.24598  0.78040  0.42017  Biso   1.000  O
  O4       1.0000 0.43347  0.87090  0.40186  Biso   1.000  O
  O5       1.0000 0.10565  0.66930  0.53274  Biso   1.000  O
  O6       1.0000 0.73267  0.36190  0.33405  Biso   1.000  O
  O7       1.0000 0.38240  0.85920  0.51260  Biso   1.000  O
  O8       1.0000 0.93155  0.86110  0.56108  Biso   1.000  O
  O9       1.0000 0.62322  0.95610  0.32947  Biso   1.000  O
  O10      1.0000 0.38435  0.44690  0.45057  Biso   1.000  O
  O11      1.0000 0.08957  0.85050  0.63986  Biso   1.000  O
  O12      1.0000 0.99469  0.43980  0.60716  Biso   1.000  O
  H1       1.0000 0.15600  0.77300  0.65300  Biso   1.000  H
  Zn1      1.0000 0.50607  0.78504  0.57030  Biso   1.000  Zn
  Zn2      1.0000 0.49884  0.26659  0.67280  Biso   1.000  Zn
  Zn3      1.0000 0.89962  0.22208  0.55468  Biso   1.000  Zn
  Mn4      1.0000 0.50607  0.71496  0.07030  Biso   1.000  Mn
  Mn5      1.0000 0.49884  0.23341  0.17280  Biso   1.000  Mn
  Mn6      1.0000 0.89962  0.27792  0.05468  Biso   1.000  Mn
  P4       1.0000 0.64028  0.23316  0.05270  Biso   1.000  P
  P5       1.0000 0.37346  0.74253  0.18637  Biso   1.000  P
  P6       1.0000 0.97207  0.20140  0.91689  Biso   1.000  P
  O13      1.0000 0.46234  0.87670  0.15047  Biso   1.000  O
  O14      1.0000 0.39877  0.79610  0.25719  Biso   1.000  O
  O15      1.0000 0.75402  0.28040  0.07983  Biso   1.000  O
  O16      1.0000 0.56653  0.37090  0.09814  Biso   1.000  O
  O17      1.0000 0.89435  0.16930  0.96726  Biso   1.000  O
  O18      1.0000 0.26733  0.86190  0.16595  Biso   1.000  O
  O19      1.0000 0.61760  0.35920  0.98740  Biso   1.000  O
  O20      1.0000 0.06845  0.36110  0.93892  Biso   1.000  O
  O21      1.0000 0.37678  0.45610  0.17053  Biso   1.000  O
  O22      1.0000 0.61565  0.94690  0.04943  Biso   1.000  O
  O23      1.0000 0.91043  0.35050  0.86014  Biso   1.000  O
  O24      1.0000 0.00531  0.93980  0.89284  Biso   1.000  O
  H2       1.0000 0.84400  0.27300  0.84700  Biso   1.000  H
  Zn4      1.0000 0.49393  0.28504  0.92970  Biso   1.000  Zn
  Zn5      1.0000 0.50116  0.76659  0.82720  Biso   1.000  Zn
  Zn6      1.0000 0.10038  0.72208  0.94532  Biso   1.000  Zn
  P7       1.0000 0.64028  0.26684  0.55270  Biso   1.000  P
  P8       1.0000 0.37346  0.75747  0.68637  Biso   1.000  P
  P9       1.0000 0.97207  0.29860  0.41689  Biso   1.000  P
  O25      1.0000 0.46234  0.62330  0.65047  Biso   1.000  O
  O26      1.0000 0.39877  0.70390  0.75719  Biso   1.000  O
  O27      1.0000 0.75402  0.21960  0.57983  Biso   1.000  O
  O28      1.0000 0.56653  0.12910  0.59814  Biso   1.000  O
  O29      1.0000 0.89435  0.33070  0.46726  Biso   1.000  O
  O30      1.0000 0.26733  0.63810  0.66595  Biso   1.000  O
  O31      1.0000 0.61760  0.14080  0.48740  Biso   1.000  O
  O32      1.0000 0.06845  0.13890  0.43892  Biso   1.000  O
  O33      1.0000 0.37678  0.04390  0.67053  Biso   1.000  O
  O34      1.0000 0.61565  0.55310  0.54943  Biso   1.000  O
  O35      1.0000 0.91043  0.14950  0.36014  Biso   1.000  O
  O36      1.0000 0.00531  0.56020  0.39284  Biso   1.000  O
  H3       1.0000 0.84400  0.22700  0.34700  Biso   1.000  H
  P10      1.0000 0.35972  0.76684  0.94730  Biso   1.000  P
  P11      1.0000 0.62654  0.25747  0.81363  Biso   1.000  P
  P12      1.0000 0.02793  0.79860  0.08311  Biso   1.000  P
  O37      1.0000 0.53766  0.12330  0.84953  Biso   1.000  O
  O38      1.0000 0.60123  0.20390  0.74281  Biso   1.000  O
  O39      1.0000 0.24598  0.71960  0.92017  Biso   1.000  O
  O40      1.0000 0.43347  0.62910  0.90186  Biso   1.000  O
  O41      1.0000 0.10565  0.83070  0.03274  Biso   1.000  O
  O42      1.0000 0.73267  0.13810  0.83405  Biso   1.000  O
  O43      1.0000 0.38240  0.64080  0.01260  Biso   1.000  O
  O44      1.0000 0.93155  0.63890  0.06108  Biso   1.000  O
  O45      1.0000 0.62322  0.54390  0.82947  Biso   1.000  O
  O46      1.0000 0.38435  0.05310  0.95057  Biso   1.000  O
  O47      1.0000 0.08957  0.64950  0.13986  Biso   1.000  O
  O48      1.0000 0.99469  0.06020  0.10716  Biso   1.000  O
  H4       1.0000 0.15600  0.72700  0.15300  Biso   1.000  H
