data_image0
_cell_length_a       12.887
_cell_length_b       17.043
_cell_length_c       24.799
_cell_angle_alpha    90
_cell_angle_beta     90
_cell_angle_gamma    90

_symmetry_space_group_name_H-M    "P 1"
_symmetry_int_tables_number       1

loop_
  _symmetry_equiv_pos_as_xyz
  'x, y, z'

loop_
  _atom_site_label
  _atom_site_occupancy
  _atom_site_fract_x
  _atom_site_fract_y
  _atom_site_fract_z
  _atom_site_thermal_displace_type
  _atom_site_B_iso_or_equiv
  _atom_site_type_symbol
  N1       1.0000 0.08180  0.33820  0.99903  Biso   1.000  N
  N2       1.0000 0.12080  0.40860  0.98240  Biso   1.000  N
  N3       1.0000 0.98540  0.37432  0.93247  Biso   1.000  N
  C1       1.0000 0.20730  0.23380  0.01740  Biso   1.000  C
  H1       1.0000 0.23940  0.20400  0.04730  Biso   1.000  H
  H2       1.0000 0.16660  0.19610  0.99560  Biso   1.000  H
  C2       1.0000 0.13470  0.29180  0.04080  Biso   1.000  C
  H3       1.0000 0.17350  0.32750  0.06490  Biso   1.000  H
  H4       1.0000 0.08210  0.26400  0.06280  Biso   1.000  H
  C3       1.0000 0.06050  0.42770  0.94270  Biso   1.000  C
  H5       1.0000 0.06820  0.47490  0.92280  Biso   1.000  H
  C4       1.0000 0.00180  0.31930  0.96900  Biso   1.000  C
  H6       1.0000 0.96170  0.27290  0.97290  Biso   1.000  H
  N4       1.0000 0.08180  0.83820  0.49903  Biso   1.000  N
  N5       1.0000 0.12080  0.90860  0.48240  Biso   1.000  N
  N6       1.0000 0.98540  0.87432  0.43247  Biso   1.000  N
  C5       1.0000 0.20730  0.73380  0.51740  Biso   1.000  C
  H7       1.0000 0.23940  0.70400  0.54730  Biso   1.000  H
  H8       1.0000 0.16660  0.69610  0.49560  Biso   1.000  H
  C6       1.0000 0.13470  0.79180  0.54080  Biso   1.000  C
  H9       1.0000 0.17350  0.82750  0.56490  Biso   1.000  H
  H10      1.0000 0.08210  0.76400  0.56280  Biso   1.000  H
  C7       1.0000 0.06050  0.92770  0.44270  Biso   1.000  C
  H11      1.0000 0.06820  0.97490  0.42280  Biso   1.000  H
  C8       1.0000 0.00180  0.81930  0.46900  Biso   1.000  C
  H12      1.0000 0.96170  0.77290  0.47290  Biso   1.000  H
  N7       1.0000 0.58180  0.33820  0.49903  Biso   1.000  N
  N8       1.0000 0.62080  0.40860  0.48240  Biso   1.000  N
  N9       1.0000 0.48540  0.37432  0.43247  Biso   1.000  N
  C9       1.0000 0.70730  0.23380  0.51740  Biso   1.000  C
  H13      1.0000 0.73940  0.20400  0.54730  Biso   1.000  H
  H14      1.0000 0.66660  0.19610  0.49560  Biso   1.000  H
  C10      1.0000 0.63470  0.29180  0.54080  Biso   1.000  C
  H15      1.0000 0.67350  0.32750  0.56490  Biso   1.000  H
  H16      1.0000 0.58210  0.26400  0.56280  Biso   1.000  H
  C11      1.0000 0.56050  0.42770  0.44270  Biso   1.000  C
  H17      1.0000 0.56820  0.47490  0.42280  Biso   1.000  H
  C12      1.0000 0.50180  0.31930  0.46900  Biso   1.000  C
  H18      1.0000 0.46170  0.27290  0.47290  Biso   1.000  H
  N10      1.0000 0.58180  0.83820  0.99903  Biso   1.000  N
  N11      1.0000 0.62080  0.90860  0.98240  Biso   1.000  N
  N12      1.0000 0.48540  0.87432  0.93247  Biso   1.000  N
  C13      1.0000 0.70730  0.73380  0.01740  Biso   1.000  C
  H19      1.0000 0.73940  0.70400  0.04730  Biso   1.000  H
  H20      1.0000 0.66660  0.69610  0.99560  Biso   1.000  H
  C14      1.0000 0.63470  0.79180  0.04080  Biso   1.000  C
  H21      1.0000 0.67350  0.82750  0.06490  Biso   1.000  H
  H22      1.0000 0.58210  0.76400  0.06280  Biso   1.000  H
  C15      1.0000 0.56050  0.92770  0.94270  Biso   1.000  C
  H23      1.0000 0.56820  0.97490  0.92280  Biso   1.000  H
  C16      1.0000 0.50180  0.81930  0.96900  Biso   1.000  C
  H24      1.0000 0.46170  0.77290  0.97290  Biso   1.000  H
  N13      1.0000 0.66820  0.41180  0.99903  Biso   1.000  N
  N14      1.0000 0.62920  0.34140  0.98240  Biso   1.000  N
  N15      1.0000 0.76460  0.37568  0.93247  Biso   1.000  N
  C17      1.0000 0.54270  0.51620  0.01740  Biso   1.000  C
  H25      1.0000 0.51060  0.54600  0.04730  Biso   1.000  H
  H26      1.0000 0.58340  0.55390  0.99560  Biso   1.000  H
  C18      1.0000 0.61530  0.45820  0.04080  Biso   1.000  C
  H27      1.0000 0.57650  0.42250  0.06490  Biso   1.000  H
  H28      1.0000 0.66790  0.48600  0.06280  Biso   1.000  H
  C19      1.0000 0.68950  0.32230  0.94270  Biso   1.000  C
  H29      1.0000 0.68180  0.27510  0.92280  Biso   1.000  H
  C20      1.0000 0.74820  0.43070  0.96900  Biso   1.000  C
  H30      1.0000 0.78830  0.47710  0.97290  Biso   1.000  H
  N16      1.0000 0.66820  0.91180  0.49903  Biso   1.000  N
  N17      1.0000 0.62920  0.84140  0.48240  Biso   1.000  N
  N18      1.0000 0.76460  0.87568  0.43247  Biso   1.000  N
  C21      1.0000 0.54270  0.01620  0.51740  Biso   1.000  C
  H31      1.0000 0.51060  0.04600  0.54730  Biso   1.000  H
  H32      1.0000 0.58340  0.05390  0.49560  Biso   1.000  H
  C22      1.0000 0.61530  0.95820  0.54080  Biso   1.000  C
  H33      1.0000 0.57650  0.92250  0.56490  Biso   1.000  H
  H34      1.0000 0.66790  0.98600  0.56280  Biso   1.000  H
  C23      1.0000 0.68950  0.82230  0.44270  Biso   1.000  C
  H35      1.0000 0.68180  0.77510  0.42280  Biso   1.000  H
  C24      1.0000 0.74820  0.93070  0.46900  Biso   1.000  C
  H36      1.0000 0.78830  0.97710  0.47290  Biso   1.000  H
  N19      1.0000 0.16820  0.41180  0.49903  Biso   1.000  N
  N20      1.0000 0.12920  0.34140  0.48240  Biso   1.000  N
  N21      1.0000 0.26460  0.37568  0.43247  Biso   1.000  N
  C25      1.0000 0.04270  0.51620  0.51740  Biso   1.000  C
  H37      1.0000 0.01060  0.54600  0.54730  Biso   1.000  H
  H38      1.0000 0.08340  0.55390  0.49560  Biso   1.000  H
  C26      1.0000 0.11530  0.45820  0.54080  Biso   1.000  C
  H39      1.0000 0.07650  0.42250  0.56490  Biso   1.000  H
  H40      1.0000 0.16790  0.48600  0.56280  Biso   1.000  H
  C27      1.0000 0.18950  0.32230  0.44270  Biso   1.000  C
  H41      1.0000 0.18180  0.27510  0.42280  Biso   1.000  H
  C28      1.0000 0.24820  0.43070  0.46900  Biso   1.000  C
  H42      1.0000 0.28830  0.47710  0.47290  Biso   1.000  H
  N22      1.0000 0.16820  0.91180  0.99903  Biso   1.000  N
  N23      1.0000 0.12920  0.84140  0.98240  Biso   1.000  N
  N24      1.0000 0.26460  0.87568  0.93247  Biso   1.000  N
  C29      1.0000 0.04270  0.01620  0.01740  Biso   1.000  C
  H43      1.0000 0.01060  0.04600  0.04730  Biso   1.000  H
  H44      1.0000 0.08340  0.05390  0.99560  Biso   1.000  H
  C30      1.0000 0.11530  0.95820  0.04080  Biso   1.000  C
  H45      1.0000 0.07650  0.92250  0.06490  Biso   1.000  H
  H46      1.0000 0.16790  0.98600  0.06280  Biso   1.000  H
  C31      1.0000 0.18950  0.82230  0.94270  Biso   1.000  C
  H47      1.0000 0.18180  0.77510  0.92280  Biso   1.000  H
  C32      1.0000 0.24820  0.93070  0.96900  Biso   1.000  C
  H48      1.0000 0.28830  0.97710  0.97290  Biso   1.000  H
  N25      1.0000 0.66820  0.33820  0.75097  Biso   1.000  N
  N26      1.0000 0.62920  0.40860  0.76760  Biso   1.000  N
  N27      1.0000 0.76460  0.37432  0.81753  Biso   1.000  N
  C33      1.0000 0.54270  0.23380  0.73260  Biso   1.000  C
  H49      1.0000 0.51060  0.20400  0.70270  Biso   1.000  H
  H50      1.0000 0.58340  0.19610  0.75440  Biso   1.000  H
  C34      1.0000 0.61530  0.29180  0.70920  Biso   1.000  C
  H51      1.0000 0.57650  0.32750  0.68510  Biso   1.000  H
  H52      1.0000 0.66790  0.26400  0.68720  Biso   1.000  H
  C35      1.0000 0.68950  0.42770  0.80730  Biso   1.000  C
  H53      1.0000 0.68180  0.47490  0.82720  Biso   1.000  H
  C36      1.0000 0.74820  0.31930  0.78100  Biso   1.000  C
  H54      1.0000 0.78830  0.27290  0.77710  Biso   1.000  H
  N28      1.0000 0.66820  0.83820  0.25097  Biso   1.000  N
  N29      1.0000 0.62920  0.90860  0.26760  Biso   1.000  N
  N30      1.0000 0.76460  0.87432  0.31753  Biso   1.000  N
  C37      1.0000 0.54270  0.73380  0.23260  Biso   1.000  C
  H55      1.0000 0.51060  0.70400  0.20270  Biso   1.000  H
  H56      1.0000 0.58340  0.69610  0.25440  Biso   1.000  H
  C38      1.0000 0.61530  0.79180  0.20920  Biso   1.000  C
  H57      1.0000 0.57650  0.82750  0.18510  Biso   1.000  H
  H58      1.0000 0.66790  0.76400  0.18720  Biso   1.000  H
  C39      1.0000 0.68950  0.92770  0.30730  Biso   1.000  C
  H59      1.0000 0.68180  0.97490  0.32720  Biso   1.000  H
  C40      1.0000 0.74820  0.81930  0.28100  Biso   1.000  C
  H60      1.0000 0.78830  0.77290  0.27710  Biso   1.000  H
  N31      1.0000 0.16820  0.33820  0.25097  Biso   1.000  N
  N32      1.0000 0.12920  0.40860  0.26760  Biso   1.000  N
  N33      1.0000 0.26460  0.37432  0.31753  Biso   1.000  N
  C41      1.0000 0.04270  0.23380  0.23260  Biso   1.000  C
  H61      1.0000 0.01060  0.20400  0.20270  Biso   1.000  H
  H62      1.0000 0.08340  0.19610  0.25440  Biso   1.000  H
  C42      1.0000 0.11530  0.29180  0.20920  Biso   1.000  C
  H63      1.0000 0.07650  0.32750  0.18510  Biso   1.000  H
  H64      1.0000 0.16790  0.26400  0.18720  Biso   1.000  H
  C43      1.0000 0.18950  0.42770  0.30730  Biso   1.000  C
  H65      1.0000 0.18180  0.47490  0.32720  Biso   1.000  H
  C44      1.0000 0.24820  0.31930  0.28100  Biso   1.000  C
  H66      1.0000 0.28830  0.27290  0.27710  Biso   1.000  H
  N34      1.0000 0.16820  0.83820  0.75097  Biso   1.000  N
  N35      1.0000 0.12920  0.90860  0.76760  Biso   1.000  N
  N36      1.0000 0.26460  0.87432  0.81753  Biso   1.000  N
  C45      1.0000 0.04270  0.73380  0.73260  Biso   1.000  C
  H67      1.0000 0.01060  0.70400  0.70270  Biso   1.000  H
  H68      1.0000 0.08340  0.69610  0.75440  Biso   1.000  H
  C46      1.0000 0.11530  0.79180  0.70920  Biso   1.000  C
  H69      1.0000 0.07650  0.82750  0.68510  Biso   1.000  H
  H70      1.0000 0.16790  0.76400  0.68720  Biso   1.000  H
  C47      1.0000 0.18950  0.92770  0.80730  Biso   1.000  C
  H71      1.0000 0.18180  0.97490  0.82720  Biso   1.000  H
  C48      1.0000 0.24820  0.81930  0.78100  Biso   1.000  C
  H72      1.0000 0.28830  0.77290  0.77710  Biso   1.000  H
  N37      1.0000 0.08180  0.41180  0.75097  Biso   1.000  N
  N38      1.0000 0.12080  0.34140  0.76760  Biso   1.000  N
  N39      1.0000 0.98540  0.37568  0.81753  Biso   1.000  N
  C49      1.0000 0.20730  0.51620  0.73260  Biso   1.000  C
  H73      1.0000 0.23940  0.54600  0.70270  Biso   1.000  H
  H74      1.0000 0.16660  0.55390  0.75440  Biso   1.000  H
  C50      1.0000 0.13470  0.45820  0.70920  Biso   1.000  C
  H75      1.0000 0.17350  0.42250  0.68510  Biso   1.000  H
  H76      1.0000 0.08210  0.48600  0.68720  Biso   1.000  H
  C51      1.0000 0.06050  0.32230  0.80730  Biso   1.000  C
  H77      1.0000 0.06820  0.27510  0.82720  Biso   1.000  H
  C52      1.0000 0.00180  0.43070  0.78100  Biso   1.000  C
  H78      1.0000 0.96170  0.47710  0.77710  Biso   1.000  H
  N40      1.0000 0.08180  0.91180  0.25097  Biso   1.000  N
  N41      1.0000 0.12080  0.84140  0.26760  Biso   1.000  N
  N42      1.0000 0.98540  0.87568  0.31753  Biso   1.000  N
  C53      1.0000 0.20730  0.01620  0.23260  Biso   1.000  C
  H79      1.0000 0.23940  0.04600  0.20270  Biso   1.000  H
  H80      1.0000 0.16660  0.05390  0.25440  Biso   1.000  H
  C54      1.0000 0.13470  0.95820  0.20920  Biso   1.000  C
  H81      1.0000 0.17350  0.92250  0.18510  Biso   1.000  H
  H82      1.0000 0.08210  0.98600  0.18720  Biso   1.000  H
  C55      1.0000 0.06050  0.82230  0.30730  Biso   1.000  C
  H83      1.0000 0.06820  0.77510  0.32720  Biso   1.000  H
  C56      1.0000 0.00180  0.93070  0.28100  Biso   1.000  C
  H84      1.0000 0.96170  0.97710  0.27710  Biso   1.000  H
  N43      1.0000 0.58180  0.41180  0.25097  Biso   1.000  N
  N44      1.0000 0.62080  0.34140  0.26760  Biso   1.000  N
  N45      1.0000 0.48540  0.37568  0.31753  Biso   1.000  N
  C57      1.0000 0.70730  0.51620  0.23260  Biso   1.000  C
  H85      1.0000 0.73940  0.54600  0.20270  Biso   1.000  H
  H86      1.0000 0.66660  0.55390  0.25440  Biso   1.000  H
  C58      1.0000 0.63470  0.45820  0.20920  Biso   1.000  C
  H87      1.0000 0.67350  0.42250  0.18510  Biso   1.000  H
  H88      1.0000 0.58210  0.48600  0.18720  Biso   1.000  H
  C59      1.0000 0.56050  0.32230  0.30730  Biso   1.000  C
  H89      1.0000 0.56820  0.27510  0.32720  Biso   1.000  H
  C60      1.0000 0.50180  0.43070  0.28100  Biso   1.000  C
  H90      1.0000 0.46170  0.47710  0.27710  Biso   1.000  H
  N46      1.0000 0.58180  0.91180  0.75097  Biso   1.000  N
  N47      1.0000 0.62080  0.84140  0.76760  Biso   1.000  N
  N48      1.0000 0.48540  0.87568  0.81753  Biso   1.000  N
  C61      1.0000 0.70730  0.01620  0.73260  Biso   1.000  C
  H91      1.0000 0.73940  0.04600  0.70270  Biso   1.000  H
  H92      1.0000 0.66660  0.05390  0.75440  Biso   1.000  H
  C62      1.0000 0.63470  0.95820  0.70920  Biso   1.000  C
  H93      1.0000 0.67350  0.92250  0.68510  Biso   1.000  H
  H94      1.0000 0.58210  0.98600  0.68720  Biso   1.000  H
  C63      1.0000 0.56050  0.82230  0.80730  Biso   1.000  C
  H95      1.0000 0.56820  0.77510  0.82720  Biso   1.000  H
  C64      1.0000 0.50180  0.93070  0.78100  Biso   1.000  C
  H96      1.0000 0.46170  0.97710  0.77710  Biso   1.000  H
  N49      1.0000 0.91820  0.66180  0.00097  Biso   1.000  N
  N50      1.0000 0.87920  0.59140  0.01760  Biso   1.000  N
  N51      1.0000 0.01460  0.62568  0.06753  Biso   1.000  N
  C65      1.0000 0.79270  0.76620  0.98260  Biso   1.000  C
  H97      1.0000 0.76060  0.79600  0.95270  Biso   1.000  H
  H98      1.0000 0.83340  0.80390  0.00440  Biso   1.000  H
  C66      1.0000 0.86530  0.70820  0.95920  Biso   1.000  C
  H99      1.0000 0.82650  0.67250  0.93510  Biso   1.000  H
  H100     1.0000 0.91790  0.73600  0.93720  Biso   1.000  H
  C67      1.0000 0.93950  0.57230  0.05730  Biso   1.000  C
  H101     1.0000 0.93180  0.52510  0.07720  Biso   1.000  H
  C68      1.0000 0.99820  0.68070  0.03100  Biso   1.000  C
  H102     1.0000 0.03830  0.72710  0.02710  Biso   1.000  H
  N52      1.0000 0.91820  0.16180  0.50097  Biso   1.000  N
  N53      1.0000 0.87920  0.09140  0.51760  Biso   1.000  N
  N54      1.0000 0.01460  0.12568  0.56753  Biso   1.000  N
  C69      1.0000 0.79270  0.26620  0.48260  Biso   1.000  C
  H103     1.0000 0.76060  0.29600  0.45270  Biso   1.000  H
  H104     1.0000 0.83340  0.30390  0.50440  Biso   1.000  H
  C70      1.0000 0.86530  0.20820  0.45920  Biso   1.000  C
  H105     1.0000 0.82650  0.17250  0.43510  Biso   1.000  H
  H106     1.0000 0.91790  0.23600  0.43720  Biso   1.000  H
  C71      1.0000 0.93950  0.07230  0.55730  Biso   1.000  C
  H107     1.0000 0.93180  0.02510  0.57720  Biso   1.000  H
  C72      1.0000 0.99820  0.18070  0.53100  Biso   1.000  C
  H108     1.0000 0.03830  0.22710  0.52710  Biso   1.000  H
  N55      1.0000 0.41820  0.66180  0.50097  Biso   1.000  N
  N56      1.0000 0.37920  0.59140  0.51760  Biso   1.000  N
  N57      1.0000 0.51460  0.62568  0.56753  Biso   1.000  N
  C73      1.0000 0.29270  0.76620  0.48260  Biso   1.000  C
  H109     1.0000 0.26060  0.79600  0.45270  Biso   1.000  H
  H110     1.0000 0.33340  0.80390  0.50440  Biso   1.000  H
  C74      1.0000 0.36530  0.70820  0.45920  Biso   1.000  C
  H111     1.0000 0.32650  0.67250  0.43510  Biso   1.000  H
  H112     1.0000 0.41790  0.73600  0.43720  Biso   1.000  H
  C75      1.0000 0.43950  0.57230  0.55730  Biso   1.000  C
  H113     1.0000 0.43180  0.52510  0.57720  Biso   1.000  H
  C76      1.0000 0.49820  0.68070  0.53100  Biso   1.000  C
  H114     1.0000 0.53830  0.72710  0.52710  Biso   1.000  H
  N58      1.0000 0.41820  0.16180  0.00097  Biso   1.000  N
  N59      1.0000 0.37920  0.09140  0.01760  Biso   1.000  N
  N60      1.0000 0.51460  0.12568  0.06753  Biso   1.000  N
  C77      1.0000 0.29270  0.26620  0.98260  Biso   1.000  C
  H115     1.0000 0.26060  0.29600  0.95270  Biso   1.000  H
  H116     1.0000 0.33340  0.30390  0.00440  Biso   1.000  H
  C78      1.0000 0.36530  0.20820  0.95920  Biso   1.000  C
  H117     1.0000 0.32650  0.17250  0.93510  Biso   1.000  H
  H118     1.0000 0.41790  0.23600  0.93720  Biso   1.000  H
  C79      1.0000 0.43950  0.07230  0.05730  Biso   1.000  C
  H119     1.0000 0.43180  0.02510  0.07720  Biso   1.000  H
  C80      1.0000 0.49820  0.18070  0.03100  Biso   1.000  C
  H120     1.0000 0.53830  0.22710  0.02710  Biso   1.000  H
  N61      1.0000 0.33180  0.58820  0.00097  Biso   1.000  N
  N62      1.0000 0.37080  0.65860  0.01760  Biso   1.000  N
  N63      1.0000 0.23540  0.62432  0.06753  Biso   1.000  N
  C81      1.0000 0.45730  0.48380  0.98260  Biso   1.000  C
  H121     1.0000 0.48940  0.45400  0.95270  Biso   1.000  H
  H122     1.0000 0.41660  0.44610  0.00440  Biso   1.000  H
  C82      1.0000 0.38470  0.54180  0.95920  Biso   1.000  C
  H123     1.0000 0.42350  0.57750  0.93510  Biso   1.000  H
  H124     1.0000 0.33210  0.51400  0.93720  Biso   1.000  H
  C83      1.0000 0.31050  0.67770  0.05730  Biso   1.000  C
  H125     1.0000 0.31820  0.72490  0.07720  Biso   1.000  H
  C84      1.0000 0.25180  0.56930  0.03100  Biso   1.000  C
  H126     1.0000 0.21170  0.52290  0.02710  Biso   1.000  H
  N64      1.0000 0.33180  0.08820  0.50097  Biso   1.000  N
  N65      1.0000 0.37080  0.15860  0.51760  Biso   1.000  N
  N66      1.0000 0.23540  0.12432  0.56753  Biso   1.000  N
  C85      1.0000 0.45730  0.98380  0.48260  Biso   1.000  C
  H127     1.0000 0.48940  0.95400  0.45270  Biso   1.000  H
  H128     1.0000 0.41660  0.94610  0.50440  Biso   1.000  H
  C86      1.0000 0.38470  0.04180  0.45920  Biso   1.000  C
  H129     1.0000 0.42350  0.07750  0.43510  Biso   1.000  H
  H130     1.0000 0.33210  0.01400  0.43720  Biso   1.000  H
  C87      1.0000 0.31050  0.17770  0.55730  Biso   1.000  C
  H131     1.0000 0.31820  0.22490  0.57720  Biso   1.000  H
  C88      1.0000 0.25180  0.06930  0.53100  Biso   1.000  C
  H132     1.0000 0.21170  0.02290  0.52710  Biso   1.000  H
  N67      1.0000 0.83180  0.58820  0.50097  Biso   1.000  N
  N68      1.0000 0.87080  0.65860  0.51760  Biso   1.000  N
  N69      1.0000 0.73540  0.62432  0.56753  Biso   1.000  N
  C89      1.0000 0.95730  0.48380  0.48260  Biso   1.000  C
  H133     1.0000 0.98940  0.45400  0.45270  Biso   1.000  H
  H134     1.0000 0.91660  0.44610  0.50440  Biso   1.000  H
  C90      1.0000 0.88470  0.54180  0.45920  Biso   1.000  C
  H135     1.0000 0.92350  0.57750  0.43510  Biso   1.000  H
  H136     1.0000 0.83210  0.51400  0.43720  Biso   1.000  H
  C91      1.0000 0.81050  0.67770  0.55730  Biso   1.000  C
  H137     1.0000 0.81820  0.72490  0.57720  Biso   1.000  H
  C92      1.0000 0.75180  0.56930  0.53100  Biso   1.000  C
  H138     1.0000 0.71170  0.52290  0.52710  Biso   1.000  H
  N70      1.0000 0.83180  0.08820  0.00097  Biso   1.000  N
  N71      1.0000 0.87080  0.15860  0.01760  Biso   1.000  N
  N72      1.0000 0.73540  0.12432  0.06753  Biso   1.000  N
  C93      1.0000 0.95730  0.98380  0.98260  Biso   1.000  C
  H139     1.0000 0.98940  0.95400  0.95270  Biso   1.000  H
  H140     1.0000 0.91660  0.94610  0.00440  Biso   1.000  H
  C94      1.0000 0.88470  0.04180  0.95920  Biso   1.000  C
  H141     1.0000 0.92350  0.07750  0.93510  Biso   1.000  H
  H142     1.0000 0.83210  0.01400  0.93720  Biso   1.000  H
  C95      1.0000 0.81050  0.17770  0.05730  Biso   1.000  C
  H143     1.0000 0.81820  0.22490  0.07720  Biso   1.000  H
  C96      1.0000 0.75180  0.06930  0.03100  Biso   1.000  C
  H144     1.0000 0.71170  0.02290  0.02710  Biso   1.000  H
  N73      1.0000 0.33180  0.66180  0.24903  Biso   1.000  N
  N74      1.0000 0.37080  0.59140  0.23240  Biso   1.000  N
  N75      1.0000 0.23540  0.62568  0.18247  Biso   1.000  N
  C97      1.0000 0.45730  0.76620  0.26740  Biso   1.000  C
  H145     1.0000 0.48940  0.79600  0.29730  Biso   1.000  H
  H146     1.0000 0.41660  0.80390  0.24560  Biso   1.000  H
  C98      1.0000 0.38470  0.70820  0.29080  Biso   1.000  C
  H147     1.0000 0.42350  0.67250  0.31490  Biso   1.000  H
  H148     1.0000 0.33210  0.73600  0.31280  Biso   1.000  H
  C99      1.0000 0.31050  0.57230  0.19270  Biso   1.000  C
  H149     1.0000 0.31820  0.52510  0.17280  Biso   1.000  H
  C100     1.0000 0.25180  0.68070  0.21900  Biso   1.000  C
  H150     1.0000 0.21170  0.72710  0.22290  Biso   1.000  H
  N76      1.0000 0.33180  0.16180  0.74903  Biso   1.000  N
  N77      1.0000 0.37080  0.09140  0.73240  Biso   1.000  N
  N78      1.0000 0.23540  0.12568  0.68247  Biso   1.000  N
  C101     1.0000 0.45730  0.26620  0.76740  Biso   1.000  C
  H151     1.0000 0.48940  0.29600  0.79730  Biso   1.000  H
  H152     1.0000 0.41660  0.30390  0.74560  Biso   1.000  H
  C102     1.0000 0.38470  0.20820  0.79080  Biso   1.000  C
  H153     1.0000 0.42350  0.17250  0.81490  Biso   1.000  H
  H154     1.0000 0.33210  0.23600  0.81280  Biso   1.000  H
  C103     1.0000 0.31050  0.07230  0.69270  Biso   1.000  C
  H155     1.0000 0.31820  0.02510  0.67280  Biso   1.000  H
  C104     1.0000 0.25180  0.18070  0.71900  Biso   1.000  C
  H156     1.0000 0.21170  0.22710  0.72290  Biso   1.000  H
  N79      1.0000 0.83180  0.66180  0.74903  Biso   1.000  N
  N80      1.0000 0.87080  0.59140  0.73240  Biso   1.000  N
  N81      1.0000 0.73540  0.62568  0.68247  Biso   1.000  N
  C105     1.0000 0.95730  0.76620  0.76740  Biso   1.000  C
  H157     1.0000 0.98940  0.79600  0.79730  Biso   1.000  H
  H158     1.0000 0.91660  0.80390  0.74560  Biso   1.000  H
  C106     1.0000 0.88470  0.70820  0.79080  Biso   1.000  C
  H159     1.0000 0.92350  0.67250  0.81490  Biso   1.000  H
  H160     1.0000 0.83210  0.73600  0.81280  Biso   1.000  H
  C107     1.0000 0.81050  0.57230  0.69270  Biso   1.000  C
  H161     1.0000 0.81820  0.52510  0.67280  Biso   1.000  H
  C108     1.0000 0.75180  0.68070  0.71900  Biso   1.000  C
  H162     1.0000 0.71170  0.72710  0.72290  Biso   1.000  H
  N82      1.0000 0.83180  0.16180  0.24903  Biso   1.000  N
  N83      1.0000 0.87080  0.09140  0.23240  Biso   1.000  N
  N84      1.0000 0.73540  0.12568  0.18247  Biso   1.000  N
  C109     1.0000 0.95730  0.26620  0.26740  Biso   1.000  C
  H163     1.0000 0.98940  0.29600  0.29730  Biso   1.000  H
  H164     1.0000 0.91660  0.30390  0.24560  Biso   1.000  H
  C110     1.0000 0.88470  0.20820  0.29080  Biso   1.000  C
  H165     1.0000 0.92350  0.17250  0.31490  Biso   1.000  H
  H166     1.0000 0.83210  0.23600  0.31280  Biso   1.000  H
  C111     1.0000 0.81050  0.07230  0.19270  Biso   1.000  C
  H167     1.0000 0.81820  0.02510  0.17280  Biso   1.000  H
  C112     1.0000 0.75180  0.18070  0.21900  Biso   1.000  C
  H168     1.0000 0.71170  0.22710  0.22290  Biso   1.000  H
  N85      1.0000 0.91820  0.58820  0.24903  Biso   1.000  N
  N86      1.0000 0.87920  0.65860  0.23240  Biso   1.000  N
  N87      1.0000 0.01460  0.62432  0.18247  Biso   1.000  N
  C113     1.0000 0.79270  0.48380  0.26740  Biso   1.000  C
  H169     1.0000 0.76060  0.45400  0.29730  Biso   1.000  H
  H170     1.0000 0.83340  0.44610  0.24560  Biso   1.000  H
  C114     1.0000 0.86530  0.54180  0.29080  Biso   1.000  C
  H171     1.0000 0.82650  0.57750  0.31490  Biso   1.000  H
  H172     1.0000 0.91790  0.51400  0.31280  Biso   1.000  H
  C115     1.0000 0.93950  0.67770  0.19270  Biso   1.000  C
  H173     1.0000 0.93180  0.72490  0.17280  Biso   1.000  H
  C116     1.0000 0.99820  0.56930  0.21900  Biso   1.000  C
  H174     1.0000 0.03830  0.52290  0.22290  Biso   1.000  H
  N88      1.0000 0.91820  0.08820  0.74903  Biso   1.000  N
  N89      1.0000 0.87920  0.15860  0.73240  Biso   1.000  N
  N90      1.0000 0.01460  0.12432  0.68247  Biso   1.000  N
  C117     1.0000 0.79270  0.98380  0.76740  Biso   1.000  C
  H175     1.0000 0.76060  0.95400  0.79730  Biso   1.000  H
  H176     1.0000 0.83340  0.94610  0.74560  Biso   1.000  H
  C118     1.0000 0.86530  0.04180  0.79080  Biso   1.000  C
  H177     1.0000 0.82650  0.07750  0.81490  Biso   1.000  H
  H178     1.0000 0.91790  0.01400  0.81280  Biso   1.000  H
  C119     1.0000 0.93950  0.17770  0.69270  Biso   1.000  C
  H179     1.0000 0.93180  0.22490  0.67280  Biso   1.000  H
  C120     1.0000 0.99820  0.06930  0.71900  Biso   1.000  C
  H180     1.0000 0.03830  0.02290  0.72290  Biso   1.000  H
  N91      1.0000 0.41820  0.58820  0.74903  Biso   1.000  N
  N92      1.0000 0.37920  0.65860  0.73240  Biso   1.000  N
  N93      1.0000 0.51460  0.62432  0.68247  Biso   1.000  N
  C121     1.0000 0.29270  0.48380  0.76740  Biso   1.000  C
  H181     1.0000 0.26060  0.45400  0.79730  Biso   1.000  H
  H182     1.0000 0.33340  0.44610  0.74560  Biso   1.000  H
  C122     1.0000 0.36530  0.54180  0.79080  Biso   1.000  C
  H183     1.0000 0.32650  0.57750  0.81490  Biso   1.000  H
  H184     1.0000 0.41790  0.51400  0.81280  Biso   1.000  H
  C123     1.0000 0.43950  0.67770  0.69270  Biso   1.000  C
  H185     1.0000 0.43180  0.72490  0.67280  Biso   1.000  H
  C124     1.0000 0.49820  0.56930  0.71900  Biso   1.000  C
  H186     1.0000 0.53830  0.52290  0.72290  Biso   1.000  H
  N94      1.0000 0.41820  0.08820  0.24903  Biso   1.000  N
  N95      1.0000 0.37920  0.15860  0.23240  Biso   1.000  N
  N96      1.0000 0.51460  0.12432  0.18247  Biso   1.000  N
  C125     1.0000 0.29270  0.98380  0.26740  Biso   1.000  C
  H187     1.0000 0.26060  0.95400  0.29730  Biso   1.000  H
  H188     1.0000 0.33340  0.94610  0.24560  Biso   1.000  H
  C126     1.0000 0.36530  0.04180  0.29080  Biso   1.000  C
  H189     1.0000 0.32650  0.07750  0.31490  Biso   1.000  H
  H190     1.0000 0.41790  0.01400  0.31280  Biso   1.000  H
  C127     1.0000 0.43950  0.17770  0.19270  Biso   1.000  C
  H191     1.0000 0.43180  0.22490  0.17280  Biso   1.000  H
  C128     1.0000 0.49820  0.06930  0.21900  Biso   1.000  C
  H192     1.0000 0.53830  0.02290  0.22290  Biso   1.000  H
  Cu1      1.0000 0.87500  0.37500  0.87500  Biso   1.000  Cu
  Cu2      1.0000 0.87500  0.87500  0.37500  Biso   1.000  Cu
  Cu3      1.0000 0.37500  0.37500  0.37500  Biso   1.000  Cu
  Cu4      1.0000 0.37500  0.87500  0.87500  Biso   1.000  Cu
  Cu5      1.0000 0.12500  0.62500  0.12500  Biso   1.000  Cu
  Cu6      1.0000 0.12500  0.12500  0.62500  Biso   1.000  Cu
  Cu7      1.0000 0.62500  0.62500  0.62500  Biso   1.000  Cu
  Cu8      1.0000 0.62500  0.12500  0.12500  Biso   1.000  Cu
