data_image0
_cell_length_a       9.4504
_cell_length_b       11.458
_cell_length_c       14.579
_cell_angle_alpha    69.86
_cell_angle_beta     85.46
_cell_angle_gamma    86.3

_symmetry_space_group_name_H-M    P 1
_symmetry_int_tables_number       1

loop_
  _symmetry_equiv_pos_as_xyz
  'x, y, z'

loop_
  _atom_site_label
  _atom_site_occupancy
  _atom_site_fract_x
  _atom_site_fract_y
  _atom_site_fract_z
  _atom_site_thermal_displace_type
  _atom_site_B_iso_or_equiv
  _atom_site_type_symbol
  Dy1      1.0000 0.79722  0.95468  0.00260  Biso   1.000  Dy
  Dy2      1.0000 0.20278  0.04532  0.99740  Biso   1.000  Dy
  H1       1.0000 0.86460  0.36890  0.84110  Biso   1.000  H
  H2       1.0000 0.97060  0.37150  0.75230  Biso   1.000  H
  H3       1.0000 0.33400  0.38400  0.88900  Biso   1.000  H
  H4       1.0000 0.27400  0.47200  0.80600  Biso   1.000  H
  H5       1.0000 0.87750  0.94330  0.55630  Biso   1.000  H
  H6       1.0000 0.87170  0.06540  0.46440  Biso   1.000  H
  H7       1.0000 0.27590  0.34540  0.39410  Biso   1.000  H
  H8       1.0000 0.26100  0.28270  0.32140  Biso   1.000  H
  H9       1.0000 0.85370  0.09940  0.28090  Biso   1.000  H
  H10      1.0000 0.81480  0.22480  0.19730  Biso   1.000  H
  H11      1.0000 0.12050  0.53300  0.43430  Biso   1.000  H
  H12      1.0000 0.11230  0.40970  0.52500  Biso   1.000  H
  H13      1.0000 0.66850  0.04480  0.60770  Biso   1.000  H
  H14      1.0000 0.62500  0.11900  0.67220  Biso   1.000  H
  H15      1.0000 0.48280  0.83770  0.80860  Biso   1.000  H
  H16      1.0000 0.63360  0.83310  0.75750  Biso   1.000  H
  H17      1.0000 0.02930  0.48150  0.90880  Biso   1.000  H
  H18      1.0000 0.07940  0.38750  0.00860  Biso   1.000  H
  H19      1.0000 0.62720  0.19150  0.99470  Biso   1.000  H
  H20      1.0000 0.57100  0.15830  0.92920  Biso   1.000  H
  H21      1.0000 0.56200  0.92500  0.13900  Biso   1.000  H
  H22      1.0000 0.63100  0.83100  0.18300  Biso   1.000  H
  H23      1.0000 0.13540  0.63110  0.15890  Biso   1.000  H
  H24      1.0000 0.02940  0.62850  0.24770  Biso   1.000  H
  H25      1.0000 0.66600  0.61600  0.11100  Biso   1.000  H
  H26      1.0000 0.72600  0.52800  0.19400  Biso   1.000  H
  H27      1.0000 0.12250  0.05670  0.44370  Biso   1.000  H
  H28      1.0000 0.12830  0.93460  0.53560  Biso   1.000  H
  H29      1.0000 0.72410  0.65460  0.60590  Biso   1.000  H
  H30      1.0000 0.73900  0.71730  0.67860  Biso   1.000  H
  H31      1.0000 0.14630  0.90060  0.71910  Biso   1.000  H
  H32      1.0000 0.18520  0.77520  0.80270  Biso   1.000  H
  H33      1.0000 0.87950  0.46700  0.56570  Biso   1.000  H
  H34      1.0000 0.88770  0.59030  0.47500  Biso   1.000  H
  H35      1.0000 0.33150  0.95520  0.39230  Biso   1.000  H
  H36      1.0000 0.37500  0.88100  0.32780  Biso   1.000  H
  H37      1.0000 0.51720  0.16230  0.19140  Biso   1.000  H
  H38      1.0000 0.36640  0.16690  0.24250  Biso   1.000  H
  H39      1.0000 0.97070  0.51850  0.09120  Biso   1.000  H
  H40      1.0000 0.92060  0.61250  0.99140  Biso   1.000  H
  H41      1.0000 0.37280  0.80850  0.00530  Biso   1.000  H
  H42      1.0000 0.42900  0.84170  0.07080  Biso   1.000  H
  H43      1.0000 0.43800  0.07500  0.86100  Biso   1.000  H
  H44      1.0000 0.36900  0.16900  0.81700  Biso   1.000  H
  C1       1.0000 0.92520  0.09780  0.14320  Biso   1.000  C
  C2       1.0000 0.88560  0.19720  0.68060  Biso   1.000  C
  C3       1.0000 0.00140  0.21730  0.87240  Biso   1.000  C
  C4       1.0000 0.90980  0.31830  0.80480  Biso   1.000  C
  C5       1.0000 0.92750  0.01800  0.51920  Biso   1.000  C
  C6       1.0000 0.98370  0.30360  0.31520  Biso   1.000  C
  C7       1.0000 0.88810  0.16000  0.21970  Biso   1.000  C
  C8       1.0000 0.94220  0.09370  0.58280  Biso   1.000  C
  C9       1.0000 0.99540  0.40660  0.41450  Biso   1.000  C
  C10      1.0000 0.05700  0.47000  0.47550  Biso   1.000  C
  C11      1.0000 0.57830  0.80140  0.81930  Biso   1.000  C
  C12      1.0000 0.64110  0.84820  0.89220  Biso   1.000  C
  C13      1.0000 0.40210  0.61480  0.91180  Biso   1.000  C
  C14      1.0000 0.19030  0.54550  0.96040  Biso   1.000  C
  C15      1.0000 0.05940  0.47470  0.97260  Biso   1.000  C
  C16      1.0000 0.07480  0.90220  0.85680  Biso   1.000  C
  C17      1.0000 0.11440  0.80280  0.31940  Biso   1.000  C
  C18      1.0000 0.99860  0.78270  0.12760  Biso   1.000  C
  C19      1.0000 0.09020  0.68170  0.19520  Biso   1.000  C
  C20      1.0000 0.07250  0.98200  0.48080  Biso   1.000  C
  C21      1.0000 0.01630  0.69640  0.68480  Biso   1.000  C
  C22      1.0000 0.11190  0.84000  0.78030  Biso   1.000  C
  C23      1.0000 0.05780  0.90630  0.41720  Biso   1.000  C
  C24      1.0000 0.00460  0.59340  0.58550  Biso   1.000  C
  C25      1.0000 0.94300  0.53000  0.52450  Biso   1.000  C
  C26      1.0000 0.42170  0.19860  0.18070  Biso   1.000  C
  C27      1.0000 0.35890  0.15180  0.10780  Biso   1.000  C
  C28      1.0000 0.59790  0.38520  0.08820  Biso   1.000  C
  C29      1.0000 0.80970  0.45450  0.03960  Biso   1.000  C
  C30      1.0000 0.94060  0.52530  0.02740  Biso   1.000  C
  S1       1.0000 0.04883  0.22563  0.23646  Biso   1.000  S
  S2       1.0000 0.56874  0.63521  0.84993  Biso   1.000  S
  S3       1.0000 0.77505  0.26350  0.75191  Biso   1.000  S
  S4       1.0000 0.95117  0.77437  0.76354  Biso   1.000  S
  S5       1.0000 0.43126  0.36479  0.15007  Biso   1.000  S
  S6       1.0000 0.22495  0.73650  0.24809  Biso   1.000  S
  N1       1.0000 0.30970  0.53240  0.90542  Biso   1.000  N
  N2       1.0000 0.20740  0.63190  0.99770  Biso   1.000  N
  N3       1.0000 0.07600  0.34720  0.36184  Biso   1.000  N
  N4       1.0000 0.02200  0.20460  0.66160  Biso   1.000  N
  N5       1.0000 0.34380  0.67480  0.96750  Biso   1.000  N
  N6       1.0000 0.83010  0.12810  0.63317  Biso   1.000  N
  N7       1.0000 0.33810  0.45260  0.85030  Biso   1.000  N
  N8       1.0000 0.22330  0.32180  0.35870  Biso   1.000  N
  N9       1.0000 0.05830  0.13720  0.59820  Biso   1.000  N
  N10      1.0000 0.86280  0.39940  0.40270  Biso   1.000  N
  N11      1.0000 0.85430  0.33340  0.33730  Biso   1.000  N
  N12      1.0000 0.68980  0.09280  0.63840  Biso   1.000  N
  N13      1.0000 0.69030  0.46760  0.09458  Biso   1.000  N
  N14      1.0000 0.79260  0.36810  0.00230  Biso   1.000  N
  N15      1.0000 0.92400  0.65280  0.63816  Biso   1.000  N
  N16      1.0000 0.97800  0.79540  0.33840  Biso   1.000  N
  N17      1.0000 0.65620  0.32520  0.03250  Biso   1.000  N
  N18      1.0000 0.16990  0.87190  0.36683  Biso   1.000  N
  N19      1.0000 0.66190  0.54740  0.14970  Biso   1.000  N
  N20      1.0000 0.77670  0.67820  0.64130  Biso   1.000  N
  N21      1.0000 0.94170  0.86280  0.40180  Biso   1.000  N
  N22      1.0000 0.13720  0.60060  0.59730  Biso   1.000  N
  N23      1.0000 0.14570  0.66660  0.66270  Biso   1.000  N
  N24      1.0000 0.31020  0.90720  0.36160  Biso   1.000  N
  O1       1.0000 0.82800  0.04240  0.12470  Biso   1.000  O
  O2       1.0000 0.94890  0.11549  0.92467  Biso   1.000  O
  O3       1.0000 0.12760  0.23856  0.87672  Biso   1.000  O
  O4       1.0000 0.05060  0.10770  0.10690  Biso   1.000  O
  O5       1.0000 0.68670  0.77790  0.97049  Biso   1.000  O
  O6       1.0000 0.64730  0.96567  0.86653  Biso   1.000  O
  O7       1.0000 0.63040  0.12334  0.98107  Biso   1.000  O
  O8       1.0000 0.60120  0.88180  0.12679  Biso   1.000  O
  O9       1.0000 0.17200  0.95760  0.87530  Biso   1.000  O
  O10      1.0000 0.05110  0.88451  0.07533  Biso   1.000  O
  O11      1.0000 0.87240  0.76144  0.12328  Biso   1.000  O
  O12      1.0000 0.94940  0.89230  0.89310  Biso   1.000  O
  O13      1.0000 0.31330  0.22210  0.02951  Biso   1.000  O
  O14      1.0000 0.35270  0.03433  0.13347  Biso   1.000  O
  O15      1.0000 0.36960  0.87666  0.01893  Biso   1.000  O
  O16      1.0000 0.39880  0.11820  0.87321  Biso   1.000  O
