data_image0
_cell_length_a       9.5104
_cell_length_b       11.515
_cell_length_c       14.575
_cell_angle_alpha    69.47
_cell_angle_beta     85.29
_cell_angle_gamma    86.39

_symmetry_space_group_name_H-M    P 1
_symmetry_int_tables_number       1

loop_
  _symmetry_equiv_pos_as_xyz
  'x, y, z'

loop_
  _atom_site_label
  _atom_site_occupancy
  _atom_site_fract_x
  _atom_site_fract_y
  _atom_site_fract_z
  _atom_site_thermal_displace_type
  _atom_site_B_iso_or_equiv
  _atom_site_type_symbol
  Sm1      1.0000 0.79618  0.95525  0.00224  Biso   1.000  Sm
  Sm2      1.0000 0.20382  0.04475  0.99776  Biso   1.000  Sm
  H1       1.0000 0.86660  0.36970  0.83920  Biso   1.000  H
  H2       1.0000 0.97090  0.37270  0.74960  Biso   1.000  H
  H3       1.0000 0.33600  0.39300  0.88300  Biso   1.000  H
  H4       1.0000 0.27100  0.47500  0.80200  Biso   1.000  H
  H5       1.0000 0.87730  0.94360  0.55660  Biso   1.000  H
  H6       1.0000 0.87250  0.06510  0.46370  Biso   1.000  H
  H7       1.0000 0.27480  0.35030  0.39130  Biso   1.000  H
  H8       1.0000 0.25970  0.28620  0.32010  Biso   1.000  H
  H9       1.0000 0.85210  0.10160  0.28340  Biso   1.000  H
  H10      1.0000 0.81530  0.22620  0.19810  Biso   1.000  H
  H11      1.0000 0.11890  0.53340  0.43370  Biso   1.000  H
  H12      1.0000 0.11120  0.41050  0.52520  Biso   1.000  H
  H13      1.0000 0.67020  0.04810  0.60570  Biso   1.000  H
  H14      1.0000 0.62840  0.11780  0.67320  Biso   1.000  H
  H15      1.0000 0.48420  0.83660  0.80630  Biso   1.000  H
  H16      1.0000 0.63490  0.83070  0.75660  Biso   1.000  H
  H17      1.0000 0.02870  0.48460  0.90770  Biso   1.000  H
  H18      1.0000 0.07780  0.38810  0.00710  Biso   1.000  H
  H19      1.0000 0.62550  0.19580  0.99390  Biso   1.000  H
  H20      1.0000 0.56930  0.16260  0.92840  Biso   1.000  H
  H21      1.0000 0.13340  0.63030  0.16080  Biso   1.000  H
  H22      1.0000 0.02910  0.62730  0.25040  Biso   1.000  H
  H23      1.0000 0.66400  0.60700  0.11700  Biso   1.000  H
  H24      1.0000 0.72900  0.52500  0.19800  Biso   1.000  H
  H25      1.0000 0.12270  0.05640  0.44340  Biso   1.000  H
  H26      1.0000 0.12750  0.93490  0.53630  Biso   1.000  H
  H27      1.0000 0.72520  0.64970  0.60870  Biso   1.000  H
  H28      1.0000 0.74030  0.71380  0.67990  Biso   1.000  H
  H29      1.0000 0.14790  0.89840  0.71660  Biso   1.000  H
  H30      1.0000 0.18470  0.77380  0.80190  Biso   1.000  H
  H31      1.0000 0.88110  0.46660  0.56630  Biso   1.000  H
  H32      1.0000 0.88880  0.58950  0.47480  Biso   1.000  H
  H33      1.0000 0.32980  0.95190  0.39430  Biso   1.000  H
  H34      1.0000 0.37160  0.88220  0.32680  Biso   1.000  H
  H35      1.0000 0.51580  0.16340  0.19370  Biso   1.000  H
  H36      1.0000 0.36510  0.16930  0.24340  Biso   1.000  H
  H37      1.0000 0.97130  0.51540  0.09230  Biso   1.000  H
  H38      1.0000 0.92220  0.61190  0.99290  Biso   1.000  H
  H39      1.0000 0.37450  0.80420  0.00610  Biso   1.000  H
  H40      1.0000 0.43070  0.83740  0.07160  Biso   1.000  H
  C1       1.0000 0.92380  0.09810  0.14710  Biso   1.000  C
  C2       1.0000 0.88660  0.19580  0.68010  Biso   1.000  C
  C3       1.0000 0.00450  0.22110  0.87060  Biso   1.000  C
  C4       1.0000 0.91200  0.31920  0.80340  Biso   1.000  C
  C5       1.0000 0.92740  0.01800  0.51890  Biso   1.000  C
  C6       1.0000 0.98250  0.30370  0.31600  Biso   1.000  C
  C7       1.0000 0.88730  0.16110  0.22150  Biso   1.000  C
  C8       1.0000 0.94290  0.09450  0.58210  Biso   1.000  C
  C9       1.0000 0.99630  0.40660  0.41530  Biso   1.000  C
  C10      1.0000 0.05600  0.47030  0.47550  Biso   1.000  C
  C11      1.0000 0.57850  0.79980  0.81820  Biso   1.000  C
  C12      1.0000 0.63910  0.84690  0.89050  Biso   1.000  C
  C13      1.0000 0.40130  0.61400  0.91200  Biso   1.000  C
  C14      1.0000 0.18920  0.54460  0.96040  Biso   1.000  C
  C15      1.0000 0.05880  0.47560  0.97190  Biso   1.000  C
  C16      1.0000 0.07620  0.90190  0.85290  Biso   1.000  C
  C17      1.0000 0.11340  0.80420  0.31990  Biso   1.000  C
  C18      1.0000 0.99550  0.77890  0.12940  Biso   1.000  C
  C19      1.0000 0.08800  0.68080  0.19660  Biso   1.000  C
  C20      1.0000 0.07260  0.98200  0.48110  Biso   1.000  C
  C21      1.0000 0.01750  0.69630  0.68400  Biso   1.000  C
  C22      1.0000 0.11270  0.83890  0.77850  Biso   1.000  C
  C23      1.0000 0.05710  0.90550  0.41790  Biso   1.000  C
  C24      1.0000 0.00370  0.59340  0.58470  Biso   1.000  C
  C25      1.0000 0.94400  0.52970  0.52450  Biso   1.000  C
  C26      1.0000 0.42150  0.20020  0.18180  Biso   1.000  C
  C27      1.0000 0.36090  0.15310  0.10950  Biso   1.000  C
  C28      1.0000 0.59870  0.38600  0.08800  Biso   1.000  C
  C29      1.0000 0.81080  0.45540  0.03960  Biso   1.000  C
  C30      1.0000 0.94120  0.52440  0.02810  Biso   1.000  C
  S1       1.0000 0.04804  0.22620  0.23741  Biso   1.000  S
  S2       1.0000 0.56726  0.63370  0.85044  Biso   1.000  S
  S3       1.0000 0.77807  0.25957  0.75341  Biso   1.000  S
  S4       1.0000 0.95196  0.77380  0.76259  Biso   1.000  S
  S5       1.0000 0.43274  0.36630  0.14956  Biso   1.000  S
  S6       1.0000 0.22193  0.74043  0.24659  Biso   1.000  S
  N1       1.0000 0.30770  0.53310  0.90510  Biso   1.000  N
  N2       1.0000 0.20650  0.63040  0.99820  Biso   1.000  N
  N3       1.0000 0.07570  0.34770  0.36220  Biso   1.000  N
  N4       1.0000 0.02340  0.20350  0.66200  Biso   1.000  N
  N5       1.0000 0.34330  0.67380  0.96780  Biso   1.000  N
  N6       1.0000 0.83150  0.12630  0.63390  Biso   1.000  N
  N7       1.0000 0.33650  0.45430  0.84910  Biso   1.000  N
  N8       1.0000 0.22230  0.32520  0.35720  Biso   1.000  N
  N9       1.0000 0.05820  0.13670  0.59710  Biso   1.000  N
  N10      1.0000 0.86380  0.39950  0.40300  Biso   1.000  N
  N11      1.0000 0.85480  0.33200  0.33960  Biso   1.000  N
  N12      1.0000 0.69230  0.09320  0.63810  Biso   1.000  N
  N13      1.0000 0.69230  0.46690  0.09490  Biso   1.000  N
  N14      1.0000 0.79350  0.36960  0.00180  Biso   1.000  N
  N15      1.0000 0.92430  0.65230  0.63780  Biso   1.000  N
  N16      1.0000 0.97660  0.79650  0.33800  Biso   1.000  N
  N17      1.0000 0.65670  0.32620  0.03220  Biso   1.000  N
  N18      1.0000 0.16850  0.87370  0.36610  Biso   1.000  N
  N19      1.0000 0.66350  0.54570  0.15090  Biso   1.000  N
  N20      1.0000 0.77770  0.67480  0.64280  Biso   1.000  N
  N21      1.0000 0.94180  0.86330  0.40290  Biso   1.000  N
  N22      1.0000 0.13620  0.60050  0.59700  Biso   1.000  N
  N23      1.0000 0.14520  0.66800  0.66040  Biso   1.000  N
  N24      1.0000 0.30770  0.90680  0.36190  Biso   1.000  N
  O1       1.0000 0.82700  0.04440  0.12700  Biso   1.000  O
  O2       1.0000 0.95570  0.11800  0.92550  Biso   1.000  O
  O3       1.0000 0.13070  0.24380  0.87280  Biso   1.000  O
  O4       1.0000 0.05040  0.10320  0.11210  Biso   1.000  O
  O5       1.0000 0.68590  0.77710  0.96910  Biso   1.000  O
  O6       1.0000 0.64340  0.96380  0.86500  Biso   1.000  O
  O7       1.0000 0.62870  0.12760  0.98030  Biso   1.000  O
  O8       1.0000 0.59630  0.88110  0.13080  Biso   1.000  O
  O9       1.0000 0.17300  0.95560  0.87300  Biso   1.000  O
  O10      1.0000 0.04430  0.88200  0.07450  Biso   1.000  O
  O11      1.0000 0.86930  0.75620  0.12720  Biso   1.000  O
  O12      1.0000 0.94960  0.89680  0.88790  Biso   1.000  O
  O13      1.0000 0.31410  0.22290  0.03090  Biso   1.000  O
  O14      1.0000 0.35660  0.03620  0.13500  Biso   1.000  O
  O15      1.0000 0.37130  0.87240  0.01970  Biso   1.000  O
  O16      1.0000 0.40370  0.11890  0.86920  Biso   1.000  O
