data_image0
_cell_length_a       9.4829
_cell_length_b       11.505
_cell_length_c       14.582
_cell_angle_alpha    69.48
_cell_angle_beta     85.36
_cell_angle_gamma    86.32

_symmetry_space_group_name_H-M    P 1
_symmetry_int_tables_number       1

loop_
  _symmetry_equiv_pos_as_xyz
  'x, y, z'

loop_
  _atom_site_label
  _atom_site_occupancy
  _atom_site_fract_x
  _atom_site_fract_y
  _atom_site_fract_z
  _atom_site_thermal_displace_type
  _atom_site_B_iso_or_equiv
  _atom_site_type_symbol
  Eu1      1.0000 0.79662  0.95506  0.00239  Biso   1.000  Eu
  Eu2      1.0000 0.20338  0.04494  0.99761  Biso   1.000  Eu
  H1       1.0000 0.86500  0.36850  0.83990  Biso   1.000  H
  H2       1.0000 0.97000  0.37170  0.75060  Biso   1.000  H
  H3       1.0000 0.33200  0.38600  0.89000  Biso   1.000  H
  H4       1.0000 0.26400  0.48200  0.80200  Biso   1.000  H
  H5       1.0000 0.87810  0.94340  0.55610  Biso   1.000  H
  H6       1.0000 0.87330  0.06570  0.46400  Biso   1.000  H
  H7       1.0000 0.27490  0.34590  0.39450  Biso   1.000  H
  H8       1.0000 0.26040  0.28240  0.32270  Biso   1.000  H
  H9       1.0000 0.85190  0.10210  0.28220  Biso   1.000  H
  H10      1.0000 0.81570  0.22720  0.19730  Biso   1.000  H
  H11      1.0000 0.12070  0.53150  0.43500  Biso   1.000  H
  H12      1.0000 0.11000  0.40890  0.52660  Biso   1.000  H
  H13      1.0000 0.66960  0.04810  0.60590  Biso   1.000  H
  H14      1.0000 0.62750  0.12020  0.67160  Biso   1.000  H
  H15      1.0000 0.48270  0.83660  0.80650  Biso   1.000  H
  H16      1.0000 0.63350  0.83140  0.75620  Biso   1.000  H
  H17      1.0000 0.03040  0.48080  0.90880  Biso   1.000  H
  H18      1.0000 0.07950  0.38730  0.00950  Biso   1.000  H
  H19      1.0000 0.62620  0.19420  0.99390  Biso   1.000  H
  H20      1.0000 0.57000  0.16100  0.92840  Biso   1.000  H
  H21      1.0000 0.13500  0.63150  0.16010  Biso   1.000  H
  H22      1.0000 0.03000  0.62830  0.24940  Biso   1.000  H
  H23      1.0000 0.66800  0.61400  0.11000  Biso   1.000  H
  H24      1.0000 0.73600  0.51800  0.19800  Biso   1.000  H
  H25      1.0000 0.12190  0.05660  0.44390  Biso   1.000  H
  H26      1.0000 0.12670  0.93430  0.53600  Biso   1.000  H
  H27      1.0000 0.72510  0.65410  0.60550  Biso   1.000  H
  H28      1.0000 0.73960  0.71760  0.67730  Biso   1.000  H
  H29      1.0000 0.14810  0.89790  0.71780  Biso   1.000  H
  H30      1.0000 0.18430  0.77280  0.80270  Biso   1.000  H
  H31      1.0000 0.87930  0.46850  0.56500  Biso   1.000  H
  H32      1.0000 0.89000  0.59110  0.47340  Biso   1.000  H
  H33      1.0000 0.33040  0.95190  0.39410  Biso   1.000  H
  H34      1.0000 0.37250  0.87980  0.32840  Biso   1.000  H
  H35      1.0000 0.51730  0.16340  0.19350  Biso   1.000  H
  H36      1.0000 0.36650  0.16860  0.24380  Biso   1.000  H
  H37      1.0000 0.96960  0.51920  0.09120  Biso   1.000  H
  H38      1.0000 0.92050  0.61270  0.99050  Biso   1.000  H
  H39      1.0000 0.37380  0.80580  0.00610  Biso   1.000  H
  H40      1.0000 0.43000  0.83900  0.07160  Biso   1.000  H
  C1       1.0000 0.92360  0.09860  0.14560  Biso   1.000  C
  C2       1.0000 0.88640  0.19470  0.68120  Biso   1.000  C
  C3       1.0000 0.00380  0.21860  0.87190  Biso   1.000  C
  C4       1.0000 0.91050  0.31810  0.80390  Biso   1.000  C
  C5       1.0000 0.92840  0.01790  0.51900  Biso   1.000  C
  C6       1.0000 0.98400  0.30360  0.31590  Biso   1.000  C
  C7       1.0000 0.88760  0.16170  0.22060  Biso   1.000  C
  C8       1.0000 0.94290  0.09290  0.58290  Biso   1.000  C
  C9       1.0000 0.99670  0.40600  0.41520  Biso   1.000  C
  C10      1.0000 0.05620  0.46940  0.47620  Biso   1.000  C
  C11      1.0000 0.57760  0.80020  0.81800  Biso   1.000  C
  C12      1.0000 0.63950  0.84770  0.89090  Biso   1.000  C
  C13      1.0000 0.40100  0.61550  0.91140  Biso   1.000  C
  C14      1.0000 0.18970  0.54580  0.96060  Biso   1.000  C
  C15      1.0000 0.05970  0.47430  0.97270  Biso   1.000  C
  C16      1.0000 0.07640  0.90140  0.85440  Biso   1.000  C
  C17      1.0000 0.11360  0.80530  0.31880  Biso   1.000  C
  C18      1.0000 0.99620  0.78140  0.12810  Biso   1.000  C
  C19      1.0000 0.08950  0.68190  0.19610  Biso   1.000  C
  C20      1.0000 0.07160  0.98210  0.48100  Biso   1.000  C
  C21      1.0000 0.01600  0.69640  0.68410  Biso   1.000  C
  C22      1.0000 0.11240  0.83830  0.77940  Biso   1.000  C
  C23      1.0000 0.05710  0.90710  0.41710  Biso   1.000  C
  C24      1.0000 0.00330  0.59400  0.58480  Biso   1.000  C
  C25      1.0000 0.94380  0.53060  0.52380  Biso   1.000  C
  C26      1.0000 0.42240  0.19980  0.18200  Biso   1.000  C
  C27      1.0000 0.36050  0.15230  0.10910  Biso   1.000  C
  C28      1.0000 0.59900  0.38450  0.08860  Biso   1.000  C
  C29      1.0000 0.81030  0.45420  0.03940  Biso   1.000  C
  C30      1.0000 0.94030  0.52570  0.02730  Biso   1.000  C
  S1       1.0000 0.04813  0.22556  0.23759  Biso   1.000  S
  S2       1.0000 0.56767  0.63423  0.85020  Biso   1.000  S
  S3       1.0000 0.77655  0.26068  0.75283  Biso   1.000  S
  S4       1.0000 0.95187  0.77444  0.76241  Biso   1.000  S
  S5       1.0000 0.43233  0.36577  0.14980  Biso   1.000  S
  S6       1.0000 0.22345  0.73932  0.24717  Biso   1.000  S
  N1       1.0000 0.30900  0.53200  0.90570  Biso   1.000  N
  N2       1.0000 0.20690  0.63000  0.99880  Biso   1.000  N
  N3       1.0000 0.07550  0.34640  0.36280  Biso   1.000  N
  N4       1.0000 0.02250  0.20320  0.66160  Biso   1.000  N
  N5       1.0000 0.34300  0.67410  0.96750  Biso   1.000  N
  N6       1.0000 0.83160  0.12700  0.63350  Biso   1.000  N
  N7       1.0000 0.33700  0.45350  0.84990  Biso   1.000  N
  N8       1.0000 0.22270  0.32170  0.35960  Biso   1.000  N
  N9       1.0000 0.05870  0.13630  0.59790  Biso   1.000  N
  N10      1.0000 0.86400  0.40060  0.40290  Biso   1.000  N
  N11      1.0000 0.85450  0.33350  0.33790  Biso   1.000  N
  N12      1.0000 0.69170  0.09420  0.63750  Biso   1.000  N
  N13      1.0000 0.69100  0.46800  0.09430  Biso   1.000  N
  N14      1.0000 0.79310  0.37000  0.00120  Biso   1.000  N
  N15      1.0000 0.92450  0.65360  0.63720  Biso   1.000  N
  N16      1.0000 0.97750  0.79680  0.33840  Biso   1.000  N
  N17      1.0000 0.65700  0.32590  0.03250  Biso   1.000  N
  N18      1.0000 0.16840  0.87300  0.36650  Biso   1.000  N
  N19      1.0000 0.66300  0.54650  0.15010  Biso   1.000  N
  N20      1.0000 0.77730  0.67830  0.64040  Biso   1.000  N
  N21      1.0000 0.94130  0.86370  0.40210  Biso   1.000  N
  N22      1.0000 0.13600  0.59940  0.59710  Biso   1.000  N
  N23      1.0000 0.14550  0.66650  0.66210  Biso   1.000  N
  N24      1.0000 0.30830  0.90580  0.36250  Biso   1.000  N
  O1       1.0000 0.82650  0.04370  0.12670  Biso   1.000  O
  O2       1.0000 0.95330  0.11720  0.92540  Biso   1.000  O
  O3       1.0000 0.12960  0.24290  0.87350  Biso   1.000  O
  O4       1.0000 0.05020  0.10440  0.11120  Biso   1.000  O
  O5       1.0000 0.68590  0.77750  0.96910  Biso   1.000  O
  O6       1.0000 0.64410  0.96520  0.86500  Biso   1.000  O
  O7       1.0000 0.62940  0.12610  0.98030  Biso   1.000  O
  O8       1.0000 0.59720  0.88110  0.13040  Biso   1.000  O
  O9       1.0000 0.17350  0.95630  0.87330  Biso   1.000  O
  O10      1.0000 0.04670  0.88280  0.07460  Biso   1.000  O
  O11      1.0000 0.87040  0.75710  0.12650  Biso   1.000  O
  O12      1.0000 0.94980  0.89560  0.88880  Biso   1.000  O
  O13      1.0000 0.31410  0.22250  0.03090  Biso   1.000  O
  O14      1.0000 0.35590  0.03480  0.13500  Biso   1.000  O
  O15      1.0000 0.37060  0.87390  0.01970  Biso   1.000  O
  O16      1.0000 0.40280  0.11890  0.86960  Biso   1.000  O
