data_image0
_cell_length_a       9.4642
_cell_length_b       11.474
_cell_length_c       14.575
_cell_angle_alpha    69.77
_cell_angle_beta     85.43
_cell_angle_gamma    86.44

_symmetry_space_group_name_H-M    P 1
_symmetry_int_tables_number       1

loop_
  _symmetry_equiv_pos_as_xyz
  'x, y, z'

loop_
  _atom_site_label
  _atom_site_occupancy
  _atom_site_fract_x
  _atom_site_fract_y
  _atom_site_fract_z
  _atom_site_thermal_displace_type
  _atom_site_B_iso_or_equiv
  _atom_site_type_symbol
  Tb1      1.0000 0.79701  0.95465  0.00252  Biso   1.000  Tb
  Tb2      1.0000 0.20299  0.04535  0.99748  Biso   1.000  Tb
  H1       1.0000 0.86600  0.36890  0.84100  Biso   1.000  H
  H2       1.0000 0.97170  0.37180  0.75200  Biso   1.000  H
  H3       1.0000 0.32900  0.38800  0.88800  Biso   1.000  H
  H4       1.0000 0.26300  0.48000  0.80900  Biso   1.000  H
  H5       1.0000 0.87800  0.94260  0.55660  Biso   1.000  H
  H6       1.0000 0.87170  0.06450  0.46460  Biso   1.000  H
  H7       1.0000 0.27590  0.34810  0.39220  Biso   1.000  H
  H8       1.0000 0.26020  0.28500  0.32000  Biso   1.000  H
  H9       1.0000 0.85270  0.09950  0.28170  Biso   1.000  H
  H10      1.0000 0.81410  0.22460  0.19780  Biso   1.000  H
  H11      1.0000 0.11870  0.53410  0.43340  Biso   1.000  H
  H12      1.0000 0.11240  0.41100  0.52450  Biso   1.000  H
  H13      1.0000 0.66970  0.04510  0.60740  Biso   1.000  H
  H14      1.0000 0.62640  0.11850  0.67230  Biso   1.000  H
  H15      1.0000 0.48370  0.83640  0.80800  Biso   1.000  H
  H16      1.0000 0.63460  0.83140  0.75750  Biso   1.000  H
  H17      1.0000 0.02930  0.48230  0.90810  Biso   1.000  H
  H18      1.0000 0.07940  0.38750  0.00770  Biso   1.000  H
  H19      1.0000 0.62730  0.19210  0.99460  Biso   1.000  H
  H20      1.0000 0.57110  0.15890  0.92910  Biso   1.000  H
  H21      1.0000 0.13400  0.63110  0.15900  Biso   1.000  H
  H22      1.0000 0.02830  0.62820  0.24800  Biso   1.000  H
  H23      1.0000 0.67100  0.61200  0.11200  Biso   1.000  H
  H24      1.0000 0.73700  0.52000  0.19100  Biso   1.000  H
  H25      1.0000 0.12200  0.05740  0.44340  Biso   1.000  H
  H26      1.0000 0.12830  0.93550  0.53540  Biso   1.000  H
  H27      1.0000 0.72410  0.65190  0.60780  Biso   1.000  H
  H28      1.0000 0.73980  0.71500  0.68000  Biso   1.000  H
  H29      1.0000 0.14730  0.90050  0.71830  Biso   1.000  H
  H30      1.0000 0.18590  0.77540  0.80220  Biso   1.000  H
  H31      1.0000 0.88130  0.46590  0.56660  Biso   1.000  H
  H32      1.0000 0.88760  0.58900  0.47550  Biso   1.000  H
  H33      1.0000 0.33030  0.95490  0.39260  Biso   1.000  H
  H34      1.0000 0.37360  0.88150  0.32770  Biso   1.000  H
  H35      1.0000 0.51630  0.16360  0.19200  Biso   1.000  H
  H36      1.0000 0.36540  0.16860  0.24250  Biso   1.000  H
  H37      1.0000 0.97070  0.51770  0.09190  Biso   1.000  H
  H38      1.0000 0.92060  0.61250  0.99230  Biso   1.000  H
  H39      1.0000 0.37270  0.80790  0.00540  Biso   1.000  H
  H40      1.0000 0.42890  0.84110  0.07090  Biso   1.000  H
  C1       1.0000 0.92490  0.09800  0.14410  Biso   1.000  C
  C2       1.0000 0.88660  0.19630  0.68040  Biso   1.000  C
  C3       1.0000 0.00260  0.21800  0.87220  Biso   1.000  C
  C4       1.0000 0.91120  0.31850  0.80480  Biso   1.000  C
  C5       1.0000 0.92760  0.01750  0.51930  Biso   1.000  C
  C6       1.0000 0.98320  0.30340  0.31530  Biso   1.000  C
  C7       1.0000 0.88720  0.16000  0.22030  Biso   1.000  C
  C8       1.0000 0.94220  0.09340  0.58290  Biso   1.000  C
  C9       1.0000 0.99540  0.40610  0.41510  Biso   1.000  C
  C10      1.0000 0.05620  0.47060  0.47530  Biso   1.000  C
  C11      1.0000 0.57890  0.80000  0.81920  Biso   1.000  C
  C12      1.0000 0.64070  0.84690  0.89180  Biso   1.000  C
  C13      1.0000 0.40190  0.61490  0.91210  Biso   1.000  C
  C14      1.0000 0.18980  0.54600  0.96030  Biso   1.000  C
  C15      1.0000 0.05950  0.47480  0.97200  Biso   1.000  C
  C16      1.0000 0.07510  0.90200  0.85590  Biso   1.000  C
  C17      1.0000 0.11340  0.80370  0.31960  Biso   1.000  C
  C18      1.0000 0.99740  0.78200  0.12780  Biso   1.000  C
  C19      1.0000 0.08880  0.68150  0.19520  Biso   1.000  C
  C20      1.0000 0.07240  0.98250  0.48070  Biso   1.000  C
  C21      1.0000 0.01680  0.69660  0.68470  Biso   1.000  C
  C22      1.0000 0.11280  0.84000  0.77970  Biso   1.000  C
  C23      1.0000 0.05780  0.90660  0.41710  Biso   1.000  C
  C24      1.0000 0.00460  0.59390  0.58490  Biso   1.000  C
  C25      1.0000 0.94380  0.52940  0.52470  Biso   1.000  C
  C26      1.0000 0.42110  0.20000  0.18080  Biso   1.000  C
  C27      1.0000 0.35930  0.15310  0.10820  Biso   1.000  C
  C28      1.0000 0.59810  0.38510  0.08790  Biso   1.000  C
  C29      1.0000 0.81020  0.45400  0.03970  Biso   1.000  C
  C30      1.0000 0.94050  0.52520  0.02800  Biso   1.000  C
  S1       1.0000 0.04805  0.22599  0.23666  Biso   1.000  S
  S2       1.0000 0.56874  0.63445  0.85038  Biso   1.000  S
  S3       1.0000 0.77634  0.26225  0.75251  Biso   1.000  S
  S4       1.0000 0.95195  0.77401  0.76334  Biso   1.000  S
  S5       1.0000 0.43126  0.36555  0.14962  Biso   1.000  S
  S6       1.0000 0.22366  0.73775  0.24749  Biso   1.000  S
  N1       1.0000 0.30960  0.53250  0.90500  Biso   1.000  N
  N2       1.0000 0.20710  0.63220  0.99690  Biso   1.000  N
  N3       1.0000 0.07570  0.34760  0.36210  Biso   1.000  N
  N4       1.0000 0.02250  0.20460  0.66160  Biso   1.000  N
  N5       1.0000 0.34370  0.67470  0.96730  Biso   1.000  N
  N6       1.0000 0.83100  0.12760  0.63350  Biso   1.000  N
  N7       1.0000 0.33770  0.45300  0.85020  Biso   1.000  N
  N8       1.0000 0.22300  0.32390  0.35750  Biso   1.000  N
  N9       1.0000 0.05810  0.13720  0.59770  Biso   1.000  N
  N10      1.0000 0.86330  0.39780  0.40400  Biso   1.000  N
  N11      1.0000 0.85400  0.33110  0.33960  Biso   1.000  N
  N12      1.0000 0.69110  0.09260  0.63840  Biso   1.000  N
  N13      1.0000 0.69040  0.46750  0.09500  Biso   1.000  N
  N14      1.0000 0.79290  0.36780  0.00310  Biso   1.000  N
  N15      1.0000 0.92430  0.65240  0.63790  Biso   1.000  N
  N16      1.0000 0.97750  0.79540  0.33840  Biso   1.000  N
  N17      1.0000 0.65630  0.32530  0.03270  Biso   1.000  N
  N18      1.0000 0.16900  0.87240  0.36650  Biso   1.000  N
  N19      1.0000 0.66230  0.54700  0.14980  Biso   1.000  N
  N20      1.0000 0.77700  0.67610  0.64250  Biso   1.000  N
  N21      1.0000 0.94190  0.86280  0.40230  Biso   1.000  N
  N22      1.0000 0.13670  0.60220  0.59600  Biso   1.000  N
  N23      1.0000 0.14600  0.66890  0.66040  Biso   1.000  N
  N24      1.0000 0.30890  0.90740  0.36160  Biso   1.000  N
  O1       1.0000 0.82740  0.04230  0.12535  Biso   1.000  O
  O2       1.0000 0.95050  0.11580  0.92537  Biso   1.000  O
  O3       1.0000 0.12910  0.23980  0.87560  Biso   1.000  O
  O4       1.0000 0.05000  0.10690  0.10830  Biso   1.000  O
  O5       1.0000 0.68690  0.77790  0.97020  Biso   1.000  O
  O6       1.0000 0.64640  0.96510  0.86630  Biso   1.000  O
  O7       1.0000 0.63050  0.12400  0.98100  Biso   1.000  O
  O8       1.0000 0.59890  0.88170  0.12830  Biso   1.000  O
  O9       1.0000 0.17260  0.95770  0.87465  Biso   1.000  O
  O10      1.0000 0.04950  0.88420  0.07463  Biso   1.000  O
  O11      1.0000 0.87090  0.76020  0.12440  Biso   1.000  O
  O12      1.0000 0.95000  0.89310  0.89170  Biso   1.000  O
  O13      1.0000 0.31310  0.22210  0.02980  Biso   1.000  O
  O14      1.0000 0.35360  0.03490  0.13370  Biso   1.000  O
  O15      1.0000 0.36950  0.87600  0.01900  Biso   1.000  O
  O16      1.0000 0.40110  0.11830  0.87170  Biso   1.000  O
