data_image0
_cell_length_a       8.497
_cell_length_b       9.49
_cell_length_c       14.135
_cell_angle_alpha    80.55
_cell_angle_beta     88.56
_cell_angle_gamma    73.51

_symmetry_space_group_name_H-M    P 1
_symmetry_int_tables_number       1

loop_
  _symmetry_equiv_pos_as_xyz
  'x, y, z'

loop_
  _atom_site_label
  _atom_site_occupancy
  _atom_site_fract_x
  _atom_site_fract_y
  _atom_site_fract_z
  _atom_site_thermal_displace_type
  _atom_site_B_iso_or_equiv
  _atom_site_type_symbol
  Cu1      1.0000 0.55652  0.64415  0.14309  Biso   1.000  Cu
  Cu2      1.0000 0.51539  0.79844  0.90222  Biso   1.000  Cu
  Cu3      1.0000 0.44348  0.35585  0.85691  Biso   1.000  Cu
  Cu4      1.0000 0.48461  0.20156  0.09778  Biso   1.000  Cu
  H1       1.0000 0.06360  0.90020  0.17400  Biso   1.000  H
  H2       1.0000 0.96600  0.37710  0.01020  Biso   1.000  H
  H3       1.0000 0.57990  0.37220  0.28940  Biso   1.000  H
  H4       1.0000 0.45720  0.30390  0.42850  Biso   1.000  H
  H5       1.0000 0.22330  0.73390  0.42720  Biso   1.000  H
  H6       1.0000 0.35070  0.79140  0.28820  Biso   1.000  H
  H7       1.0000 0.90880  0.77820  0.63920  Biso   1.000  H
  H8       1.0000 0.69900  0.88410  0.73310  Biso   1.000  H
  H9       1.0000 0.73180  0.50070  0.89300  Biso   1.000  H
  H10      1.0000 0.93490  0.38300  0.79940  Biso   1.000  H
  H11      1.0000 0.14080  0.28120  0.69580  Biso   1.000  H
  H12      1.0000 0.93640  0.09980  0.82600  Biso   1.000  H
  H13      1.0000 0.03400  0.62290  0.98980  Biso   1.000  H
  H14      1.0000 0.42010  0.62780  0.71060  Biso   1.000  H
  H15      1.0000 0.54280  0.69610  0.57150  Biso   1.000  H
  H16      1.0000 0.77670  0.26610  0.57280  Biso   1.000  H
  H17      1.0000 0.64930  0.20860  0.71180  Biso   1.000  H
  H18      1.0000 0.09120  0.22180  0.36080  Biso   1.000  H
  H19      1.0000 0.30100  0.11590  0.26690  Biso   1.000  H
  H20      1.0000 0.26820  0.49930  0.10700  Biso   1.000  H
  H21      1.0000 0.06510  0.61700  0.20060  Biso   1.000  H
  H22      1.0000 0.85920  0.71880  0.30420  Biso   1.000  H
  C1       1.0000 0.30250  0.91010  0.05280  Biso   1.000  C
  C2       1.0000 0.15440  0.02940  0.07250  Biso   1.000  C
  C3       1.0000 0.04090  0.99560  0.13870  Biso   1.000  C
  C4       1.0000 0.89500  0.10040  0.15320  Biso   1.000  C
  C5       1.0000 0.86780  0.24580  0.10470  Biso   1.000  C
  C6       1.0000 0.98360  0.27940  0.04110  Biso   1.000  C
  C7       1.0000 0.12430  0.17320  0.02190  Biso   1.000  C
  C8       1.0000 0.23480  0.22360  0.94710  Biso   1.000  C
  C9       1.0000 0.77540  0.05050  0.22350  Biso   1.000  C
  C10      1.0000 0.72190  0.37500  0.11550  Biso   1.000  C
  C11      1.0000 0.50540  0.44580  0.31700  Biso   1.000  C
  C12      1.0000 0.43250  0.40360  0.40060  Biso   1.000  C
  C13      1.0000 0.32220  0.51130  0.44260  Biso   1.000  C
  C14      1.0000 0.29410  0.65820  0.39960  Biso   1.000  C
  C15      1.0000 0.37110  0.69190  0.31620  Biso   1.000  C
  C16      1.0000 0.23420  0.47420  0.52970  Biso   1.000  C
  C17      1.0000 0.07180  0.50050  0.64310  Biso   1.000  C
  C18      1.0000 0.94460  0.56630  0.70820  Biso   1.000  C
  C19      1.0000 0.87320  0.71940  0.68950  Biso   1.000  C
  C20      1.0000 0.74890  0.78210  0.74710  Biso   1.000  C
  C21      1.0000 0.76680  0.55660  0.84070  Biso   1.000  C
  C22      1.0000 0.88930  0.48560  0.78510  Biso   1.000  C
  C23      1.0000 0.69750  0.08990  0.94720  Biso   1.000  C
  C24      1.0000 0.84560  0.97060  0.92750  Biso   1.000  C
  C25      1.0000 0.95910  0.00440  0.86130  Biso   1.000  C
  C26      1.0000 0.10500  0.89960  0.84680  Biso   1.000  C
  C27      1.0000 0.13220  0.75420  0.89530  Biso   1.000  C
  C28      1.0000 0.01640  0.72060  0.95890  Biso   1.000  C
  C29      1.0000 0.87570  0.82680  0.97810  Biso   1.000  C
  C30      1.0000 0.76520  0.77640  0.05290  Biso   1.000  C
  C31      1.0000 0.22460  0.94950  0.77650  Biso   1.000  C
  C32      1.0000 0.27810  0.62500  0.88450  Biso   1.000  C
  C33      1.0000 0.49460  0.55420  0.68300  Biso   1.000  C
  C34      1.0000 0.56750  0.59640  0.59940  Biso   1.000  C
  C35      1.0000 0.67780  0.48870  0.55740  Biso   1.000  C
  C36      1.0000 0.70590  0.34180  0.60040  Biso   1.000  C
  C37      1.0000 0.62890  0.30810  0.68380  Biso   1.000  C
  C38      1.0000 0.76580  0.52580  0.47030  Biso   1.000  C
  C39      1.0000 0.92820  0.49950  0.35690  Biso   1.000  C
  C40      1.0000 0.05540  0.43370  0.29180  Biso   1.000  C
  C41      1.0000 0.12680  0.28060  0.31050  Biso   1.000  C
  C42      1.0000 0.25110  0.21790  0.25290  Biso   1.000  C
  C43      1.0000 0.23320  0.44340  0.15930  Biso   1.000  C
  C44      1.0000 0.11070  0.51440  0.21490  Biso   1.000  C
  N1       1.0000 0.47440  0.58790  0.27300  Biso   1.000  N
  N2       1.0000 0.12110  0.57890  0.56800  Biso   1.000  N
  N3       1.0000 0.25720  0.33710  0.57570  Biso   1.000  N
  N4       1.0000 0.15190  0.35560  0.64900  Biso   1.000  N
  N5       1.0000 0.69650  0.70360  0.82190  Biso   1.000  N
  N6       1.0000 0.52560  0.41210  0.72700  Biso   1.000  N
  N7       1.0000 0.87890  0.42110  0.43200  Biso   1.000  N
  N8       1.0000 0.74280  0.66290  0.42430  Biso   1.000  N
  N9       1.0000 0.84810  0.64440  0.35100  Biso   1.000  N
  N10      1.0000 0.30350  0.29640  0.17810  Biso   1.000  N
  O1       1.0000 0.34830  0.79590  0.11520  Biso   1.000  O
  O2       1.0000 0.36650  0.93470  0.97340  Biso   1.000  O
  O3       1.0000 0.34690  0.27620  0.97710  Biso   1.000  O
  O4       1.0000 0.21130  0.22950  0.86220  Biso   1.000  O
  O5       1.0000 0.62190  0.11460  0.21270  Biso   1.000  O
  O6       1.0000 0.83540  0.94840  0.28990  Biso   1.000  O
  O7       1.0000 0.74870  0.47130  0.15950  Biso   1.000  O
  O8       1.0000 0.58700  0.38850  0.07740  Biso   1.000  O
  O9       1.0000 0.65170  0.20410  0.88480  Biso   1.000  O
  O10      1.0000 0.63350  0.06530  0.02660  Biso   1.000  O
  O11      1.0000 0.65310  0.72380  0.02290  Biso   1.000  O
  O12      1.0000 0.78870  0.77050  0.13780  Biso   1.000  O
  O13      1.0000 0.37810  0.88540  0.78730  Biso   1.000  O
  O14      1.0000 0.16460  0.05160  0.71010  Biso   1.000  O
  O15      1.0000 0.25130  0.52870  0.84050  Biso   1.000  O
  O16      1.0000 0.41300  0.61150  0.92260  Biso   1.000  O
