data_image0
_cell_length_a       8.007
_cell_length_b       15.88
_cell_length_c       29.445
_cell_angle_alpha    90
_cell_angle_beta     90
_cell_angle_gamma    90

_symmetry_space_group_name_H-M    P 1
_symmetry_int_tables_number       1

loop_
  _symmetry_equiv_pos_as_xyz
  'x, y, z'

loop_
  _atom_site_label
  _atom_site_occupancy
  _atom_site_fract_x
  _atom_site_fract_y
  _atom_site_fract_z
  _atom_site_thermal_displace_type
  _atom_site_B_iso_or_equiv
  _atom_site_type_symbol
  Eu1      1.0000 0.44995  0.70682  0.58896  Biso   1.000  Eu
  Eu2      1.0000 0.05005  0.20682  0.41104  Biso   1.000  Eu
  Eu3      1.0000 0.55005  0.29318  0.08896  Biso   1.000  Eu
  Eu4      1.0000 0.94995  0.79318  0.91104  Biso   1.000  Eu
  Eu5      1.0000 0.55005  0.29318  0.41104  Biso   1.000  Eu
  Eu6      1.0000 0.94995  0.79318  0.58896  Biso   1.000  Eu
  Eu7      1.0000 0.44995  0.70682  0.91104  Biso   1.000  Eu
  Eu8      1.0000 0.05005  0.20682  0.08896  Biso   1.000  Eu
  H1       1.0000 0.27680  0.51480  0.49260  Biso   1.000  H
  H2       1.0000 0.00490  0.44690  0.38410  Biso   1.000  H
  H3       1.0000 0.86140  0.57410  0.38800  Biso   1.000  H
  H4       1.0000 0.91110  0.66590  0.44760  Biso   1.000  H
  H5       1.0000 0.41280  0.50210  0.56150  Biso   1.000  H
  H6       1.0000 0.52260  0.29800  0.58860  Biso   1.000  H
  H7       1.0000 0.55810  0.35810  0.54750  Biso   1.000  H
  H8       1.0000 0.37380  0.34060  0.56270  Biso   1.000  H
  H9       1.0000 0.58760  0.34520  0.65170  Biso   1.000  H
  H10      1.0000 0.48540  0.42110  0.67130  Biso   1.000  H
  H11      1.0000 0.66540  0.43580  0.65200  Biso   1.000  H
  H12      1.0000 0.78350  0.93260  0.68180  Biso   1.000  H
  H13      1.0000 0.22320  0.01480  0.50740  Biso   1.000  H
  H14      1.0000 0.49510  0.94690  0.61590  Biso   1.000  H
  H15      1.0000 0.63860  0.07410  0.61200  Biso   1.000  H
  H16      1.0000 0.58890  0.16590  0.55240  Biso   1.000  H
  H17      1.0000 0.08720  0.00210  0.43850  Biso   1.000  H
  H18      1.0000 0.97740  0.79800  0.41140  Biso   1.000  H
  H19      1.0000 0.94190  0.85810  0.45250  Biso   1.000  H
  H20      1.0000 0.12620  0.84060  0.43730  Biso   1.000  H
  H21      1.0000 0.91240  0.84520  0.34830  Biso   1.000  H
  H22      1.0000 0.01460  0.92110  0.32870  Biso   1.000  H
  H23      1.0000 0.83460  0.93580  0.34800  Biso   1.000  H
  H24      1.0000 0.71650  0.43260  0.31820  Biso   1.000  H
  H25      1.0000 0.72320  0.48520  0.99260  Biso   1.000  H
  H26      1.0000 0.99510  0.55310  0.88410  Biso   1.000  H
  H27      1.0000 0.13860  0.42590  0.88800  Biso   1.000  H
  H28      1.0000 0.08890  0.33410  0.94760  Biso   1.000  H
  H29      1.0000 0.58720  0.49790  0.06150  Biso   1.000  H
  H30      1.0000 0.47740  0.70200  0.08860  Biso   1.000  H
  H31      1.0000 0.44190  0.64190  0.04750  Biso   1.000  H
  H32      1.0000 0.62620  0.65940  0.06270  Biso   1.000  H
  H33      1.0000 0.41240  0.65480  0.15170  Biso   1.000  H
  H34      1.0000 0.51460  0.57890  0.17130  Biso   1.000  H
  H35      1.0000 0.33460  0.56420  0.15200  Biso   1.000  H
  H36      1.0000 0.21650  0.06740  0.18180  Biso   1.000  H
  H37      1.0000 0.77680  0.98520  0.00740  Biso   1.000  H
  H38      1.0000 0.50490  0.05310  0.11590  Biso   1.000  H
  H39      1.0000 0.36140  0.92590  0.11200  Biso   1.000  H
  H40      1.0000 0.41110  0.83410  0.05240  Biso   1.000  H
  H41      1.0000 0.91280  0.99790  0.93850  Biso   1.000  H
  H42      1.0000 0.02260  0.20200  0.91140  Biso   1.000  H
  H43      1.0000 0.05810  0.14190  0.95250  Biso   1.000  H
  H44      1.0000 0.87380  0.15940  0.93730  Biso   1.000  H
  H45      1.0000 0.08760  0.15480  0.84830  Biso   1.000  H
  H46      1.0000 0.98540  0.07890  0.82870  Biso   1.000  H
  H47      1.0000 0.16540  0.06420  0.84800  Biso   1.000  H
  H48      1.0000 0.28350  0.56740  0.81820  Biso   1.000  H
  H49      1.0000 0.72320  0.48520  0.50740  Biso   1.000  H
  H50      1.0000 0.99510  0.55310  0.61590  Biso   1.000  H
  H51      1.0000 0.13860  0.42590  0.61200  Biso   1.000  H
  H52      1.0000 0.08890  0.33410  0.55240  Biso   1.000  H
  H53      1.0000 0.58720  0.49790  0.43850  Biso   1.000  H
  H54      1.0000 0.47740  0.70200  0.41140  Biso   1.000  H
  H55      1.0000 0.44190  0.64190  0.45250  Biso   1.000  H
  H56      1.0000 0.62620  0.65940  0.43730  Biso   1.000  H
  H57      1.0000 0.41240  0.65480  0.34830  Biso   1.000  H
  H58      1.0000 0.51460  0.57890  0.32870  Biso   1.000  H
  H59      1.0000 0.33460  0.56420  0.34800  Biso   1.000  H
  H60      1.0000 0.21650  0.06740  0.31820  Biso   1.000  H
  H61      1.0000 0.77680  0.98520  0.49260  Biso   1.000  H
  H62      1.0000 0.50490  0.05310  0.38410  Biso   1.000  H
  H63      1.0000 0.36140  0.92590  0.38800  Biso   1.000  H
  H64      1.0000 0.41110  0.83410  0.44760  Biso   1.000  H
  H65      1.0000 0.91280  0.99790  0.56150  Biso   1.000  H
  H66      1.0000 0.02260  0.20200  0.58860  Biso   1.000  H
  H67      1.0000 0.05810  0.14190  0.54750  Biso   1.000  H
  H68      1.0000 0.87380  0.15940  0.56270  Biso   1.000  H
  H69      1.0000 0.08760  0.15480  0.65170  Biso   1.000  H
  H70      1.0000 0.98540  0.07890  0.67130  Biso   1.000  H
  H71      1.0000 0.16540  0.06420  0.65200  Biso   1.000  H
  H72      1.0000 0.28350  0.56740  0.68180  Biso   1.000  H
  H73      1.0000 0.27680  0.51480  0.00740  Biso   1.000  H
  H74      1.0000 0.00490  0.44690  0.11590  Biso   1.000  H
  H75      1.0000 0.86140  0.57410  0.11200  Biso   1.000  H
  H76      1.0000 0.91110  0.66590  0.05240  Biso   1.000  H
  H77      1.0000 0.41280  0.50210  0.93850  Biso   1.000  H
  H78      1.0000 0.52260  0.29800  0.91140  Biso   1.000  H
  H79      1.0000 0.55810  0.35810  0.95250  Biso   1.000  H
  H80      1.0000 0.37380  0.34060  0.93730  Biso   1.000  H
  H81      1.0000 0.58760  0.34520  0.84830  Biso   1.000  H
  H82      1.0000 0.48540  0.42110  0.82870  Biso   1.000  H
  H83      1.0000 0.66540  0.43580  0.84800  Biso   1.000  H
  H84      1.0000 0.78350  0.93260  0.81820  Biso   1.000  H
  H85      1.0000 0.22320  0.01480  0.99260  Biso   1.000  H
  H86      1.0000 0.49510  0.94690  0.88410  Biso   1.000  H
  H87      1.0000 0.63860  0.07410  0.88800  Biso   1.000  H
  H88      1.0000 0.58890  0.16590  0.94760  Biso   1.000  H
  H89      1.0000 0.08720  0.00210  0.06150  Biso   1.000  H
  H90      1.0000 0.97740  0.79800  0.08860  Biso   1.000  H
  H91      1.0000 0.94190  0.85810  0.04750  Biso   1.000  H
  H92      1.0000 0.12620  0.84060  0.06270  Biso   1.000  H
  H93      1.0000 0.91240  0.84520  0.15170  Biso   1.000  H
  H94      1.0000 0.01460  0.92110  0.17130  Biso   1.000  H
  H95      1.0000 0.83460  0.93580  0.15200  Biso   1.000  H
  H96      1.0000 0.71650  0.43260  0.18180  Biso   1.000  H
  H97      1.0000 0.85520  0.99570  0.75000  Biso   1.000  H
  H98      1.0000 0.54940  0.74810  0.75000  Biso   1.000  H
  H99      1.0000 0.64480  0.49570  0.25000  Biso   1.000  H
  H100     1.0000 0.95060  0.24810  0.25000  Biso   1.000  H
  H101     1.0000 0.14480  0.00430  0.25000  Biso   1.000  H
  H102     1.0000 0.45060  0.25190  0.25000  Biso   1.000  H
  H103     1.0000 0.35520  0.50430  0.75000  Biso   1.000  H
  H104     1.0000 0.04940  0.75190  0.75000  Biso   1.000  H
  C1       1.0000 0.13110  0.65730  0.51587  Biso   1.000  C
  C2       1.0000 0.09810  0.59920  0.47651  Biso   1.000  C
  C3       1.0000 0.18980  0.52550  0.47244  Biso   1.000  C
  C4       1.0000 0.15330  0.46770  0.43870  Biso   1.000  C
  C5       1.0000 0.02910  0.48530  0.40697  Biso   1.000  C
  C6       1.0000 0.94140  0.56090  0.40977  Biso   1.000  C
  C7       1.0000 0.97330  0.61660  0.44502  Biso   1.000  C
  C8       1.0000 0.25490  0.38850  0.43655  Biso   1.000  C
  C9       1.0000 0.45200  0.49570  0.59098  Biso   1.000  C
  C10      1.0000 0.48660  0.34790  0.57310  Biso   1.000  C
  C11      1.0000 0.56400  0.40420  0.64850  Biso   1.000  C
  C12      1.0000 0.61080  0.79190  0.66564  Biso   1.000  C
  C13      1.0000 0.66230  0.83300  0.70904  Biso   1.000  C
  C14      1.0000 0.75250  0.90780  0.70908  Biso   1.000  C
  C15      1.0000 0.36890  0.15730  0.48413  Biso   1.000  C
  C16      1.0000 0.40190  0.09920  0.52349  Biso   1.000  C
  C17      1.0000 0.31020  0.02550  0.52756  Biso   1.000  C
  C18      1.0000 0.34670  0.96770  0.56130  Biso   1.000  C
  C19      1.0000 0.47090  0.98530  0.59303  Biso   1.000  C
  C20      1.0000 0.55860  0.06090  0.59023  Biso   1.000  C
  C21      1.0000 0.52670  0.11660  0.55498  Biso   1.000  C
  C22      1.0000 0.24510  0.88850  0.56345  Biso   1.000  C
  C23      1.0000 0.04800  0.99570  0.40902  Biso   1.000  C
  C24      1.0000 0.01340  0.84790  0.42690  Biso   1.000  C
  C25      1.0000 0.93600  0.90420  0.35150  Biso   1.000  C
  C26      1.0000 0.88920  0.29190  0.33436  Biso   1.000  C
  C27      1.0000 0.83770  0.33300  0.29096  Biso   1.000  C
  C28      1.0000 0.74750  0.40780  0.29092  Biso   1.000  C
  C29      1.0000 0.86890  0.34270  0.01587  Biso   1.000  C
  C30      1.0000 0.90190  0.40080  0.97651  Biso   1.000  C
  C31      1.0000 0.81020  0.47450  0.97244  Biso   1.000  C
  C32      1.0000 0.84670  0.53230  0.93870  Biso   1.000  C
  C33      1.0000 0.97090  0.51470  0.90697  Biso   1.000  C
  C34      1.0000 0.05860  0.43910  0.90977  Biso   1.000  C
  C35      1.0000 0.02670  0.38340  0.94502  Biso   1.000  C
  C36      1.0000 0.74510  0.61150  0.93655  Biso   1.000  C
  C37      1.0000 0.54800  0.50430  0.09098  Biso   1.000  C
  C38      1.0000 0.51340  0.65210  0.07310  Biso   1.000  C
  C39      1.0000 0.43600  0.59580  0.14850  Biso   1.000  C
  C40      1.0000 0.38920  0.20810  0.16564  Biso   1.000  C
  C41      1.0000 0.33770  0.16700  0.20904  Biso   1.000  C
  C42      1.0000 0.24750  0.09220  0.20908  Biso   1.000  C
  C43      1.0000 0.63110  0.84270  0.98413  Biso   1.000  C
  C44      1.0000 0.59810  0.90080  0.02349  Biso   1.000  C
  C45      1.0000 0.68980  0.97450  0.02756  Biso   1.000  C
  C46      1.0000 0.65330  0.03230  0.06130  Biso   1.000  C
  C47      1.0000 0.52910  0.01470  0.09303  Biso   1.000  C
  C48      1.0000 0.44140  0.93910  0.09023  Biso   1.000  C
  C49      1.0000 0.47330  0.88340  0.05498  Biso   1.000  C
  C50      1.0000 0.75490  0.11150  0.06345  Biso   1.000  C
  C51      1.0000 0.95200  0.00430  0.90902  Biso   1.000  C
  C52      1.0000 0.98660  0.15210  0.92690  Biso   1.000  C
  C53      1.0000 0.06400  0.09580  0.85150  Biso   1.000  C
  C54      1.0000 0.11080  0.70810  0.83436  Biso   1.000  C
  C55      1.0000 0.16230  0.66700  0.79096  Biso   1.000  C
  C56      1.0000 0.25250  0.59220  0.79092  Biso   1.000  C
  C57      1.0000 0.86890  0.34270  0.48413  Biso   1.000  C
  C58      1.0000 0.90190  0.40080  0.52349  Biso   1.000  C
  C59      1.0000 0.81020  0.47450  0.52756  Biso   1.000  C
  C60      1.0000 0.84670  0.53230  0.56130  Biso   1.000  C
  C61      1.0000 0.97090  0.51470  0.59303  Biso   1.000  C
  C62      1.0000 0.05860  0.43910  0.59023  Biso   1.000  C
  C63      1.0000 0.02670  0.38340  0.55498  Biso   1.000  C
  C64      1.0000 0.74510  0.61150  0.56345  Biso   1.000  C
  C65      1.0000 0.54800  0.50430  0.40902  Biso   1.000  C
  C66      1.0000 0.51340  0.65210  0.42690  Biso   1.000  C
  C67      1.0000 0.43600  0.59580  0.35150  Biso   1.000  C
  C68      1.0000 0.38920  0.20810  0.33436  Biso   1.000  C
  C69      1.0000 0.33770  0.16700  0.29096  Biso   1.000  C
  C70      1.0000 0.24750  0.09220  0.29092  Biso   1.000  C
  C71      1.0000 0.63110  0.84270  0.51587  Biso   1.000  C
  C72      1.0000 0.59810  0.90080  0.47651  Biso   1.000  C
  C73      1.0000 0.68980  0.97450  0.47244  Biso   1.000  C
  C74      1.0000 0.65330  0.03230  0.43870  Biso   1.000  C
  C75      1.0000 0.52910  0.01470  0.40697  Biso   1.000  C
  C76      1.0000 0.44140  0.93910  0.40977  Biso   1.000  C
  C77      1.0000 0.47330  0.88340  0.44502  Biso   1.000  C
  C78      1.0000 0.75490  0.11150  0.43655  Biso   1.000  C
  C79      1.0000 0.95200  0.00430  0.59098  Biso   1.000  C
  C80      1.0000 0.98660  0.15210  0.57310  Biso   1.000  C
  C81      1.0000 0.06400  0.09580  0.64850  Biso   1.000  C
  C82      1.0000 0.11080  0.70810  0.66564  Biso   1.000  C
  C83      1.0000 0.16230  0.66700  0.70904  Biso   1.000  C
  C84      1.0000 0.25250  0.59220  0.70908  Biso   1.000  C
  C85      1.0000 0.13110  0.65730  0.98413  Biso   1.000  C
  C86      1.0000 0.09810  0.59920  0.02349  Biso   1.000  C
  C87      1.0000 0.18980  0.52550  0.02756  Biso   1.000  C
  C88      1.0000 0.15330  0.46770  0.06130  Biso   1.000  C
  C89      1.0000 0.02910  0.48530  0.09303  Biso   1.000  C
  C90      1.0000 0.94140  0.56090  0.09023  Biso   1.000  C
  C91      1.0000 0.97330  0.61660  0.05498  Biso   1.000  C
  C92      1.0000 0.25490  0.38850  0.06345  Biso   1.000  C
  C93      1.0000 0.45200  0.49570  0.90902  Biso   1.000  C
  C94      1.0000 0.48660  0.34790  0.92690  Biso   1.000  C
  C95      1.0000 0.56400  0.40420  0.85150  Biso   1.000  C
  C96      1.0000 0.61080  0.79190  0.83436  Biso   1.000  C
  C97      1.0000 0.66230  0.83300  0.79096  Biso   1.000  C
  C98      1.0000 0.75250  0.90780  0.79092  Biso   1.000  C
  C99      1.0000 0.36890  0.15730  0.01587  Biso   1.000  C
  C100     1.0000 0.40190  0.09920  0.97651  Biso   1.000  C
  C101     1.0000 0.31020  0.02550  0.97244  Biso   1.000  C
  C102     1.0000 0.34670  0.96770  0.93870  Biso   1.000  C
  C103     1.0000 0.47090  0.98530  0.90697  Biso   1.000  C
  C104     1.0000 0.55860  0.06090  0.90977  Biso   1.000  C
  C105     1.0000 0.52670  0.11660  0.94502  Biso   1.000  C
  C106     1.0000 0.24510  0.88850  0.93655  Biso   1.000  C
  C107     1.0000 0.04800  0.99570  0.09098  Biso   1.000  C
  C108     1.0000 0.01340  0.84790  0.07310  Biso   1.000  C
  C109     1.0000 0.93600  0.90420  0.14850  Biso   1.000  C
  C110     1.0000 0.88920  0.29190  0.16564  Biso   1.000  C
  C111     1.0000 0.83770  0.33300  0.20904  Biso   1.000  C
  C112     1.0000 0.74750  0.40780  0.20908  Biso   1.000  C
  C113     1.0000 0.79630  0.94530  0.75000  Biso   1.000  C
  C114     1.0000 0.61410  0.79680  0.75000  Biso   1.000  C
  C115     1.0000 0.70370  0.44530  0.25000  Biso   1.000  C
  C116     1.0000 0.88590  0.29680  0.25000  Biso   1.000  C
  C117     1.0000 0.20370  0.05470  0.25000  Biso   1.000  C
  C118     1.0000 0.38590  0.20320  0.25000  Biso   1.000  C
  C119     1.0000 0.29630  0.55470  0.75000  Biso   1.000  C
  C120     1.0000 0.11410  0.70320  0.75000  Biso   1.000  C
  N1       1.0000 0.49450  0.41970  0.60415  Biso   1.000  N
  N2       1.0000 0.00550  0.91970  0.39585  Biso   1.000  N
  N3       1.0000 0.50550  0.58030  0.10415  Biso   1.000  N
  N4       1.0000 0.99450  0.08030  0.89585  Biso   1.000  N
  N5       1.0000 0.50550  0.58030  0.39585  Biso   1.000  N
  N6       1.0000 0.99450  0.08030  0.60415  Biso   1.000  N
  N7       1.0000 0.49450  0.41970  0.89585  Biso   1.000  N
  N8       1.0000 0.00550  0.91970  0.10415  Biso   1.000  N
  O1       1.0000 0.27000  0.64955  0.53544  Biso   1.000  O
  O2       1.0000 0.01840  0.70849  0.52665  Biso   1.000  O
  O3       1.0000 0.22400  0.33302  0.40625  Biso   1.000  O
  O4       1.0000 0.67240  0.81670  0.62796  Biso   1.000  O
  O5       1.0000 0.46040  0.55968  0.61508  Biso   1.000  O
  O6       1.0000 0.37620  0.38105  0.46286  Biso   1.000  O
  O7       1.0000 0.50300  0.73447  0.66708  Biso   1.000  O
  O8       1.0000 0.23000  0.14955  0.46456  Biso   1.000  O
  O9       1.0000 0.48160  0.20849  0.47335  Biso   1.000  O
  O10      1.0000 0.27600  0.83302  0.59375  Biso   1.000  O
  O11      1.0000 0.82760  0.31670  0.37204  Biso   1.000  O
  O12      1.0000 0.03960  0.05968  0.38492  Biso   1.000  O
  O13      1.0000 0.12380  0.88105  0.53714  Biso   1.000  O
  O14      1.0000 0.99700  0.23447  0.33292  Biso   1.000  O
  O15      1.0000 0.73000  0.35045  0.03544  Biso   1.000  O
  O16      1.0000 0.98160  0.29151  0.02665  Biso   1.000  O
  O17      1.0000 0.77600  0.66698  0.90625  Biso   1.000  O
  O18      1.0000 0.32760  0.18330  0.12796  Biso   1.000  O
  O19      1.0000 0.53960  0.44032  0.11508  Biso   1.000  O
  O20      1.0000 0.62380  0.61895  0.96286  Biso   1.000  O
  O21      1.0000 0.49700  0.26553  0.16708  Biso   1.000  O
  O22      1.0000 0.77000  0.85045  0.96456  Biso   1.000  O
  O23      1.0000 0.51840  0.79151  0.97335  Biso   1.000  O
  O24      1.0000 0.72400  0.16698  0.09375  Biso   1.000  O
  O25      1.0000 0.17240  0.68330  0.87204  Biso   1.000  O
  O26      1.0000 0.96040  0.94032  0.88492  Biso   1.000  O
  O27      1.0000 0.87620  0.11895  0.03714  Biso   1.000  O
  O28      1.0000 0.00300  0.76553  0.83292  Biso   1.000  O
  O29      1.0000 0.73000  0.35045  0.46456  Biso   1.000  O
  O30      1.0000 0.98160  0.29151  0.47335  Biso   1.000  O
  O31      1.0000 0.77600  0.66698  0.59375  Biso   1.000  O
  O32      1.0000 0.32760  0.18330  0.37204  Biso   1.000  O
  O33      1.0000 0.53960  0.44032  0.38492  Biso   1.000  O
  O34      1.0000 0.62380  0.61895  0.53714  Biso   1.000  O
  O35      1.0000 0.49700  0.26553  0.33292  Biso   1.000  O
  O36      1.0000 0.77000  0.85045  0.53544  Biso   1.000  O
  O37      1.0000 0.51840  0.79151  0.52665  Biso   1.000  O
  O38      1.0000 0.72400  0.16698  0.40625  Biso   1.000  O
  O39      1.0000 0.17240  0.68330  0.62796  Biso   1.000  O
  O40      1.0000 0.96040  0.94032  0.61508  Biso   1.000  O
  O41      1.0000 0.87620  0.11895  0.46286  Biso   1.000  O
  O42      1.0000 0.00300  0.76553  0.66708  Biso   1.000  O
  O43      1.0000 0.27000  0.64955  0.96456  Biso   1.000  O
  O44      1.0000 0.01840  0.70849  0.97335  Biso   1.000  O
  O45      1.0000 0.22400  0.33302  0.09375  Biso   1.000  O
  O46      1.0000 0.67240  0.81670  0.87204  Biso   1.000  O
  O47      1.0000 0.46040  0.55968  0.88492  Biso   1.000  O
  O48      1.0000 0.37620  0.38105  0.03714  Biso   1.000  O
  O49      1.0000 0.50300  0.73447  0.83292  Biso   1.000  O
  O50      1.0000 0.23000  0.14955  0.03544  Biso   1.000  O
  O51      1.0000 0.48160  0.20849  0.02665  Biso   1.000  O
  O52      1.0000 0.27600  0.83302  0.90625  Biso   1.000  O
  O53      1.0000 0.82760  0.31670  0.12796  Biso   1.000  O
  O54      1.0000 0.03960  0.05968  0.11508  Biso   1.000  O
  O55      1.0000 0.12380  0.88105  0.96286  Biso   1.000  O
  O56      1.0000 0.99700  0.23447  0.16708  Biso   1.000  O
