data_image0
_cell_length_a       6.9433
_cell_length_b       22.1923
_cell_length_c       7.7302
_cell_angle_alpha    90
_cell_angle_beta     90
_cell_angle_gamma    90

_symmetry_space_group_name_H-M    P 1
_symmetry_int_tables_number       1

loop_
  _symmetry_equiv_pos_as_xyz
  'x, y, z'

loop_
  _atom_site_label
  _atom_site_occupancy
  _atom_site_fract_x
  _atom_site_fract_y
  _atom_site_fract_z
  _atom_site_thermal_displace_type
  _atom_site_B_iso_or_equiv
  _atom_site_type_symbol
  Co1      1.0000 0.54694  0.71253  0.24224  Biso   1.000  Co
  Co2      1.0000 0.45306  0.28747  0.24224  Biso   1.000  Co
  Co3      1.0000 0.04694  0.78747  0.75776  Biso   1.000  Co
  Co4      1.0000 0.95306  0.21253  0.75776  Biso   1.000  Co
  H1       1.0000 0.64930  0.88560  0.38950  Biso   1.000  H
  H2       1.0000 0.84330  0.87750  0.28160  Biso   1.000  H
  H3       1.0000 0.56390  0.87460  0.10630  Biso   1.000  H
  H4       1.0000 0.34410  0.80390  0.14340  Biso   1.000  H
  H5       1.0000 0.39710  0.81480  0.32840  Biso   1.000  H
  H6       1.0000 0.96190  0.67190  0.27360  Biso   1.000  H
  H7       1.0000 0.15100  0.58610  0.29740  Biso   1.000  H
  H8       1.0000 0.68380  0.49140  0.12130  Biso   1.000  H
  H9       1.0000 0.51550  0.57830  0.12890  Biso   1.000  H
  H10      1.0000 0.35070  0.11440  0.38950  Biso   1.000  H
  H11      1.0000 0.15670  0.12250  0.28160  Biso   1.000  H
  H12      1.0000 0.43610  0.12540  0.10630  Biso   1.000  H
  H13      1.0000 0.65590  0.19610  0.14340  Biso   1.000  H
  H14      1.0000 0.60290  0.18520  0.32840  Biso   1.000  H
  H15      1.0000 0.03810  0.32810  0.27360  Biso   1.000  H
  H16      1.0000 0.84900  0.41390  0.29740  Biso   1.000  H
  H17      1.0000 0.31620  0.50860  0.12130  Biso   1.000  H
  H18      1.0000 0.48450  0.42170  0.12890  Biso   1.000  H
  H19      1.0000 0.14930  0.61440  0.61050  Biso   1.000  H
  H20      1.0000 0.34330  0.62250  0.71840  Biso   1.000  H
  H21      1.0000 0.06390  0.62540  0.89370  Biso   1.000  H
  H22      1.0000 0.84410  0.69610  0.85660  Biso   1.000  H
  H23      1.0000 0.89710  0.68520  0.67160  Biso   1.000  H
  H24      1.0000 0.46190  0.82810  0.72640  Biso   1.000  H
  H25      1.0000 0.65100  0.91390  0.70260  Biso   1.000  H
  H26      1.0000 0.18380  0.00860  0.87870  Biso   1.000  H
  H27      1.0000 0.01550  0.92170  0.87110  Biso   1.000  H
  H28      1.0000 0.85070  0.38560  0.61050  Biso   1.000  H
  H29      1.0000 0.65670  0.37750  0.71840  Biso   1.000  H
  H30      1.0000 0.93610  0.37460  0.89370  Biso   1.000  H
  H31      1.0000 0.15590  0.30390  0.85660  Biso   1.000  H
  H32      1.0000 0.10290  0.31480  0.67160  Biso   1.000  H
  H33      1.0000 0.53810  0.17190  0.72640  Biso   1.000  H
  H34      1.0000 0.34900  0.08610  0.70260  Biso   1.000  H
  H35      1.0000 0.81620  0.99140  0.87870  Biso   1.000  H
  H36      1.0000 0.98450  0.07830  0.87110  Biso   1.000  H
  C1       1.0000 0.79000  0.80570  0.44630  Biso   1.000  C
  C2       1.0000 0.72650  0.85625  0.32260  Biso   1.000  C
  C3       1.0000 0.61100  0.83761  0.16660  Biso   1.000  C
  C4       1.0000 0.73540  0.80112  0.04070  Biso   1.000  C
  C5       1.0000 0.02210  0.58357  0.25700  Biso   1.000  C
  C6       1.0000 0.94200  0.52750  0.20030  Biso   1.000  C
  C7       1.0000 0.74580  0.52760  0.15610  Biso   1.000  C
  C8       1.0000 0.64670  0.57970  0.16350  Biso   1.000  C
  C9       1.0000 0.90500  0.63383  0.25070  Biso   1.000  C
  C10      1.0000 0.21000  0.19430  0.44630  Biso   1.000  C
  C11      1.0000 0.27350  0.14375  0.32260  Biso   1.000  C
  C12      1.0000 0.38900  0.16239  0.16660  Biso   1.000  C
  C13      1.0000 0.26460  0.19888  0.04070  Biso   1.000  C
  C14      1.0000 0.97790  0.41643  0.25700  Biso   1.000  C
  C15      1.0000 0.05800  0.47250  0.20030  Biso   1.000  C
  C16      1.0000 0.25420  0.47240  0.15610  Biso   1.000  C
  C17      1.0000 0.35330  0.42030  0.16350  Biso   1.000  C
  C18      1.0000 0.09500  0.36617  0.25070  Biso   1.000  C
  C19      1.0000 0.29000  0.69430  0.55370  Biso   1.000  C
  C20      1.0000 0.22650  0.64375  0.67740  Biso   1.000  C
  C21      1.0000 0.11100  0.66239  0.83340  Biso   1.000  C
  C22      1.0000 0.23540  0.69888  0.95930  Biso   1.000  C
  C23      1.0000 0.52210  0.91643  0.74300  Biso   1.000  C
  C24      1.0000 0.44200  0.97250  0.79970  Biso   1.000  C
  C25      1.0000 0.24580  0.97240  0.84390  Biso   1.000  C
  C26      1.0000 0.14670  0.92030  0.83650  Biso   1.000  C
  C27      1.0000 0.40500  0.86617  0.74930  Biso   1.000  C
  C28      1.0000 0.71000  0.30570  0.55370  Biso   1.000  C
  C29      1.0000 0.77350  0.35625  0.67740  Biso   1.000  C
  C30      1.0000 0.88900  0.33761  0.83340  Biso   1.000  C
  C31      1.0000 0.76460  0.30112  0.95930  Biso   1.000  C
  C32      1.0000 0.47790  0.08357  0.74300  Biso   1.000  C
  C33      1.0000 0.55800  0.02750  0.79970  Biso   1.000  C
  C34      1.0000 0.75420  0.02760  0.84390  Biso   1.000  C
  C35      1.0000 0.85330  0.07970  0.83650  Biso   1.000  C
  C36      1.0000 0.59500  0.13383  0.74930  Biso   1.000  C
  N1       1.0000 0.44210  0.80152  0.22320  Biso   1.000  N
  N2       1.0000 0.71300  0.63220  0.21350  Biso   1.000  N
  N3       1.0000 0.55790  0.19848  0.22320  Biso   1.000  N
  N4       1.0000 0.28700  0.36780  0.21350  Biso   1.000  N
  N5       1.0000 0.94210  0.69848  0.77680  Biso   1.000  N
  N6       1.0000 0.21300  0.86780  0.78650  Biso   1.000  N
  N7       1.0000 0.05790  0.30152  0.77680  Biso   1.000  N
  N8       1.0000 0.78700  0.13220  0.78650  Biso   1.000  N
  O1       1.0000 0.75250  0.75168  0.42070  Biso   1.000  O
  O2       1.0000 0.88470  0.82577  0.57150  Biso   1.000  O
  O3       1.0000 0.70930  0.74496  0.03990  Biso   1.000  O
  O4       1.0000 0.85180  0.82886  0.94470  Biso   1.000  O
  O5       1.0000 0.24750  0.24832  0.42070  Biso   1.000  O
  O6       1.0000 0.11530  0.17423  0.57150  Biso   1.000  O
  O7       1.0000 0.29070  0.25504  0.03990  Biso   1.000  O
  O8       1.0000 0.14820  0.17114  0.94470  Biso   1.000  O
  O9       1.0000 0.25250  0.74832  0.57930  Biso   1.000  O
  O10      1.0000 0.38470  0.67423  0.42850  Biso   1.000  O
  O11      1.0000 0.20930  0.75504  0.96010  Biso   1.000  O
  O12      1.0000 0.35180  0.67114  0.05530  Biso   1.000  O
  O13      1.0000 0.74750  0.25168  0.57930  Biso   1.000  O
  O14      1.0000 0.61530  0.32577  0.42850  Biso   1.000  O
  O15      1.0000 0.79070  0.24496  0.96010  Biso   1.000  O
  O16      1.0000 0.64820  0.32886  0.05530  Biso   1.000  O
