data_image0
_cell_length_a       8.40844
_cell_length_b       19.1847
_cell_length_c       19.1847
_cell_angle_alpha    62.0965
_cell_angle_beta     81.5992
_cell_angle_gamma    98.4008

_symmetry_space_group_name_H-M    P 1
_symmetry_int_tables_number       1

loop_
  _symmetry_equiv_pos_as_xyz
  'x, y, z'

loop_
  _atom_site_label
  _atom_site_occupancy
  _atom_site_fract_x
  _atom_site_fract_y
  _atom_site_fract_z
  _atom_site_thermal_displace_type
  _atom_site_B_iso_or_equiv
  _atom_site_type_symbol
  Zn1      1.0000 0.85235  0.95104  0.45522  Biso   1.000  Zn
  Zn2      1.0000 0.45965  0.81223  0.48672  Biso   1.000  Zn
  Zn3      1.0000 0.30757  0.45522  0.59374  Biso   1.000  Zn
  Zn4      1.0000 0.94637  0.48672  0.70105  Biso   1.000  Zn
  Zn5      1.0000 0.90131  0.59374  0.95104  Biso   1.000  Zn
  Zn6      1.0000 0.64742  0.70105  0.81223  Biso   1.000  Zn
  Zn7      1.0000 0.14765  0.04896  0.54478  Biso   1.000  Zn
  Zn8      1.0000 0.54035  0.18777  0.51328  Biso   1.000  Zn
  Zn9      1.0000 0.69243  0.54478  0.40626  Biso   1.000  Zn
  Zn10     1.0000 0.05363  0.51328  0.29895  Biso   1.000  Zn
  Zn11     1.0000 0.09869  0.40626  0.04896  Biso   1.000  Zn
  Zn12     1.0000 0.35258  0.29895  0.18777  Biso   1.000  Zn
  H1       1.0000 0.14030  0.95040  0.23840  Biso   1.000  H
  H2       1.0000 0.40100  0.92570  0.24490  Biso   1.000  H
  H3       1.0000 0.43300  0.79530  0.29930  Biso   1.000  H
  H4       1.0000 0.20340  0.68770  0.35040  Biso   1.000  H
  H5       1.0000 0.77390  0.81910  0.27990  Biso   1.000  H
  H6       1.0000 0.85830  0.90940  0.25200  Biso   1.000  H
  H7       1.0000 0.81910  0.86430  0.64790  Biso   1.000  H
  H8       1.0000 0.43150  0.70630  0.67980  Biso   1.000  H
  H9       1.0000 0.37900  0.93670  0.53850  Biso   1.000  H
  H10      1.0000 0.12260  0.85670  0.42790  Biso   1.000  H
  H11      1.0000 0.37870  0.23840  0.81120  Biso   1.000  H
  H12      1.0000 0.64590  0.24490  0.82940  Biso   1.000  H
  H13      1.0000 0.73230  0.29930  0.90540  Biso   1.000  H
  H14      1.0000 0.55380  0.35040  0.96190  Biso   1.000  H
  H15      1.0000 0.05380  0.27990  0.90100  Biso   1.000  H
  H16      1.0000 0.11030  0.25200  0.83860  Biso   1.000  H
  H17      1.0000 0.46700  0.64790  0.48780  Biso   1.000  H
  H18      1.0000 0.11130  0.67980  0.61390  Biso   1.000  H
  H19      1.0000 0.91750  0.53850  0.52480  Biso   1.000  H
  H20      1.0000 0.55050  0.42790  0.71540  Biso   1.000  H
  H21      1.0000 0.18990  0.81120  0.95040  Biso   1.000  H
  H22      1.0000 0.47530  0.82940  0.92570  Biso   1.000  H
  H23      1.0000 0.63770  0.90540  0.79530  Biso   1.000  H
  H24      1.0000 0.51570  0.96190  0.68770  Biso   1.000  H
  H25      1.0000 0.95480  0.90100  0.81910  Biso   1.000  H
  H26      1.0000 0.94890  0.83860  0.90940  Biso   1.000  H
  H27      1.0000 0.95480  0.48780  0.86430  Biso   1.000  H
  H28      1.0000 0.72520  0.61390  0.70630  Biso   1.000  H
  H29      1.0000 0.44230  0.52480  0.93670  Biso   1.000  H
  H30      1.0000 0.26590  0.71540  0.85670  Biso   1.000  H
  H31      1.0000 0.85970  0.04960  0.76160  Biso   1.000  H
  H32      1.0000 0.59900  0.07430  0.75510  Biso   1.000  H
  H33      1.0000 0.56700  0.20470  0.70070  Biso   1.000  H
  H34      1.0000 0.79660  0.31230  0.64960  Biso   1.000  H
  H35      1.0000 0.22610  0.18090  0.72010  Biso   1.000  H
  H36      1.0000 0.14170  0.09060  0.74800  Biso   1.000  H
  H37      1.0000 0.18090  0.13570  0.35210  Biso   1.000  H
  H38      1.0000 0.56850  0.29370  0.32020  Biso   1.000  H
  H39      1.0000 0.62100  0.06330  0.46150  Biso   1.000  H
  H40      1.0000 0.87740  0.14330  0.57210  Biso   1.000  H
  H41      1.0000 0.62130  0.76160  0.18880  Biso   1.000  H
  H42      1.0000 0.35410  0.75510  0.17060  Biso   1.000  H
  H43      1.0000 0.26770  0.70070  0.09460  Biso   1.000  H
  H44      1.0000 0.44620  0.64960  0.03810  Biso   1.000  H
  H45      1.0000 0.94620  0.72010  0.09900  Biso   1.000  H
  H46      1.0000 0.88970  0.74800  0.16140  Biso   1.000  H
  H47      1.0000 0.53300  0.35210  0.51220  Biso   1.000  H
  H48      1.0000 0.88870  0.32020  0.38610  Biso   1.000  H
  H49      1.0000 0.08250  0.46150  0.47520  Biso   1.000  H
  H50      1.0000 0.44950  0.57210  0.28460  Biso   1.000  H
  H51      1.0000 0.81010  0.18880  0.04960  Biso   1.000  H
  H52      1.0000 0.52470  0.17060  0.07430  Biso   1.000  H
  H53      1.0000 0.36230  0.09460  0.20470  Biso   1.000  H
  H54      1.0000 0.48430  0.03810  0.31230  Biso   1.000  H
  H55      1.0000 0.04520  0.09900  0.18090  Biso   1.000  H
  H56      1.0000 0.05110  0.16140  0.09060  Biso   1.000  H
  H57      1.0000 0.04520  0.51220  0.13570  Biso   1.000  H
  H58      1.0000 0.27480  0.38610  0.29370  Biso   1.000  H
  H59      1.0000 0.55770  0.47520  0.06330  Biso   1.000  H
  H60      1.0000 0.73410  0.28460  0.14330  Biso   1.000  H
  C1       1.0000 0.03118  0.75453  0.32699  Biso   1.000  C
  C2       1.0000 0.01004  0.83300  0.29488  Biso   1.000  C
  C3       1.0000 0.15128  0.89714  0.26230  Biso   1.000  C
  C4       1.0000 0.30869  0.88239  0.26522  Biso   1.000  C
  C5       1.0000 0.32791  0.80486  0.29773  Biso   1.000  C
  C6       1.0000 0.19045  0.74063  0.32848  Biso   1.000  C
  C7       1.0000 0.89050  0.68005  0.36165  Biso   1.000  C
  C8       1.0000 0.84283  0.85338  0.29399  Biso   1.000  C
  C9       1.0000 0.75289  0.84217  0.37410  Biso   1.000  C
  C10      1.0000 0.73169  0.83687  0.63850  Biso   1.000  C
  C11      1.0000 0.52154  0.75126  0.65594  Biso   1.000  C
  C12      1.0000 0.29695  0.92734  0.51399  Biso   1.000  C
  C13      1.0000 0.15867  0.88415  0.45394  Biso   1.000  C
  C14      1.0000 0.35817  0.32699  0.91848  Biso   1.000  C
  C15      1.0000 0.30492  0.29488  0.87212  Biso   1.000  C
  C16      1.0000 0.41358  0.26230  0.84056  Biso   1.000  C
  C17      1.0000 0.57391  0.26522  0.85239  Biso   1.000  C
  C18      1.0000 0.62564  0.29773  0.89741  Biso   1.000  C
  C19      1.0000 0.51893  0.32848  0.93089  Biso   1.000  C
  C20      1.0000 0.25215  0.36165  0.95830  Biso   1.000  C
  C21      1.0000 0.13682  0.29399  0.85263  Biso   1.000  C
  C22      1.0000 0.12699  0.37410  0.78373  Biso   1.000  C
  C23      1.0000 0.37019  0.63850  0.52463  Biso   1.000  C
  C24      1.0000 0.17748  0.65594  0.59280  Biso   1.000  C
  C25      1.0000 0.81094  0.51399  0.55867  Biso   1.000  C
  C26      1.0000 0.61261  0.45394  0.66191  Biso   1.000  C
  C27      1.0000 0.27665  0.91848  0.75453  Biso   1.000  C
  C28      1.0000 0.17704  0.87212  0.83300  Biso   1.000  C
  C29      1.0000 0.25414  0.84056  0.89714  Biso   1.000  C
  C30      1.0000 0.42630  0.85239  0.88239  Biso   1.000  C
  C31      1.0000 0.52305  0.89741  0.80486  Biso   1.000  C
  C32      1.0000 0.44982  0.93089  0.74063  Biso   1.000  C
  C33      1.0000 0.21045  0.95830  0.68005  Biso   1.000  C
  C34      1.0000 0.98945  0.85263  0.85338  Biso   1.000  C
  C35      1.0000 0.91072  0.78373  0.84217  Biso   1.000  C
  C36      1.0000 0.89482  0.52463  0.83687  Biso   1.000  C
  C37      1.0000 0.77028  0.59280  0.75126  Biso   1.000  C
  C38      1.0000 0.36961  0.55867  0.92734  Biso   1.000  C
  C39      1.0000 0.27452  0.66191  0.88415  Biso   1.000  C
  C40      1.0000 0.96882  0.24547  0.67301  Biso   1.000  C
  C41      1.0000 0.98996  0.16700  0.70512  Biso   1.000  C
  C42      1.0000 0.84872  0.10286  0.73770  Biso   1.000  C
  C43      1.0000 0.69131  0.11761  0.73478  Biso   1.000  C
  C44      1.0000 0.67209  0.19514  0.70227  Biso   1.000  C
  C45      1.0000 0.80955  0.25937  0.67152  Biso   1.000  C
  C46      1.0000 0.10950  0.31995  0.63835  Biso   1.000  C
  C47      1.0000 0.15717  0.14662  0.70601  Biso   1.000  C
  C48      1.0000 0.24711  0.15783  0.62590  Biso   1.000  C
  C49      1.0000 0.26831  0.16313  0.36150  Biso   1.000  C
  C50      1.0000 0.47846  0.24874  0.34406  Biso   1.000  C
  C51      1.0000 0.70305  0.07266  0.48601  Biso   1.000  C
  C52      1.0000 0.84133  0.11585  0.54606  Biso   1.000  C
  C53      1.0000 0.64183  0.67301  0.08152  Biso   1.000  C
  C54      1.0000 0.69508  0.70512  0.12788  Biso   1.000  C
  C55      1.0000 0.58642  0.73770  0.15944  Biso   1.000  C
  C56      1.0000 0.42609  0.73478  0.14761  Biso   1.000  C
  C57      1.0000 0.37436  0.70227  0.10259  Biso   1.000  C
  C58      1.0000 0.48107  0.67152  0.06911  Biso   1.000  C
  C59      1.0000 0.74785  0.63835  0.04170  Biso   1.000  C
  C60      1.0000 0.86318  0.70601  0.14737  Biso   1.000  C
  C61      1.0000 0.87301  0.62590  0.21627  Biso   1.000  C
  C62      1.0000 0.62981  0.36150  0.47537  Biso   1.000  C
  C63      1.0000 0.82252  0.34406  0.40720  Biso   1.000  C
  C64      1.0000 0.18906  0.48601  0.44133  Biso   1.000  C
  C65      1.0000 0.38739  0.54606  0.33809  Biso   1.000  C
  C66      1.0000 0.72335  0.08152  0.24547  Biso   1.000  C
  C67      1.0000 0.82296  0.12788  0.16700  Biso   1.000  C
  C68      1.0000 0.74586  0.15944  0.10286  Biso   1.000  C
  C69      1.0000 0.57370  0.14761  0.11761  Biso   1.000  C
  C70      1.0000 0.47695  0.10259  0.19514  Biso   1.000  C
  C71      1.0000 0.55018  0.06911  0.25937  Biso   1.000  C
  C72      1.0000 0.78955  0.04170  0.31995  Biso   1.000  C
  C73      1.0000 0.01055  0.14737  0.14662  Biso   1.000  C
  C74      1.0000 0.08928  0.21627  0.15783  Biso   1.000  C
  C75      1.0000 0.10518  0.47537  0.16313  Biso   1.000  C
  C76      1.0000 0.22972  0.40720  0.24874  Biso   1.000  C
  C77      1.0000 0.63039  0.44133  0.07266  Biso   1.000  C
  C78      1.0000 0.72548  0.33809  0.11585  Biso   1.000  C
  N1       1.0000 0.56311  0.80562  0.57839  Biso   1.000  N
  N2       1.0000 0.70114  0.86169  0.56687  Biso   1.000  N
  N3       1.0000 0.62333  0.76752  0.69713  Biso   1.000  N
  N4       1.0000 0.07876  0.93200  0.46882  Biso   1.000  N
  N5       1.0000 0.16837  0.95970  0.50879  Biso   1.000  N
  N6       1.0000 0.29766  0.87970  0.48072  Biso   1.000  N
  N7       1.0000 0.14150  0.57839  0.61599  Biso   1.000  N
  N8       1.0000 0.26801  0.56687  0.57144  Biso   1.000  N
  N9       1.0000 0.32046  0.69713  0.53535  Biso   1.000  N
  N10      1.0000 0.54758  0.46882  0.59918  Biso   1.000  N
  N11      1.0000 0.67716  0.50879  0.53151  Biso   1.000  N
  N12      1.0000 0.77838  0.48072  0.63958  Biso   1.000  N
  N13      1.0000 0.75749  0.61599  0.80562  Biso   1.000  N
  N14      1.0000 0.83945  0.57144  0.86169  Biso   1.000  N
  N15      1.0000 0.85581  0.53535  0.76752  Biso   1.000  N
  N16      1.0000 0.14676  0.59918  0.93200  Biso   1.000  N
  N17      1.0000 0.20867  0.53151  0.95970  Biso   1.000  N
  N18      1.0000 0.41796  0.63958  0.87970  Biso   1.000  N
  N19      1.0000 0.43689  0.19438  0.42161  Biso   1.000  N
  N20      1.0000 0.29886  0.13831  0.43313  Biso   1.000  N
  N21      1.0000 0.37667  0.23248  0.30287  Biso   1.000  N
  N22      1.0000 0.92124  0.06800  0.53118  Biso   1.000  N
  N23      1.0000 0.83163  0.04030  0.49121  Biso   1.000  N
  N24      1.0000 0.70234  0.12030  0.51928  Biso   1.000  N
  N25      1.0000 0.85850  0.42161  0.38401  Biso   1.000  N
  N26      1.0000 0.73199  0.43313  0.42856  Biso   1.000  N
  N27      1.0000 0.67954  0.30287  0.46465  Biso   1.000  N
  N28      1.0000 0.45242  0.53118  0.40082  Biso   1.000  N
  N29      1.0000 0.32284  0.49121  0.46849  Biso   1.000  N
  N30      1.0000 0.22162  0.51928  0.36042  Biso   1.000  N
  N31      1.0000 0.24251  0.38401  0.19438  Biso   1.000  N
  N32      1.0000 0.16055  0.42856  0.13831  Biso   1.000  N
  N33      1.0000 0.14419  0.46465  0.23248  Biso   1.000  N
  N34      1.0000 0.85324  0.40082  0.06800  Biso   1.000  N
  N35      1.0000 0.79133  0.46849  0.04030  Biso   1.000  N
  N36      1.0000 0.58204  0.36042  0.12030  Biso   1.000  N
  O1       1.0000 0.92602  0.61352  0.37456  Biso   1.000  O
  O2       1.0000 0.74423  0.68354  0.37645  Biso   1.000  O
  O3       1.0000 0.59579  0.82726  0.38859  Biso   1.000  O
  O4       1.0000 0.83400  0.85053  0.41993  Biso   1.000  O
  O5       1.0000 0.30058  0.37456  0.01192  Biso   1.000  O
  O6       1.0000 0.12068  0.37645  0.94001  Biso   1.000  O
  O7       1.0000 0.98438  0.38859  0.78415  Biso   1.000  O
  O8       1.0000 0.25393  0.41993  0.72954  Biso   1.000  O
  O9       1.0000 0.31250  0.01192  0.61352  Biso   1.000  O
  O10      1.0000 0.06069  0.94001  0.68354  Biso   1.000  O
  O11      1.0000 0.76853  0.78415  0.82726  Biso   1.000  O
  O12      1.0000 0.98347  0.72954  0.85053  Biso   1.000  O
  O13      1.0000 0.07398  0.38648  0.62544  Biso   1.000  O
  O14      1.0000 0.25577  0.31646  0.62355  Biso   1.000  O
  O15      1.0000 0.40421  0.17274  0.61141  Biso   1.000  O
  O16      1.0000 0.16600  0.14947  0.58007  Biso   1.000  O
  O17      1.0000 0.69942  0.62544  0.98808  Biso   1.000  O
  O18      1.0000 0.87932  0.62355  0.05999  Biso   1.000  O
  O19      1.0000 0.01562  0.61141  0.21585  Biso   1.000  O
  O20      1.0000 0.74607  0.58007  0.27046  Biso   1.000  O
  O21      1.0000 0.68750  0.98808  0.38648  Biso   1.000  O
  O22      1.0000 0.93931  0.05999  0.31646  Biso   1.000  O
  O23      1.0000 0.23147  0.21585  0.17274  Biso   1.000  O
  O24      1.0000 0.01653  0.27046  0.14947  Biso   1.000  O
