data_image0
_cell_length_a       8.7713
_cell_length_b       15.8994
_cell_length_c       18.1647
_cell_angle_alpha    90
_cell_angle_beta     90
_cell_angle_gamma    90.0041

_symmetry_space_group_name_H-M    P 1
_symmetry_int_tables_number       1

loop_
  _symmetry_equiv_pos_as_xyz
  'x, y, z'

loop_
  _atom_site_label
  _atom_site_occupancy
  _atom_site_fract_x
  _atom_site_fract_y
  _atom_site_fract_z
  _atom_site_thermal_displace_type
  _atom_site_B_iso_or_equiv
  _atom_site_type_symbol
  Zn1      1.0000 0.61324  0.56708  0.48077  Biso   1.000  Zn
  Zn2      1.0000 0.38676  0.93292  0.98077  Biso   1.000  Zn
  Zn3      1.0000 0.38676  0.43292  0.51923  Biso   1.000  Zn
  Zn4      1.0000 0.61324  0.06708  0.01923  Biso   1.000  Zn
  H1       1.0000 0.09830  0.58050  0.66620  Biso   1.000  H
  H2       1.0000 0.45490  0.74030  0.64450  Biso   1.000  H
  H3       1.0000 0.33400  0.83660  0.72170  Biso   1.000  H
  H4       1.0000 0.15160  0.92740  0.80840  Biso   1.000  H
  H5       1.0000 0.95420  0.98250  0.87930  Biso   1.000  H
  H6       1.0000 0.69380  0.77610  0.84060  Biso   1.000  H
  H7       1.0000 0.98690  0.62230  0.84620  Biso   1.000  H
  H8       1.0000 0.91820  0.56190  0.78410  Biso   1.000  H
  H9       1.0000 0.80630  0.61630  0.83480  Biso   1.000  H
  H10      1.0000 0.79340  0.72630  0.66160  Biso   1.000  H
  H11      1.0000 0.68650  0.68060  0.72080  Biso   1.000  H
  H12      1.0000 0.79810  0.62610  0.66990  Biso   1.000  H
  H13      1.0000 0.94610  0.61470  0.51390  Biso   1.000  H
  H14      1.0000 0.09200  0.73610  0.52630  Biso   1.000  H
  H15      1.0000 0.72630  0.87040  0.46030  Biso   1.000  H
  H16      1.0000 0.59270  0.74640  0.44860  Biso   1.000  H
  H17      1.0000 0.11490  0.89240  0.52080  Biso   1.000  H
  H18      1.0000 0.90170  0.91950  0.16620  Biso   1.000  H
  H19      1.0000 0.54510  0.75970  0.14450  Biso   1.000  H
  H20      1.0000 0.66600  0.66340  0.22170  Biso   1.000  H
  H21      1.0000 0.84840  0.57260  0.30840  Biso   1.000  H
  H22      1.0000 0.04580  0.51750  0.37930  Biso   1.000  H
  H23      1.0000 0.30620  0.72390  0.34060  Biso   1.000  H
  H24      1.0000 0.01310  0.87770  0.34620  Biso   1.000  H
  H25      1.0000 0.08180  0.93810  0.28410  Biso   1.000  H
  H26      1.0000 0.19370  0.88370  0.33480  Biso   1.000  H
  H27      1.0000 0.20660  0.77370  0.16160  Biso   1.000  H
  H28      1.0000 0.31350  0.81940  0.22080  Biso   1.000  H
  H29      1.0000 0.20190  0.87390  0.16990  Biso   1.000  H
  H30      1.0000 0.05390  0.88530  0.01390  Biso   1.000  H
  H31      1.0000 0.90800  0.76390  0.02630  Biso   1.000  H
  H32      1.0000 0.27370  0.62960  0.96030  Biso   1.000  H
  H33      1.0000 0.40730  0.75360  0.94860  Biso   1.000  H
  H34      1.0000 0.88510  0.60760  0.02080  Biso   1.000  H
  H35      1.0000 0.90170  0.41950  0.33380  Biso   1.000  H
  H36      1.0000 0.54510  0.25970  0.35550  Biso   1.000  H
  H37      1.0000 0.66600  0.16340  0.27830  Biso   1.000  H
  H38      1.0000 0.84840  0.07260  0.19160  Biso   1.000  H
  H39      1.0000 0.04580  0.01750  0.12070  Biso   1.000  H
  H40      1.0000 0.30620  0.22390  0.15940  Biso   1.000  H
  H41      1.0000 0.01310  0.37770  0.15380  Biso   1.000  H
  H42      1.0000 0.08180  0.43810  0.21590  Biso   1.000  H
  H43      1.0000 0.19370  0.38370  0.16520  Biso   1.000  H
  H44      1.0000 0.20660  0.27370  0.33840  Biso   1.000  H
  H45      1.0000 0.31350  0.31940  0.27920  Biso   1.000  H
  H46      1.0000 0.20190  0.37390  0.33010  Biso   1.000  H
  H47      1.0000 0.05390  0.38530  0.48610  Biso   1.000  H
  H48      1.0000 0.90800  0.26390  0.47370  Biso   1.000  H
  H49      1.0000 0.27370  0.12960  0.53970  Biso   1.000  H
  H50      1.0000 0.40730  0.25360  0.55140  Biso   1.000  H
  H51      1.0000 0.88510  0.10760  0.47920  Biso   1.000  H
  H52      1.0000 0.09830  0.08050  0.83380  Biso   1.000  H
  H53      1.0000 0.45490  0.24030  0.85550  Biso   1.000  H
  H54      1.0000 0.33400  0.33660  0.77830  Biso   1.000  H
  H55      1.0000 0.15160  0.42740  0.69160  Biso   1.000  H
  H56      1.0000 0.95420  0.48250  0.62070  Biso   1.000  H
  H57      1.0000 0.69380  0.27610  0.65940  Biso   1.000  H
  H58      1.0000 0.98690  0.12230  0.65380  Biso   1.000  H
  H59      1.0000 0.91820  0.06190  0.71590  Biso   1.000  H
  H60      1.0000 0.80630  0.11630  0.66520  Biso   1.000  H
  H61      1.0000 0.79340  0.22630  0.83840  Biso   1.000  H
  H62      1.0000 0.68650  0.18060  0.77920  Biso   1.000  H
  H63      1.0000 0.79810  0.12610  0.83010  Biso   1.000  H
  H64      1.0000 0.94610  0.11470  0.98610  Biso   1.000  H
  H65      1.0000 0.09200  0.23610  0.97370  Biso   1.000  H
  H66      1.0000 0.72630  0.37040  0.03970  Biso   1.000  H
  H67      1.0000 0.59270  0.24640  0.05140  Biso   1.000  H
  H68      1.0000 0.11490  0.39240  0.97920  Biso   1.000  H
  C1       1.0000 0.14500  0.63320  0.67640  Biso   1.000  C
  C2       1.0000 0.28830  0.65110  0.64820  Biso   1.000  C
  C3       1.0000 0.35740  0.72760  0.66440  Biso   1.000  C
  C4       1.0000 0.28490  0.78520  0.70930  Biso   1.000  C
  C5       1.0000 0.05930  0.89700  0.81480  Biso   1.000  C
  C6       1.0000 0.94150  0.92930  0.85610  Biso   1.000  C
  C7       1.0000 0.80460  0.88660  0.86500  Biso   1.000  C
  C8       1.0000 0.78590  0.80650  0.83380  Biso   1.000  C
  C9       1.0000 0.91230  0.68750  0.75440  Biso   1.000  C
  C10      1.0000 0.06950  0.69200  0.71970  Biso   1.000  C
  C11      1.0000 0.14140  0.76810  0.73600  Biso   1.000  C
  C12      1.0000 0.03850  0.81760  0.78260  Biso   1.000  C
  C13      1.0000 0.90340  0.77280  0.79310  Biso   1.000  C
  C14      1.0000 0.90530  0.61560  0.80980  Biso   1.000  C
  C15      1.0000 0.78620  0.67940  0.69650  Biso   1.000  C
  C16      1.0000 0.36690  0.58940  0.59950  Biso   1.000  C
  C17      1.0000 0.68160  0.92620  0.90970  Biso   1.000  C
  C18      1.0000 0.90090  0.66750  0.50280  Biso   1.000  C
  C19      1.0000 0.98880  0.73980  0.51070  Biso   1.000  C
  C20      1.0000 0.92360  0.81700  0.49570  Biso   1.000  C
  C21      1.0000 0.77420  0.81840  0.47190  Biso   1.000  C
  C22      1.0000 0.69540  0.74430  0.46500  Biso   1.000  C
  C23      1.0000 0.01140  0.89520  0.50560  Biso   1.000  C
  C24      1.0000 0.85500  0.86680  0.17640  Biso   1.000  C
  C25      1.0000 0.71170  0.84890  0.14820  Biso   1.000  C
  C26      1.0000 0.64260  0.77240  0.16440  Biso   1.000  C
  C27      1.0000 0.71510  0.71480  0.20930  Biso   1.000  C
  C28      1.0000 0.94070  0.60300  0.31480  Biso   1.000  C
  C29      1.0000 0.05850  0.57070  0.35610  Biso   1.000  C
  C30      1.0000 0.19540  0.61340  0.36500  Biso   1.000  C
  C31      1.0000 0.21410  0.69350  0.33380  Biso   1.000  C
  C32      1.0000 0.08770  0.81250  0.25440  Biso   1.000  C
  C33      1.0000 0.93050  0.80800  0.21970  Biso   1.000  C
  C34      1.0000 0.85860  0.73190  0.23600  Biso   1.000  C
  C35      1.0000 0.96150  0.68240  0.28260  Biso   1.000  C
  C36      1.0000 0.09660  0.72720  0.29310  Biso   1.000  C
  C37      1.0000 0.09470  0.88440  0.30980  Biso   1.000  C
  C38      1.0000 0.21380  0.82060  0.19650  Biso   1.000  C
  C39      1.0000 0.63310  0.91060  0.09950  Biso   1.000  C
  C40      1.0000 0.31840  0.57380  0.40970  Biso   1.000  C
  C41      1.0000 0.09910  0.83250  0.00280  Biso   1.000  C
  C42      1.0000 0.01120  0.76020  0.01070  Biso   1.000  C
  C43      1.0000 0.07640  0.68300  0.99570  Biso   1.000  C
  C44      1.0000 0.22580  0.68160  0.97190  Biso   1.000  C
  C45      1.0000 0.30460  0.75570  0.96500  Biso   1.000  C
  C46      1.0000 0.98860  0.60480  0.00560  Biso   1.000  C
  C47      1.0000 0.85500  0.36680  0.32360  Biso   1.000  C
  C48      1.0000 0.71170  0.34890  0.35180  Biso   1.000  C
  C49      1.0000 0.64260  0.27240  0.33560  Biso   1.000  C
  C50      1.0000 0.71510  0.21480  0.29070  Biso   1.000  C
  C51      1.0000 0.94070  0.10300  0.18520  Biso   1.000  C
  C52      1.0000 0.05850  0.07070  0.14390  Biso   1.000  C
  C53      1.0000 0.19540  0.11340  0.13500  Biso   1.000  C
  C54      1.0000 0.21410  0.19350  0.16620  Biso   1.000  C
  C55      1.0000 0.08770  0.31250  0.24560  Biso   1.000  C
  C56      1.0000 0.93050  0.30800  0.28030  Biso   1.000  C
  C57      1.0000 0.85860  0.23190  0.26400  Biso   1.000  C
  C58      1.0000 0.96150  0.18240  0.21740  Biso   1.000  C
  C59      1.0000 0.09660  0.22720  0.20690  Biso   1.000  C
  C60      1.0000 0.09470  0.38440  0.19020  Biso   1.000  C
  C61      1.0000 0.21380  0.32060  0.30350  Biso   1.000  C
  C62      1.0000 0.63310  0.41060  0.40050  Biso   1.000  C
  C63      1.0000 0.31840  0.07380  0.09030  Biso   1.000  C
  C64      1.0000 0.09910  0.33250  0.49720  Biso   1.000  C
  C65      1.0000 0.01120  0.26020  0.48930  Biso   1.000  C
  C66      1.0000 0.07640  0.18300  0.50430  Biso   1.000  C
  C67      1.0000 0.22580  0.18160  0.52810  Biso   1.000  C
  C68      1.0000 0.30460  0.25570  0.53500  Biso   1.000  C
  C69      1.0000 0.98860  0.10480  0.49440  Biso   1.000  C
  C70      1.0000 0.14500  0.13320  0.82360  Biso   1.000  C
  C71      1.0000 0.28830  0.15110  0.85180  Biso   1.000  C
  C72      1.0000 0.35740  0.22760  0.83560  Biso   1.000  C
  C73      1.0000 0.28490  0.28520  0.79070  Biso   1.000  C
  C74      1.0000 0.05930  0.39700  0.68520  Biso   1.000  C
  C75      1.0000 0.94150  0.42930  0.64390  Biso   1.000  C
  C76      1.0000 0.80460  0.38660  0.63500  Biso   1.000  C
  C77      1.0000 0.78590  0.30650  0.66620  Biso   1.000  C
  C78      1.0000 0.91230  0.18750  0.74560  Biso   1.000  C
  C79      1.0000 0.06950  0.19200  0.78030  Biso   1.000  C
  C80      1.0000 0.14140  0.26810  0.76400  Biso   1.000  C
  C81      1.0000 0.03850  0.31760  0.71740  Biso   1.000  C
  C82      1.0000 0.90340  0.27280  0.70690  Biso   1.000  C
  C83      1.0000 0.90530  0.11560  0.69020  Biso   1.000  C
  C84      1.0000 0.78620  0.17940  0.80350  Biso   1.000  C
  C85      1.0000 0.36690  0.08940  0.90050  Biso   1.000  C
  C86      1.0000 0.68160  0.42620  0.59030  Biso   1.000  C
  C87      1.0000 0.90090  0.16750  0.99720  Biso   1.000  C
  C88      1.0000 0.98880  0.23980  0.98930  Biso   1.000  C
  C89      1.0000 0.92360  0.31700  0.00430  Biso   1.000  C
  C90      1.0000 0.77420  0.31840  0.02810  Biso   1.000  C
  C91      1.0000 0.69540  0.24430  0.03500  Biso   1.000  C
  C92      1.0000 0.01140  0.39520  0.99440  Biso   1.000  C
  N1       1.0000 0.75650  0.66893  0.48046  Biso   1.000  N
  N2       1.0000 0.94980  0.96620  0.49400  Biso   1.000  N
  N3       1.0000 0.24350  0.83107  0.98046  Biso   1.000  N
  N4       1.0000 0.05020  0.53380  0.99400  Biso   1.000  N
  N5       1.0000 0.24350  0.33107  0.51954  Biso   1.000  N
  N6       1.0000 0.05020  0.03380  0.50600  Biso   1.000  N
  N7       1.0000 0.75650  0.16893  0.01954  Biso   1.000  N
  N8       1.0000 0.94980  0.46620  0.00600  Biso   1.000  N
  O1       1.0000 0.31190  0.51599  0.59555  Biso   1.000  O
  O2       1.0000 0.48110  0.61525  0.56422  Biso   1.000  O
  O3       1.0000 0.71700  0.99287  0.94334  Biso   1.000  O
  O4       1.0000 0.55330  0.89144  0.91183  Biso   1.000  O
  O5       1.0000 0.68810  0.98401  0.09555  Biso   1.000  O
  O6       1.0000 0.51890  0.88475  0.06422  Biso   1.000  O
  O7       1.0000 0.28300  0.50713  0.44334  Biso   1.000  O
  O8       1.0000 0.44670  0.60856  0.41183  Biso   1.000  O
  O9       1.0000 0.68810  0.48401  0.40445  Biso   1.000  O
  O10      1.0000 0.51890  0.38475  0.43578  Biso   1.000  O
  O11      1.0000 0.28300  0.00713  0.05666  Biso   1.000  O
  O12      1.0000 0.44670  0.10856  0.08817  Biso   1.000  O
  O13      1.0000 0.31190  0.01599  0.90445  Biso   1.000  O
  O14      1.0000 0.48110  0.11525  0.93578  Biso   1.000  O
  O15      1.0000 0.71700  0.49287  0.55666  Biso   1.000  O
  O16      1.0000 0.55330  0.39144  0.58817  Biso   1.000  O
