data_image0
_cell_length_a       15.9388
_cell_length_b       16.1837
_cell_length_c       28.52
_cell_angle_alpha    90
_cell_angle_beta     90
_cell_angle_gamma    105.714

_symmetry_space_group_name_H-M    P 1
_symmetry_int_tables_number       1

loop_
  _symmetry_equiv_pos_as_xyz
  'x, y, z'

loop_
  _atom_site_label
  _atom_site_occupancy
  _atom_site_fract_x
  _atom_site_fract_y
  _atom_site_fract_z
  _atom_site_thermal_displace_type
  _atom_site_B_iso_or_equiv
  _atom_site_type_symbol
  Cd1      1.0000 0.61999  0.13608  0.96619  Biso   1.000  Cd
  Cd2      1.0000 0.66201  0.35016  0.03398  Biso   1.000  Cd
  Cd3      1.0000 0.61999  0.63608  0.53381  Biso   1.000  Cd
  Cd4      1.0000 0.66201  0.85016  0.46602  Biso   1.000  Cd
  H1       1.0000 0.68960  0.50620  0.88700  Biso   1.000  H
  H2       1.0000 0.66720  0.25330  0.87020  Biso   1.000  H
  H3       1.0000 0.65500  0.26430  0.78960  Biso   1.000  H
  H4       1.0000 0.63500  0.30900  0.70130  Biso   1.000  H
  H5       1.0000 0.61770  0.37660  0.63130  Biso   1.000  H
  H6       1.0000 0.65790  0.60650  0.69850  Biso   1.000  H
  H7       1.0000 0.54770  0.53900  0.80280  Biso   1.000  H
  H8       1.0000 0.60300  0.63090  0.78430  Biso   1.000  H
  H9       1.0000 0.61350  0.60330  0.83740  Biso   1.000  H
  H10      1.0000 0.81020  0.58880  0.78490  Biso   1.000  H
  H11      1.0000 0.77130  0.63350  0.82650  Biso   1.000  H
  H12      1.0000 0.76190  0.66120  0.77330  Biso   1.000  H
  H13      1.0000 0.61190  0.98640  0.11310  Biso   1.000  H
  H14      1.0000 0.58860  0.22950  0.13190  Biso   1.000  H
  H15      1.0000 0.59040  0.21310  0.21330  Biso   1.000  H
  H16      1.0000 0.61000  0.16590  0.30150  Biso   1.000  H
  H17      1.0000 0.63360  0.10060  0.37140  Biso   1.000  H
  H18      1.0000 0.65190  0.88930  0.30010  Biso   1.000  H
  H19      1.0000 0.49600  0.88510  0.21270  Biso   1.000  H
  H20      1.0000 0.55810  0.82490  0.22440  Biso   1.000  H
  H21      1.0000 0.54610  0.85150  0.17130  Biso   1.000  H
  H22      1.0000 0.76090  0.97770  0.19890  Biso   1.000  H
  H23      1.0000 0.70580  0.90780  0.16300  Biso   1.000  H
  H24      1.0000 0.71830  0.88130  0.21610  Biso   1.000  H
  H25      1.0000 0.86220  0.42760  0.99620  Biso   1.000  H
  H26      1.0000 0.99950  0.41780  0.00670  Biso   1.000  H
  H27      1.0000 0.91420  0.24200  0.10490  Biso   1.000  H
  H28      1.0000 0.77410  0.26060  0.09520  Biso   1.000  H
  H29      1.0000 0.06940  0.28310  0.08980  Biso   1.000  H
  H30      1.0000 0.24570  0.40830  0.99900  Biso   1.000  H
  H31      1.0000 0.33430  0.29150  0.08680  Biso   1.000  H
  H32      1.0000 0.47570  0.27690  0.08630  Biso   1.000  H
  H33      1.0000 0.52790  0.41250  0.97030  Biso   1.000  H
  H34      1.0000 0.39030  0.43050  0.96850  Biso   1.000  H
  H35      1.0000 0.43620  0.09220  0.01550  Biso   1.000  H
  H36      1.0000 0.29450  0.10690  0.00990  Biso   1.000  H
  H37      1.0000 0.36660  0.24180  0.89150  Biso   1.000  H
  H38      1.0000 0.50520  0.22370  0.89990  Biso   1.000  H
  H39      1.0000 0.21730  0.22130  0.91940  Biso   1.000  H
  H40      1.0000 0.03710  0.08870  0.01440  Biso   1.000  H
  H41      1.0000 0.88780  0.04640  0.03510  Biso   1.000  H
  H42      1.0000 0.74350  0.05380  0.02480  Biso   1.000  H
  H43      1.0000 0.81530  0.23930  0.93480  Biso   1.000  H
  H44      1.0000 0.96020  0.23110  0.93650  Biso   1.000  H
  H45      1.0000 0.68960  0.00620  0.61300  Biso   1.000  H
  H46      1.0000 0.66720  0.75330  0.62980  Biso   1.000  H
  H47      1.0000 0.65500  0.76430  0.71040  Biso   1.000  H
  H48      1.0000 0.63500  0.80900  0.79870  Biso   1.000  H
  H49      1.0000 0.61770  0.87660  0.86870  Biso   1.000  H
  H50      1.0000 0.65790  0.10650  0.80150  Biso   1.000  H
  H51      1.0000 0.54770  0.03900  0.69720  Biso   1.000  H
  H52      1.0000 0.60300  0.13090  0.71570  Biso   1.000  H
  H53      1.0000 0.61350  0.10330  0.66260  Biso   1.000  H
  H54      1.0000 0.81020  0.08880  0.71510  Biso   1.000  H
  H55      1.0000 0.77130  0.13350  0.67350  Biso   1.000  H
  H56      1.0000 0.76190  0.16120  0.72670  Biso   1.000  H
  H57      1.0000 0.61190  0.48640  0.38690  Biso   1.000  H
  H58      1.0000 0.58860  0.72950  0.36810  Biso   1.000  H
  H59      1.0000 0.59040  0.71310  0.28670  Biso   1.000  H
  H60      1.0000 0.61000  0.66590  0.19850  Biso   1.000  H
  H61      1.0000 0.63360  0.60060  0.12860  Biso   1.000  H
  H62      1.0000 0.65190  0.38930  0.19990  Biso   1.000  H
  H63      1.0000 0.49600  0.38510  0.28730  Biso   1.000  H
  H64      1.0000 0.55810  0.32490  0.27560  Biso   1.000  H
  H65      1.0000 0.54610  0.35150  0.32870  Biso   1.000  H
  H66      1.0000 0.76090  0.47770  0.30110  Biso   1.000  H
  H67      1.0000 0.70580  0.40780  0.33700  Biso   1.000  H
  H68      1.0000 0.71830  0.38130  0.28390  Biso   1.000  H
  H69      1.0000 0.86220  0.92760  0.50380  Biso   1.000  H
  H70      1.0000 0.99950  0.91780  0.49330  Biso   1.000  H
  H71      1.0000 0.91420  0.74200  0.39510  Biso   1.000  H
  H72      1.0000 0.77410  0.76060  0.40480  Biso   1.000  H
  H73      1.0000 0.06940  0.78310  0.41020  Biso   1.000  H
  H74      1.0000 0.24570  0.90830  0.50100  Biso   1.000  H
  H75      1.0000 0.33430  0.79150  0.41320  Biso   1.000  H
  H76      1.0000 0.47570  0.77690  0.41370  Biso   1.000  H
  H77      1.0000 0.52790  0.91250  0.52970  Biso   1.000  H
  H78      1.0000 0.39030  0.93050  0.53150  Biso   1.000  H
  H79      1.0000 0.43620  0.59220  0.48450  Biso   1.000  H
  H80      1.0000 0.29450  0.60690  0.49010  Biso   1.000  H
  H81      1.0000 0.36660  0.74180  0.60850  Biso   1.000  H
  H82      1.0000 0.50520  0.72370  0.60010  Biso   1.000  H
  H83      1.0000 0.21730  0.72130  0.58060  Biso   1.000  H
  H84      1.0000 0.03710  0.58870  0.48560  Biso   1.000  H
  H85      1.0000 0.88780  0.54640  0.46490  Biso   1.000  H
  H86      1.0000 0.74350  0.55380  0.47520  Biso   1.000  H
  H87      1.0000 0.81530  0.73930  0.56520  Biso   1.000  H
  H88      1.0000 0.96020  0.73110  0.56350  Biso   1.000  H
  C1       1.0000 0.68230  0.45770  0.86710  Biso   1.000  C
  C2       1.0000 0.67780  0.37610  0.88610  Biso   1.000  C
  C3       1.0000 0.66850  0.30750  0.85690  Biso   1.000  C
  C4       1.0000 0.66090  0.31310  0.80910  Biso   1.000  C
  C5       1.0000 0.63870  0.36860  0.70080  Biso   1.000  C
  C6       1.0000 0.62980  0.40950  0.65930  Biso   1.000  C
  C7       1.0000 0.63790  0.49820  0.65700  Biso   1.000  C
  C8       1.0000 0.65320  0.54670  0.69910  Biso   1.000  C
  C9       1.0000 0.66150  0.50600  0.74110  Biso   1.000  C
  C10      1.0000 0.65340  0.41710  0.74180  Biso   1.000  C
  C11      1.0000 0.66210  0.39190  0.79050  Biso   1.000  C
  C12      1.0000 0.67600  0.46580  0.81910  Biso   1.000  C
  C13      1.0000 0.67630  0.54450  0.79010  Biso   1.000  C
  C14      1.0000 0.60370  0.58280  0.80490  Biso   1.000  C
  C15      1.0000 0.76250  0.61310  0.79410  Biso   1.000  C
  C16      1.0000 0.68070  0.36560  0.93870  Biso   1.000  C
  C17      1.0000 0.62780  0.54080  0.61180  Biso   1.000  C
  C18      1.0000 0.60970  0.03260  0.13320  Biso   1.000  C
  C19      1.0000 0.60120  0.11100  0.11480  Biso   1.000  C
  C20      1.0000 0.59450  0.17730  0.14490  Biso   1.000  C
  C21      1.0000 0.59620  0.16840  0.19300  Biso   1.000  C
  C22      1.0000 0.61870  0.11010  0.30130  Biso   1.000  C
  C23      1.0000 0.63230  0.07120  0.34250  Biso   1.000  C
  C24      1.0000 0.64400  0.98940  0.34200  Biso   1.000  C
  C25      1.0000 0.64350  0.94520  0.30030  Biso   1.000  C
  C26      1.0000 0.63050  0.98480  0.25860  Biso   1.000  C
  C27      1.0000 0.61800  0.06590  0.25950  Biso   1.000  C
  C28      1.0000 0.60680  0.09090  0.21080  Biso   1.000  C
  C29      1.0000 0.61450  0.02550  0.18130  Biso   1.000  C
  C30      1.0000 0.62830  0.95130  0.20960  Biso   1.000  C
  C31      1.0000 0.54990  0.87080  0.20400  Biso   1.000  C
  C32      1.0000 0.71060  0.92740  0.19570  Biso   1.000  C
  C33      1.0000 0.60090  0.12460  0.06240  Biso   1.000  C
  C34      1.0000 0.65900  0.94700  0.38810  Biso   1.000  C
  C35      1.0000 0.87230  0.38980  0.01960  Biso   1.000  C
  C36      1.0000 0.95370  0.38460  0.02570  Biso   1.000  C
  C37      1.0000 0.97060  0.33250  0.05850  Biso   1.000  C
  C38      1.0000 0.90450  0.28300  0.08320  Biso   1.000  C
  C39      1.0000 0.82050  0.29290  0.07620  Biso   1.000  C
  C40      1.0000 0.06030  0.32140  0.06640  Biso   1.000  C
  C41      1.0000 0.25960  0.37530  0.02400  Biso   1.000  C
  C42      1.0000 0.34580  0.36410  0.02680  Biso   1.000  C
  C43      1.0000 0.37340  0.31730  0.06250  Biso   1.000  C
  C44      1.0000 0.45800  0.30880  0.06210  Biso   1.000  C
  C45      1.0000 0.48820  0.38790  0.99460  Biso   1.000  C
  C46      1.0000 0.40580  0.39840  0.99330  Biso   1.000  C
  C47      1.0000 0.42160  0.12290  0.98970  Biso   1.000  C
  C48      1.0000 0.33670  0.13140  0.98670  Biso   1.000  C
  C49      1.0000 0.31590  0.17560  0.94980  Biso   1.000  C
  C50      1.0000 0.37940  0.21040  0.91740  Biso   1.000  C
  C51      1.0000 0.46170  0.19950  0.92250  Biso   1.000  C
  C52      1.0000 0.22890  0.18690  0.94430  Biso   1.000  C
  C53      1.0000 0.02550  0.12590  0.99110  Biso   1.000  C
  C54      1.0000 0.93890  0.13630  0.98580  Biso   1.000  C
  C55      1.0000 0.87480  0.08510  0.01300  Biso   1.000  C
  C56      1.0000 0.78840  0.09140  0.00700  Biso   1.000  C
  C57      1.0000 0.82930  0.19750  0.95440  Biso   1.000  C
  C58      1.0000 0.91720  0.19430  0.95580  Biso   1.000  C
  C59      1.0000 0.68230  0.95770  0.63290  Biso   1.000  C
  C60      1.0000 0.67780  0.87610  0.61390  Biso   1.000  C
  C61      1.0000 0.66850  0.80750  0.64310  Biso   1.000  C
  C62      1.0000 0.66090  0.81310  0.69090  Biso   1.000  C
  C63      1.0000 0.63870  0.86860  0.79920  Biso   1.000  C
  C64      1.0000 0.62980  0.90950  0.84070  Biso   1.000  C
  C65      1.0000 0.63790  0.99820  0.84300  Biso   1.000  C
  C66      1.0000 0.65320  0.04670  0.80090  Biso   1.000  C
  C67      1.0000 0.66150  0.00600  0.75890  Biso   1.000  C
  C68      1.0000 0.65340  0.91710  0.75820  Biso   1.000  C
  C69      1.0000 0.66210  0.89190  0.70950  Biso   1.000  C
  C70      1.0000 0.67600  0.96580  0.68090  Biso   1.000  C
  C71      1.0000 0.67630  0.04450  0.70990  Biso   1.000  C
  C72      1.0000 0.60370  0.08280  0.69510  Biso   1.000  C
  C73      1.0000 0.76250  0.11310  0.70590  Biso   1.000  C
  C74      1.0000 0.68070  0.86560  0.56130  Biso   1.000  C
  C75      1.0000 0.62780  0.04080  0.88820  Biso   1.000  C
  C76      1.0000 0.60970  0.53260  0.36680  Biso   1.000  C
  C77      1.0000 0.60120  0.61100  0.38520  Biso   1.000  C
  C78      1.0000 0.59450  0.67730  0.35510  Biso   1.000  C
  C79      1.0000 0.59620  0.66840  0.30700  Biso   1.000  C
  C80      1.0000 0.61870  0.61010  0.19870  Biso   1.000  C
  C81      1.0000 0.63230  0.57120  0.15750  Biso   1.000  C
  C82      1.0000 0.64400  0.48940  0.15800  Biso   1.000  C
  C83      1.0000 0.64350  0.44520  0.19970  Biso   1.000  C
  C84      1.0000 0.63050  0.48480  0.24140  Biso   1.000  C
  C85      1.0000 0.61800  0.56590  0.24050  Biso   1.000  C
  C86      1.0000 0.60680  0.59090  0.28920  Biso   1.000  C
  C87      1.0000 0.61450  0.52550  0.31870  Biso   1.000  C
  C88      1.0000 0.62830  0.45130  0.29040  Biso   1.000  C
  C89      1.0000 0.54990  0.37080  0.29600  Biso   1.000  C
  C90      1.0000 0.71060  0.42740  0.30430  Biso   1.000  C
  C91      1.0000 0.60090  0.62460  0.43760  Biso   1.000  C
  C92      1.0000 0.65900  0.44700  0.11190  Biso   1.000  C
  C93      1.0000 0.87230  0.88980  0.48040  Biso   1.000  C
  C94      1.0000 0.95370  0.88460  0.47430  Biso   1.000  C
  C95      1.0000 0.97060  0.83250  0.44150  Biso   1.000  C
  C96      1.0000 0.90450  0.78300  0.41680  Biso   1.000  C
  C97      1.0000 0.82050  0.79290  0.42380  Biso   1.000  C
  C98      1.0000 0.06030  0.82140  0.43360  Biso   1.000  C
  C99      1.0000 0.25960  0.87530  0.47600  Biso   1.000  C
  C100     1.0000 0.34580  0.86410  0.47320  Biso   1.000  C
  C101     1.0000 0.37340  0.81730  0.43750  Biso   1.000  C
  C102     1.0000 0.45800  0.80880  0.43790  Biso   1.000  C
  C103     1.0000 0.48820  0.88790  0.50540  Biso   1.000  C
  C104     1.0000 0.40580  0.89840  0.50670  Biso   1.000  C
  C105     1.0000 0.42160  0.62290  0.51030  Biso   1.000  C
  C106     1.0000 0.33670  0.63140  0.51330  Biso   1.000  C
  C107     1.0000 0.31590  0.67560  0.55020  Biso   1.000  C
  C108     1.0000 0.37940  0.71040  0.58260  Biso   1.000  C
  C109     1.0000 0.46170  0.69950  0.57750  Biso   1.000  C
  C110     1.0000 0.22890  0.68690  0.55570  Biso   1.000  C
  C111     1.0000 0.02550  0.62590  0.50890  Biso   1.000  C
  C112     1.0000 0.93890  0.63630  0.51420  Biso   1.000  C
  C113     1.0000 0.87480  0.58510  0.48700  Biso   1.000  C
  C114     1.0000 0.78840  0.59140  0.49300  Biso   1.000  C
  C115     1.0000 0.82930  0.69750  0.54560  Biso   1.000  C
  C116     1.0000 0.91720  0.69430  0.54420  Biso   1.000  C
  N1       1.0000 0.80370  0.34480  0.04460  Biso   1.000  N
  N2       1.0000 0.12280  0.36270  0.04200  Biso   1.000  N
  N3       1.0000 0.20300  0.34290  0.05340  Biso   1.000  N
  N4       1.0000 0.51480  0.34390  0.02880  Biso   1.000  N
  N5       1.0000 0.48180  0.15550  0.95860  Biso   1.000  N
  N6       1.0000 0.16800  0.15070  0.97280  Biso   1.000  N
  N7       1.0000 0.08870  0.16860  0.96310  Biso   1.000  N
  N8       1.0000 0.76620  0.14620  0.97840  Biso   1.000  N
  N9       1.0000 0.80370  0.84480  0.45540  Biso   1.000  N
  N10      1.0000 0.12280  0.86270  0.45800  Biso   1.000  N
  N11      1.0000 0.20300  0.84290  0.44660  Biso   1.000  N
  N12      1.0000 0.51480  0.84390  0.47120  Biso   1.000  N
  N13      1.0000 0.48180  0.65550  0.54140  Biso   1.000  N
  N14      1.0000 0.16800  0.65070  0.52720  Biso   1.000  N
  N15      1.0000 0.08870  0.66860  0.53690  Biso   1.000  N
  N16      1.0000 0.76620  0.64620  0.52160  Biso   1.000  N
  O1       1.0000 0.69020  0.42940  0.96420  Biso   1.000  O
  O2       1.0000 0.66930  0.29120  0.95490  Biso   1.000  O
  O3       1.0000 0.62580  0.61640  0.61300  Biso   1.000  O
  O4       1.0000 0.62520  0.49860  0.57490  Biso   1.000  O
  O5       1.0000 0.59280  0.06130  0.03640  Biso   1.000  O
  O6       1.0000 0.61260  0.20020  0.04690  Biso   1.000  O
  O7       1.0000 0.67290  0.98930  0.42520  Biso   1.000  O
  O8       1.0000 0.65460  0.86810  0.38610  Biso   1.000  O
  O9       1.0000 0.69020  0.92940  0.53580  Biso   1.000  O
  O10      1.0000 0.66930  0.79120  0.54510  Biso   1.000  O
  O11      1.0000 0.62580  0.11640  0.88700  Biso   1.000  O
  O12      1.0000 0.62520  0.99860  0.92510  Biso   1.000  O
  O13      1.0000 0.59280  0.56130  0.46360  Biso   1.000  O
  O14      1.0000 0.61260  0.70020  0.45310  Biso   1.000  O
  O15      1.0000 0.67290  0.48930  0.07480  Biso   1.000  O
  O16      1.0000 0.65460  0.36810  0.11390  Biso   1.000  O
  Cd5      1.0000 0.38001  0.36392  0.46619  Biso   1.000  Cd
  Cd6      1.0000 0.33799  0.14984  0.53398  Biso   1.000  Cd
  Cd7      1.0000 0.38001  0.86392  0.03381  Biso   1.000  Cd
  Cd8      1.0000 0.33799  0.64984  0.96602  Biso   1.000  Cd
  H89      1.0000 0.31040  0.99380  0.38700  Biso   1.000  H
  H90      1.0000 0.33280  0.24670  0.37020  Biso   1.000  H
  H91      1.0000 0.34500  0.23570  0.28960  Biso   1.000  H
  H92      1.0000 0.36500  0.19100  0.20130  Biso   1.000  H
  H93      1.0000 0.38230  0.12340  0.13130  Biso   1.000  H
  H94      1.0000 0.34210  0.89350  0.19850  Biso   1.000  H
  H95      1.0000 0.45230  0.96100  0.30280  Biso   1.000  H
  H96      1.0000 0.39700  0.86910  0.28430  Biso   1.000  H
  H97      1.0000 0.38650  0.89670  0.33740  Biso   1.000  H
  H98      1.0000 0.18980  0.91120  0.28490  Biso   1.000  H
  H99      1.0000 0.22870  0.86650  0.32650  Biso   1.000  H
  H100     1.0000 0.23810  0.83880  0.27330  Biso   1.000  H
  H101     1.0000 0.38810  0.51360  0.61310  Biso   1.000  H
  H102     1.0000 0.41140  0.27050  0.63190  Biso   1.000  H
  H103     1.0000 0.40960  0.28690  0.71330  Biso   1.000  H
  H104     1.0000 0.39000  0.33410  0.80150  Biso   1.000  H
  H105     1.0000 0.36640  0.39940  0.87140  Biso   1.000  H
  H106     1.0000 0.34810  0.61070  0.80010  Biso   1.000  H
  H107     1.0000 0.50400  0.61490  0.71270  Biso   1.000  H
  H108     1.0000 0.44190  0.67510  0.72440  Biso   1.000  H
  H109     1.0000 0.45390  0.64850  0.67130  Biso   1.000  H
  H110     1.0000 0.23910  0.52230  0.69890  Biso   1.000  H
  H111     1.0000 0.29420  0.59220  0.66300  Biso   1.000  H
  H112     1.0000 0.28170  0.61870  0.71610  Biso   1.000  H
  H113     1.0000 0.13780  0.07240  0.49620  Biso   1.000  H
  H114     1.0000 0.00050  0.08220  0.50670  Biso   1.000  H
  H115     1.0000 0.08580  0.25800  0.60490  Biso   1.000  H
  H116     1.0000 0.22590  0.23940  0.59520  Biso   1.000  H
  H117     1.0000 0.93060  0.21690  0.58980  Biso   1.000  H
  H118     1.0000 0.75430  0.09170  0.49900  Biso   1.000  H
  H119     1.0000 0.66570  0.20850  0.58680  Biso   1.000  H
  H120     1.0000 0.52430  0.22310  0.58630  Biso   1.000  H
  H121     1.0000 0.47210  0.08750  0.47030  Biso   1.000  H
  H122     1.0000 0.60970  0.06950  0.46850  Biso   1.000  H
  H123     1.0000 0.56380  0.40780  0.51550  Biso   1.000  H
  H124     1.0000 0.70550  0.39310  0.50990  Biso   1.000  H
  H125     1.0000 0.63340  0.25820  0.39150  Biso   1.000  H
  H126     1.0000 0.49480  0.27630  0.39990  Biso   1.000  H
  H127     1.0000 0.78270  0.27870  0.41940  Biso   1.000  H
  H128     1.0000 0.96290  0.41130  0.51440  Biso   1.000  H
  H129     1.0000 0.11220  0.45360  0.53510  Biso   1.000  H
  H130     1.0000 0.25650  0.44620  0.52480  Biso   1.000  H
  H131     1.0000 0.18470  0.26070  0.43480  Biso   1.000  H
  H132     1.0000 0.03980  0.26890  0.43650  Biso   1.000  H
  H133     1.0000 0.31040  0.49380  0.11300  Biso   1.000  H
  H134     1.0000 0.33280  0.74670  0.12980  Biso   1.000  H
  H135     1.0000 0.34500  0.73570  0.21040  Biso   1.000  H
  H136     1.0000 0.36500  0.69100  0.29870  Biso   1.000  H
  H137     1.0000 0.38230  0.62340  0.36870  Biso   1.000  H
  H138     1.0000 0.34210  0.39350  0.30150  Biso   1.000  H
  H139     1.0000 0.45230  0.46100  0.19720  Biso   1.000  H
  H140     1.0000 0.39700  0.36910  0.21570  Biso   1.000  H
  H141     1.0000 0.38650  0.39670  0.16260  Biso   1.000  H
  H142     1.0000 0.18980  0.41120  0.21510  Biso   1.000  H
  H143     1.0000 0.22870  0.36650  0.17350  Biso   1.000  H
  H144     1.0000 0.23810  0.33880  0.22670  Biso   1.000  H
  H145     1.0000 0.38810  0.01360  0.88690  Biso   1.000  H
  H146     1.0000 0.41140  0.77050  0.86810  Biso   1.000  H
  H147     1.0000 0.40960  0.78690  0.78670  Biso   1.000  H
  H148     1.0000 0.39000  0.83410  0.69850  Biso   1.000  H
  H149     1.0000 0.36640  0.89940  0.62860  Biso   1.000  H
  H150     1.0000 0.34810  0.11070  0.69990  Biso   1.000  H
  H151     1.0000 0.50400  0.11490  0.78730  Biso   1.000  H
  H152     1.0000 0.44190  0.17510  0.77560  Biso   1.000  H
  H153     1.0000 0.45390  0.14850  0.82870  Biso   1.000  H
  H154     1.0000 0.23910  0.02230  0.80110  Biso   1.000  H
  H155     1.0000 0.29420  0.09220  0.83700  Biso   1.000  H
  H156     1.0000 0.28170  0.11870  0.78390  Biso   1.000  H
  H157     1.0000 0.13780  0.57240  0.00380  Biso   1.000  H
  H158     1.0000 0.00050  0.58220  0.99330  Biso   1.000  H
  H159     1.0000 0.08580  0.75800  0.89510  Biso   1.000  H
  H160     1.0000 0.22590  0.73940  0.90480  Biso   1.000  H
  H161     1.0000 0.93060  0.71690  0.91020  Biso   1.000  H
  H162     1.0000 0.75430  0.59170  0.00100  Biso   1.000  H
  H163     1.0000 0.66570  0.70850  0.91320  Biso   1.000  H
  H164     1.0000 0.52430  0.72310  0.91370  Biso   1.000  H
  H165     1.0000 0.47210  0.58750  0.02970  Biso   1.000  H
  H166     1.0000 0.60970  0.56950  0.03150  Biso   1.000  H
  H167     1.0000 0.56380  0.90780  0.98450  Biso   1.000  H
  H168     1.0000 0.70550  0.89310  0.99010  Biso   1.000  H
  H169     1.0000 0.63340  0.75820  0.10850  Biso   1.000  H
  H170     1.0000 0.49480  0.77630  0.10010  Biso   1.000  H
  H171     1.0000 0.78270  0.77870  0.08060  Biso   1.000  H
  H172     1.0000 0.96290  0.91130  0.98560  Biso   1.000  H
  H173     1.0000 0.11220  0.95360  0.96490  Biso   1.000  H
  H174     1.0000 0.25650  0.94620  0.97520  Biso   1.000  H
  H175     1.0000 0.18470  0.76070  0.06520  Biso   1.000  H
  H176     1.0000 0.03980  0.76890  0.06350  Biso   1.000  H
  C117     1.0000 0.31770  0.04230  0.36710  Biso   1.000  C
  C118     1.0000 0.32220  0.12390  0.38610  Biso   1.000  C
  C119     1.0000 0.33150  0.19250  0.35690  Biso   1.000  C
  C120     1.0000 0.33910  0.18690  0.30910  Biso   1.000  C
  C121     1.0000 0.36130  0.13140  0.20080  Biso   1.000  C
  C122     1.0000 0.37020  0.09050  0.15930  Biso   1.000  C
  C123     1.0000 0.36210  0.00180  0.15700  Biso   1.000  C
  C124     1.0000 0.34680  0.95330  0.19910  Biso   1.000  C
  C125     1.0000 0.33850  0.99400  0.24110  Biso   1.000  C
  C126     1.0000 0.34660  0.08290  0.24180  Biso   1.000  C
  C127     1.0000 0.33790  0.10810  0.29050  Biso   1.000  C
  C128     1.0000 0.32400  0.03420  0.31910  Biso   1.000  C
  C129     1.0000 0.32370  0.95550  0.29010  Biso   1.000  C
  C130     1.0000 0.39630  0.91720  0.30490  Biso   1.000  C
  C131     1.0000 0.23750  0.88690  0.29410  Biso   1.000  C
  C132     1.0000 0.31930  0.13440  0.43870  Biso   1.000  C
  C133     1.0000 0.37220  0.95920  0.11180  Biso   1.000  C
  C134     1.0000 0.39030  0.46740  0.63320  Biso   1.000  C
  C135     1.0000 0.39880  0.38900  0.61480  Biso   1.000  C
  C136     1.0000 0.40550  0.32270  0.64490  Biso   1.000  C
  C137     1.0000 0.40380  0.33160  0.69300  Biso   1.000  C
  C138     1.0000 0.38130  0.38990  0.80130  Biso   1.000  C
  C139     1.0000 0.36770  0.42880  0.84250  Biso   1.000  C
  C140     1.0000 0.35600  0.51060  0.84200  Biso   1.000  C
  C141     1.0000 0.35650  0.55480  0.80030  Biso   1.000  C
  C142     1.0000 0.36950  0.51520  0.75860  Biso   1.000  C
  C143     1.0000 0.38200  0.43410  0.75950  Biso   1.000  C
  C144     1.0000 0.39320  0.40910  0.71080  Biso   1.000  C
  C145     1.0000 0.38550  0.47450  0.68130  Biso   1.000  C
  C146     1.0000 0.37170  0.54870  0.70960  Biso   1.000  C
  C147     1.0000 0.45010  0.62920  0.70400  Biso   1.000  C
  C148     1.0000 0.28940  0.57260  0.69570  Biso   1.000  C
  C149     1.0000 0.39910  0.37540  0.56240  Biso   1.000  C
  C150     1.0000 0.34100  0.55300  0.88810  Biso   1.000  C
  C151     1.0000 0.12770  0.11020  0.51960  Biso   1.000  C
  C152     1.0000 0.04630  0.11540  0.52570  Biso   1.000  C
  C153     1.0000 0.02940  0.16750  0.55850  Biso   1.000  C
  C154     1.0000 0.09550  0.21700  0.58320  Biso   1.000  C
  C155     1.0000 0.17950  0.20710  0.57620  Biso   1.000  C
  C156     1.0000 0.93970  0.17860  0.56640  Biso   1.000  C
  C157     1.0000 0.74040  0.12470  0.52400  Biso   1.000  C
  C158     1.0000 0.65420  0.13590  0.52680  Biso   1.000  C
  C159     1.0000 0.62660  0.18270  0.56250  Biso   1.000  C
  C160     1.0000 0.54200  0.19120  0.56210  Biso   1.000  C
  C161     1.0000 0.51180  0.11210  0.49460  Biso   1.000  C
  C162     1.0000 0.59420  0.10160  0.49330  Biso   1.000  C
  C163     1.0000 0.57840  0.37710  0.48970  Biso   1.000  C
  C164     1.0000 0.66330  0.36860  0.48670  Biso   1.000  C
  C165     1.0000 0.68410  0.32440  0.44980  Biso   1.000  C
  C166     1.0000 0.62060  0.28960  0.41740  Biso   1.000  C
  C167     1.0000 0.53830  0.30050  0.42250  Biso   1.000  C
  C168     1.0000 0.77110  0.31310  0.44430  Biso   1.000  C
  C169     1.0000 0.97450  0.37410  0.49110  Biso   1.000  C
  C170     1.0000 0.06110  0.36370  0.48580  Biso   1.000  C
  C171     1.0000 0.12520  0.41490  0.51300  Biso   1.000  C
  C172     1.0000 0.21160  0.40860  0.50700  Biso   1.000  C
  C173     1.0000 0.17070  0.30250  0.45440  Biso   1.000  C
  C174     1.0000 0.08280  0.30570  0.45580  Biso   1.000  C
  C175     1.0000 0.31770  0.54230  0.13290  Biso   1.000  C
  C176     1.0000 0.32220  0.62390  0.11390  Biso   1.000  C
  C177     1.0000 0.33150  0.69250  0.14310  Biso   1.000  C
  C178     1.0000 0.33910  0.68690  0.19090  Biso   1.000  C
  C179     1.0000 0.36130  0.63140  0.29920  Biso   1.000  C
  C180     1.0000 0.37020  0.59050  0.34070  Biso   1.000  C
  C181     1.0000 0.36210  0.50180  0.34300  Biso   1.000  C
  C182     1.0000 0.34680  0.45330  0.30090  Biso   1.000  C
  C183     1.0000 0.33850  0.49400  0.25890  Biso   1.000  C
  C184     1.0000 0.34660  0.58290  0.25820  Biso   1.000  C
  C185     1.0000 0.33790  0.60810  0.20950  Biso   1.000  C
  C186     1.0000 0.32400  0.53420  0.18090  Biso   1.000  C
  C187     1.0000 0.32370  0.45550  0.20990  Biso   1.000  C
  C188     1.0000 0.39630  0.41720  0.19510  Biso   1.000  C
  C189     1.0000 0.23750  0.38690  0.20590  Biso   1.000  C
  C190     1.0000 0.31930  0.63440  0.06130  Biso   1.000  C
  C191     1.0000 0.37220  0.45920  0.38820  Biso   1.000  C
  C192     1.0000 0.39030  0.96740  0.86680  Biso   1.000  C
  C193     1.0000 0.39880  0.88900  0.88520  Biso   1.000  C
  C194     1.0000 0.40550  0.82270  0.85510  Biso   1.000  C
  C195     1.0000 0.40380  0.83160  0.80700  Biso   1.000  C
  C196     1.0000 0.38130  0.88990  0.69870  Biso   1.000  C
  C197     1.0000 0.36770  0.92880  0.65750  Biso   1.000  C
  C198     1.0000 0.35600  0.01060  0.65800  Biso   1.000  C
  C199     1.0000 0.35650  0.05480  0.69970  Biso   1.000  C
  C200     1.0000 0.36950  0.01520  0.74140  Biso   1.000  C
  C201     1.0000 0.38200  0.93410  0.74050  Biso   1.000  C
  C202     1.0000 0.39320  0.90910  0.78920  Biso   1.000  C
  C203     1.0000 0.38550  0.97450  0.81870  Biso   1.000  C
  C204     1.0000 0.37170  0.04870  0.79040  Biso   1.000  C
  C205     1.0000 0.45010  0.12920  0.79600  Biso   1.000  C
  C206     1.0000 0.28940  0.07260  0.80430  Biso   1.000  C
  C207     1.0000 0.39910  0.87540  0.93760  Biso   1.000  C
  C208     1.0000 0.34100  0.05300  0.61190  Biso   1.000  C
  C209     1.0000 0.12770  0.61020  0.98040  Biso   1.000  C
  C210     1.0000 0.04630  0.61540  0.97430  Biso   1.000  C
  C211     1.0000 0.02940  0.66750  0.94150  Biso   1.000  C
  C212     1.0000 0.09550  0.71700  0.91680  Biso   1.000  C
  C213     1.0000 0.17950  0.70710  0.92380  Biso   1.000  C
  C214     1.0000 0.93970  0.67860  0.93360  Biso   1.000  C
  C215     1.0000 0.74040  0.62470  0.97600  Biso   1.000  C
  C216     1.0000 0.65420  0.63590  0.97320  Biso   1.000  C
  C217     1.0000 0.62660  0.68270  0.93750  Biso   1.000  C
  C218     1.0000 0.54200  0.69120  0.93790  Biso   1.000  C
  C219     1.0000 0.51180  0.61210  0.00540  Biso   1.000  C
  C220     1.0000 0.59420  0.60160  0.00670  Biso   1.000  C
  C221     1.0000 0.57840  0.87710  0.01030  Biso   1.000  C
  C222     1.0000 0.66330  0.86860  0.01330  Biso   1.000  C
  C223     1.0000 0.68410  0.82440  0.05020  Biso   1.000  C
  C224     1.0000 0.62060  0.78960  0.08260  Biso   1.000  C
  C225     1.0000 0.53830  0.80050  0.07750  Biso   1.000  C
  C226     1.0000 0.77110  0.81310  0.05570  Biso   1.000  C
  C227     1.0000 0.97450  0.87410  0.00890  Biso   1.000  C
  C228     1.0000 0.06110  0.86370  0.01420  Biso   1.000  C
  C229     1.0000 0.12520  0.91490  0.98700  Biso   1.000  C
  C230     1.0000 0.21160  0.90860  0.99300  Biso   1.000  C
  C231     1.0000 0.17070  0.80250  0.04560  Biso   1.000  C
  C232     1.0000 0.08280  0.80570  0.04420  Biso   1.000  C
  N17      1.0000 0.19630  0.15520  0.54460  Biso   1.000  N
  N18      1.0000 0.87720  0.13730  0.54200  Biso   1.000  N
  N19      1.0000 0.79700  0.15710  0.55340  Biso   1.000  N
  N20      1.0000 0.48520  0.15610  0.52880  Biso   1.000  N
  N21      1.0000 0.51820  0.34450  0.45860  Biso   1.000  N
  N22      1.0000 0.83200  0.34930  0.47280  Biso   1.000  N
  N23      1.0000 0.91130  0.33140  0.46310  Biso   1.000  N
  N24      1.0000 0.23380  0.35380  0.47840  Biso   1.000  N
  N25      1.0000 0.19630  0.65520  0.95540  Biso   1.000  N
  N26      1.0000 0.87720  0.63730  0.95800  Biso   1.000  N
  N27      1.0000 0.79700  0.65710  0.94660  Biso   1.000  N
  N28      1.0000 0.48520  0.65610  0.97120  Biso   1.000  N
  N29      1.0000 0.51820  0.84450  0.04140  Biso   1.000  N
  N30      1.0000 0.83200  0.84930  0.02720  Biso   1.000  N
  N31      1.0000 0.91130  0.83140  0.03690  Biso   1.000  N
  N32      1.0000 0.23380  0.85380  0.02160  Biso   1.000  N
  O17      1.0000 0.30980  0.07060  0.46420  Biso   1.000  O
  O18      1.0000 0.33070  0.20880  0.45490  Biso   1.000  O
  O19      1.0000 0.37420  0.88360  0.11300  Biso   1.000  O
  O20      1.0000 0.37480  0.00140  0.07490  Biso   1.000  O
  O21      1.0000 0.40720  0.43870  0.53640  Biso   1.000  O
  O22      1.0000 0.38740  0.29980  0.54690  Biso   1.000  O
  O23      1.0000 0.32710  0.51070  0.92520  Biso   1.000  O
  O24      1.0000 0.34540  0.63190  0.88610  Biso   1.000  O
  O25      1.0000 0.30980  0.57060  0.03580  Biso   1.000  O
  O26      1.0000 0.33070  0.70880  0.04510  Biso   1.000  O
  O27      1.0000 0.37420  0.38360  0.38700  Biso   1.000  O
  O28      1.0000 0.37480  0.50140  0.42510  Biso   1.000  O
  O29      1.0000 0.40720  0.93870  0.96360  Biso   1.000  O
  O30      1.0000 0.38740  0.79980  0.95310  Biso   1.000  O
  O31      1.0000 0.32710  0.01070  0.57480  Biso   1.000  O
  O32      1.0000 0.34540  0.13190  0.61390  Biso   1.000  O
