data_image0
_cell_length_a       11.928
_cell_length_b       18.253
_cell_length_c       18.66
_cell_angle_alpha    90
_cell_angle_beta     90
_cell_angle_gamma    90

_symmetry_space_group_name_H-M    P 1
_symmetry_int_tables_number       1

loop_
  _symmetry_equiv_pos_as_xyz
  'x, y, z'

loop_
  _atom_site_label
  _atom_site_occupancy
  _atom_site_fract_x
  _atom_site_fract_y
  _atom_site_fract_z
  _atom_site_thermal_displace_type
  _atom_site_B_iso_or_equiv
  _atom_site_type_symbol
  Cu1      1.0000 0.08729  0.28042  0.27143  Biso   1.000  Cu
  Cu2      1.0000 0.92887  0.20852  0.20240  Biso   1.000  Cu
  Cu3      1.0000 0.08729  0.71958  0.72857  Biso   1.000  Cu
  Cu4      1.0000 0.92887  0.79148  0.79760  Biso   1.000  Cu
  Cu5      1.0000 0.91271  0.21958  0.77143  Biso   1.000  Cu
  Cu6      1.0000 0.07113  0.29148  0.70240  Biso   1.000  Cu
  Cu7      1.0000 0.91271  0.78042  0.22857  Biso   1.000  Cu
  Cu8      1.0000 0.07113  0.70852  0.29760  Biso   1.000  Cu
  H1       1.0000 0.95320  0.49660  0.25180  Biso   1.000  H
  H2       1.0000 0.67320  0.38350  0.19580  Biso   1.000  H
  H3       1.0000 0.66010  0.60190  0.21170  Biso   1.000  H
  H4       1.0000 0.48580  0.56960  0.25270  Biso   1.000  H
  H5       1.0000 0.47950  0.58430  0.16790  Biso   1.000  H
  H6       1.0000 0.33140  0.49540  0.16060  Biso   1.000  H
  H7       1.0000 0.29690  0.56580  0.20690  Biso   1.000  H
  H8       1.0000 0.16990  0.51470  0.27470  Biso   1.000  H
  H9       1.0000 0.17840  0.44000  0.23000  Biso   1.000  H
  H10      1.0000 0.10320  0.42960  0.35190  Biso   1.000  H
  H11      1.0000 0.22870  0.44310  0.37910  Biso   1.000  H
  H12      1.0000 0.03060  0.25610  0.99050  Biso   1.000  H
  H13      1.0000 0.29920  0.34230  0.09400  Biso   1.000  H
  H14      1.0000 0.28940  0.34270  0.87610  Biso   1.000  H
  H15      1.0000 0.45210  0.43150  0.06430  Biso   1.000  H
  H16      1.0000 0.48270  0.34600  0.06730  Biso   1.000  H
  H17      1.0000 0.64250  0.41870  0.05650  Biso   1.000  H
  H18      1.0000 0.59560  0.45150  0.98330  Biso   1.000  H
  H19      1.0000 0.79700  0.32680  0.93430  Biso   1.000  H
  H20      1.0000 0.79670  0.33550  0.01810  Biso   1.000  H
  H21      1.0000 0.78590  0.22060  0.03580  Biso   1.000  H
  H22      1.0000 0.86190  0.22690  0.96380  Biso   1.000  H
  H23      1.0000 0.26940  0.34320  0.30960  Biso   1.000  H
  H24      1.0000 0.71710  0.21840  0.90270  Biso   1.000  H
  H25      1.0000 0.81950  0.14370  0.10230  Biso   1.000  H
  H26      1.0000 0.74130  0.16400  0.15240  Biso   1.000  H
  H27      1.0000 0.95320  0.50340  0.74820  Biso   1.000  H
  H28      1.0000 0.67320  0.61650  0.80420  Biso   1.000  H
  H29      1.0000 0.66010  0.39810  0.78830  Biso   1.000  H
  H30      1.0000 0.48580  0.43040  0.74730  Biso   1.000  H
  H31      1.0000 0.47950  0.41570  0.83210  Biso   1.000  H
  H32      1.0000 0.33140  0.50460  0.83940  Biso   1.000  H
  H33      1.0000 0.29690  0.43420  0.79310  Biso   1.000  H
  H34      1.0000 0.16990  0.48530  0.72530  Biso   1.000  H
  H35      1.0000 0.17840  0.56000  0.77000  Biso   1.000  H
  H36      1.0000 0.10320  0.57040  0.64810  Biso   1.000  H
  H37      1.0000 0.22870  0.55690  0.62090  Biso   1.000  H
  H38      1.0000 0.03060  0.74390  0.00950  Biso   1.000  H
  H39      1.0000 0.29920  0.65770  0.90600  Biso   1.000  H
  H40      1.0000 0.28940  0.65730  0.12390  Biso   1.000  H
  H41      1.0000 0.45210  0.56850  0.93570  Biso   1.000  H
  H42      1.0000 0.48270  0.65400  0.93270  Biso   1.000  H
  H43      1.0000 0.64250  0.58130  0.94350  Biso   1.000  H
  H44      1.0000 0.59560  0.54850  0.01670  Biso   1.000  H
  H45      1.0000 0.79700  0.67320  0.06570  Biso   1.000  H
  H46      1.0000 0.79670  0.66450  0.98190  Biso   1.000  H
  H47      1.0000 0.78590  0.77940  0.96420  Biso   1.000  H
  H48      1.0000 0.86190  0.77310  0.03620  Biso   1.000  H
  H49      1.0000 0.26940  0.65680  0.69040  Biso   1.000  H
  H50      1.0000 0.71710  0.78160  0.09730  Biso   1.000  H
  H51      1.0000 0.81950  0.85630  0.89770  Biso   1.000  H
  H52      1.0000 0.74130  0.83600  0.84760  Biso   1.000  H
  H53      1.0000 0.04680  0.00340  0.75180  Biso   1.000  H
  H54      1.0000 0.32680  0.11650  0.69580  Biso   1.000  H
  H55      1.0000 0.33990  0.89810  0.71170  Biso   1.000  H
  H56      1.0000 0.51420  0.93040  0.75270  Biso   1.000  H
  H57      1.0000 0.52050  0.91570  0.66790  Biso   1.000  H
  H58      1.0000 0.66860  0.00460  0.66060  Biso   1.000  H
  H59      1.0000 0.70310  0.93420  0.70690  Biso   1.000  H
  H60      1.0000 0.83010  0.98530  0.77470  Biso   1.000  H
  H61      1.0000 0.82160  0.06000  0.73000  Biso   1.000  H
  H62      1.0000 0.89680  0.07040  0.85190  Biso   1.000  H
  H63      1.0000 0.77130  0.05690  0.87910  Biso   1.000  H
  H64      1.0000 0.96940  0.24390  0.49050  Biso   1.000  H
  H65      1.0000 0.70080  0.15770  0.59400  Biso   1.000  H
  H66      1.0000 0.71060  0.15730  0.37610  Biso   1.000  H
  H67      1.0000 0.54790  0.06850  0.56430  Biso   1.000  H
  H68      1.0000 0.51730  0.15400  0.56730  Biso   1.000  H
  H69      1.0000 0.35750  0.08130  0.55650  Biso   1.000  H
  H70      1.0000 0.40440  0.04850  0.48330  Biso   1.000  H
  H71      1.0000 0.20300  0.17320  0.43430  Biso   1.000  H
  H72      1.0000 0.20330  0.16450  0.51810  Biso   1.000  H
  H73      1.0000 0.21410  0.27940  0.53580  Biso   1.000  H
  H74      1.0000 0.13810  0.27310  0.46380  Biso   1.000  H
  H75      1.0000 0.73060  0.15680  0.80960  Biso   1.000  H
  H76      1.0000 0.28290  0.28160  0.40270  Biso   1.000  H
  H77      1.0000 0.18050  0.35630  0.60230  Biso   1.000  H
  H78      1.0000 0.25870  0.33600  0.65240  Biso   1.000  H
  H79      1.0000 0.04680  0.99660  0.24820  Biso   1.000  H
  H80      1.0000 0.32680  0.88350  0.30420  Biso   1.000  H
  H81      1.0000 0.33990  0.10190  0.28830  Biso   1.000  H
  H82      1.0000 0.51420  0.06960  0.24730  Biso   1.000  H
  H83      1.0000 0.52050  0.08430  0.33210  Biso   1.000  H
  H84      1.0000 0.66860  0.99540  0.33940  Biso   1.000  H
  H85      1.0000 0.70310  0.06580  0.29310  Biso   1.000  H
  H86      1.0000 0.83010  0.01470  0.22530  Biso   1.000  H
  H87      1.0000 0.82160  0.94000  0.27000  Biso   1.000  H
  H88      1.0000 0.89680  0.92960  0.14810  Biso   1.000  H
  H89      1.0000 0.77130  0.94310  0.12090  Biso   1.000  H
  H90      1.0000 0.96940  0.75610  0.50950  Biso   1.000  H
  H91      1.0000 0.70080  0.84230  0.40600  Biso   1.000  H
  H92      1.0000 0.71060  0.84270  0.62390  Biso   1.000  H
  H93      1.0000 0.54790  0.93150  0.43570  Biso   1.000  H
  H94      1.0000 0.51730  0.84600  0.43270  Biso   1.000  H
  H95      1.0000 0.35750  0.91870  0.44350  Biso   1.000  H
  H96      1.0000 0.40440  0.95150  0.51670  Biso   1.000  H
  H97      1.0000 0.20300  0.82680  0.56570  Biso   1.000  H
  H98      1.0000 0.20330  0.83550  0.48190  Biso   1.000  H
  H99      1.0000 0.21410  0.72060  0.46420  Biso   1.000  H
  H100     1.0000 0.13810  0.72690  0.53620  Biso   1.000  H
  H101     1.0000 0.73060  0.84320  0.19040  Biso   1.000  H
  H102     1.0000 0.28290  0.71840  0.59730  Biso   1.000  H
  H103     1.0000 0.18050  0.64370  0.39770  Biso   1.000  H
  H104     1.0000 0.25870  0.66400  0.34760  Biso   1.000  H
  C1       1.0000 0.81700  0.55830  0.23410  Biso   1.000  C
  C2       1.0000 0.87640  0.49490  0.23860  Biso   1.000  C
  C3       1.0000 0.82600  0.42670  0.22400  Biso   1.000  C
  C4       1.0000 0.71020  0.42810  0.20690  Biso   1.000  C
  C5       1.0000 0.64920  0.49310  0.20580  Biso   1.000  C
  C6       1.0000 0.70060  0.55730  0.21620  Biso   1.000  C
  C7       1.0000 0.87530  0.62980  0.24360  Biso   1.000  C
  C8       1.0000 0.88830  0.35750  0.22430  Biso   1.000  C
  C9       1.0000 0.46690  0.54730  0.20590  Biso   1.000  C
  C10      1.0000 0.34690  0.52250  0.20540  Biso   1.000  C
  C11      1.0000 0.20780  0.46660  0.27220  Biso   1.000  C
  C12      1.0000 0.18320  0.42350  0.33920  Biso   1.000  C
  C13      1.0000 0.15160  0.29830  0.92090  Biso   1.000  C
  C14      1.0000 0.10130  0.27990  0.98830  Biso   1.000  C
  C15      1.0000 0.15890  0.29760  0.05000  Biso   1.000  C
  C16      1.0000 0.26170  0.33200  0.05020  Biso   1.000  C
  C17      1.0000 0.30920  0.35130  0.98530  Biso   1.000  C
  C18      1.0000 0.25430  0.33200  0.92060  Biso   1.000  C
  C19      1.0000 0.09150  0.28310  0.85560  Biso   1.000  C
  C20      1.0000 0.10660  0.27470  0.12070  Biso   1.000  C
  C21      1.0000 0.48260  0.39000  0.03630  Biso   1.000  C
  C22      1.0000 0.59800  0.40680  0.01300  Biso   1.000  C
  C23      1.0000 0.75700  0.31130  0.97800  Biso   1.000  C
  C24      1.0000 0.78800  0.23780  0.98600  Biso   1.000  C
  C25      1.0000 0.81700  0.44170  0.76590  Biso   1.000  C
  C26      1.0000 0.87640  0.50510  0.76140  Biso   1.000  C
  C27      1.0000 0.82600  0.57330  0.77600  Biso   1.000  C
  C28      1.0000 0.71020  0.57190  0.79310  Biso   1.000  C
  C29      1.0000 0.64920  0.50690  0.79420  Biso   1.000  C
  C30      1.0000 0.70060  0.44270  0.78380  Biso   1.000  C
  C31      1.0000 0.87530  0.37020  0.75640  Biso   1.000  C
  C32      1.0000 0.88830  0.64250  0.77570  Biso   1.000  C
  C33      1.0000 0.46690  0.45270  0.79410  Biso   1.000  C
  C34      1.0000 0.34690  0.47750  0.79460  Biso   1.000  C
  C35      1.0000 0.20780  0.53340  0.72780  Biso   1.000  C
  C36      1.0000 0.18320  0.57650  0.66080  Biso   1.000  C
  C37      1.0000 0.15160  0.70170  0.07910  Biso   1.000  C
  C38      1.0000 0.10130  0.72010  0.01170  Biso   1.000  C
  C39      1.0000 0.15890  0.70240  0.95000  Biso   1.000  C
  C40      1.0000 0.26170  0.66800  0.94980  Biso   1.000  C
  C41      1.0000 0.30920  0.64870  0.01470  Biso   1.000  C
  C42      1.0000 0.25430  0.66800  0.07940  Biso   1.000  C
  C43      1.0000 0.09150  0.71690  0.14440  Biso   1.000  C
  C44      1.0000 0.10660  0.72530  0.87930  Biso   1.000  C
  C45      1.0000 0.48260  0.61000  0.96370  Biso   1.000  C
  C46      1.0000 0.59800  0.59320  0.98700  Biso   1.000  C
  C47      1.0000 0.75700  0.68870  0.02200  Biso   1.000  C
  C48      1.0000 0.78800  0.76220  0.01400  Biso   1.000  C
  C49      1.0000 0.18300  0.94170  0.73410  Biso   1.000  C
  C50      1.0000 0.12360  0.00510  0.73860  Biso   1.000  C
  C51      1.0000 0.17400  0.07330  0.72400  Biso   1.000  C
  C52      1.0000 0.28980  0.07190  0.70690  Biso   1.000  C
  C53      1.0000 0.35080  0.00690  0.70580  Biso   1.000  C
  C54      1.0000 0.29940  0.94270  0.71620  Biso   1.000  C
  C55      1.0000 0.12470  0.87020  0.74360  Biso   1.000  C
  C56      1.0000 0.11170  0.14250  0.72430  Biso   1.000  C
  C57      1.0000 0.53310  0.95270  0.70590  Biso   1.000  C
  C58      1.0000 0.65310  0.97750  0.70540  Biso   1.000  C
  C59      1.0000 0.79220  0.03340  0.77220  Biso   1.000  C
  C60      1.0000 0.81680  0.07650  0.83920  Biso   1.000  C
  C61      1.0000 0.84840  0.20170  0.42090  Biso   1.000  C
  C62      1.0000 0.89870  0.22010  0.48830  Biso   1.000  C
  C63      1.0000 0.84110  0.20240  0.55000  Biso   1.000  C
  C64      1.0000 0.73830  0.16800  0.55020  Biso   1.000  C
  C65      1.0000 0.69080  0.14870  0.48530  Biso   1.000  C
  C66      1.0000 0.74570  0.16800  0.42060  Biso   1.000  C
  C67      1.0000 0.90850  0.21690  0.35560  Biso   1.000  C
  C68      1.0000 0.89340  0.22530  0.62070  Biso   1.000  C
  C69      1.0000 0.51740  0.11000  0.53630  Biso   1.000  C
  C70      1.0000 0.40200  0.09320  0.51300  Biso   1.000  C
  C71      1.0000 0.24300  0.18870  0.47800  Biso   1.000  C
  C72      1.0000 0.21200  0.26220  0.48600  Biso   1.000  C
  C73      1.0000 0.18300  0.05830  0.26590  Biso   1.000  C
  C74      1.0000 0.12360  0.99490  0.26140  Biso   1.000  C
  C75      1.0000 0.17400  0.92670  0.27600  Biso   1.000  C
  C76      1.0000 0.28980  0.92810  0.29310  Biso   1.000  C
  C77      1.0000 0.35080  0.99310  0.29420  Biso   1.000  C
  C78      1.0000 0.29940  0.05730  0.28380  Biso   1.000  C
  C79      1.0000 0.12470  0.12980  0.25640  Biso   1.000  C
  C80      1.0000 0.11170  0.85750  0.27570  Biso   1.000  C
  C81      1.0000 0.53310  0.04730  0.29410  Biso   1.000  C
  C82      1.0000 0.65310  0.02250  0.29460  Biso   1.000  C
  C83      1.0000 0.79220  0.96660  0.22780  Biso   1.000  C
  C84      1.0000 0.81680  0.92350  0.16080  Biso   1.000  C
  C85      1.0000 0.84840  0.79830  0.57910  Biso   1.000  C
  C86      1.0000 0.89870  0.77990  0.51170  Biso   1.000  C
  C87      1.0000 0.84110  0.79760  0.45000  Biso   1.000  C
  C88      1.0000 0.73830  0.83200  0.44980  Biso   1.000  C
  C89      1.0000 0.69080  0.85130  0.51470  Biso   1.000  C
  C90      1.0000 0.74570  0.83200  0.57940  Biso   1.000  C
  C91      1.0000 0.90850  0.78310  0.64440  Biso   1.000  C
  C92      1.0000 0.89340  0.77470  0.37930  Biso   1.000  C
  C93      1.0000 0.51740  0.89000  0.46370  Biso   1.000  C
  C94      1.0000 0.40200  0.90680  0.48700  Biso   1.000  C
  C95      1.0000 0.24300  0.81130  0.52200  Biso   1.000  C
  C96      1.0000 0.21200  0.73780  0.51400  Biso   1.000  C
  O1       1.0000 0.84680  0.30240  0.19740  Biso   1.000  O
  O2       1.0000 0.98590  0.36300  0.25590  Biso   1.000  O
  O3       1.0000 0.96710  0.62660  0.27960  Biso   1.000  O
  O4       1.0000 0.83090  0.68770  0.22290  Biso   1.000  O
  O5       1.0000 0.53480  0.48460  0.19350  Biso   1.000  O
  O6       1.0000 0.32420  0.47700  0.26460  Biso   1.000  O
  O7       1.0000 0.20710  0.34700  0.33040  Biso   1.000  O
  O8       1.0000 0.14050  0.30540  0.79690  Biso   1.000  O
  O9       1.0000 0.00210  0.24890  0.85500  Biso   1.000  O
  O10      1.0000 0.01700  0.23900  0.11840  Biso   1.000  O
  O11      1.0000 0.15360  0.29950  0.17760  Biso   1.000  O
  O12      1.0000 0.41700  0.37780  0.97750  Biso   1.000  O
  O13      1.0000 0.65620  0.35080  0.97400  Biso   1.000  O
  O14      1.0000 0.70220  0.21300  0.94650  Biso   1.000  O
  O15      1.0000 0.80450  0.14470  0.14630  Biso   1.000  O
  O16      1.0000 0.84680  0.69760  0.80260  Biso   1.000  O
  O17      1.0000 0.98590  0.63700  0.74410  Biso   1.000  O
  O18      1.0000 0.96710  0.37340  0.72040  Biso   1.000  O
  O19      1.0000 0.83090  0.31230  0.77710  Biso   1.000  O
  O20      1.0000 0.53480  0.51540  0.80650  Biso   1.000  O
  O21      1.0000 0.32420  0.52300  0.73540  Biso   1.000  O
  O22      1.0000 0.20710  0.65300  0.66960  Biso   1.000  O
  O23      1.0000 0.14050  0.69460  0.20310  Biso   1.000  O
  O24      1.0000 0.00210  0.75110  0.14500  Biso   1.000  O
  O25      1.0000 0.01700  0.76100  0.88160  Biso   1.000  O
  O26      1.0000 0.15360  0.70050  0.82240  Biso   1.000  O
  O27      1.0000 0.41700  0.62220  0.02250  Biso   1.000  O
  O28      1.0000 0.65620  0.64920  0.02600  Biso   1.000  O
  O29      1.0000 0.70220  0.78700  0.05350  Biso   1.000  O
  O30      1.0000 0.80450  0.85530  0.85370  Biso   1.000  O
  O31      1.0000 0.15320  0.19760  0.69740  Biso   1.000  O
  O32      1.0000 0.01410  0.13700  0.75590  Biso   1.000  O
  O33      1.0000 0.03290  0.87340  0.77960  Biso   1.000  O
  O34      1.0000 0.16910  0.81230  0.72290  Biso   1.000  O
  O35      1.0000 0.46520  0.01540  0.69350  Biso   1.000  O
  O36      1.0000 0.67580  0.02300  0.76460  Biso   1.000  O
  O37      1.0000 0.79290  0.15300  0.83040  Biso   1.000  O
  O38      1.0000 0.85950  0.19460  0.29690  Biso   1.000  O
  O39      1.0000 0.99790  0.25110  0.35500  Biso   1.000  O
  O40      1.0000 0.98300  0.26100  0.61840  Biso   1.000  O
  O41      1.0000 0.84640  0.20050  0.67760  Biso   1.000  O
  O42      1.0000 0.58300  0.12220  0.47750  Biso   1.000  O
  O43      1.0000 0.34380  0.14920  0.47400  Biso   1.000  O
  O44      1.0000 0.29780  0.28700  0.44650  Biso   1.000  O
  O45      1.0000 0.19550  0.35530  0.64630  Biso   1.000  O
  O46      1.0000 0.15320  0.80240  0.30260  Biso   1.000  O
  O47      1.0000 0.01410  0.86300  0.24410  Biso   1.000  O
  O48      1.0000 0.03290  0.12660  0.22040  Biso   1.000  O
  O49      1.0000 0.16910  0.18770  0.27710  Biso   1.000  O
  O50      1.0000 0.46520  0.98460  0.30650  Biso   1.000  O
  O51      1.0000 0.67580  0.97700  0.23540  Biso   1.000  O
  O52      1.0000 0.79290  0.84700  0.16960  Biso   1.000  O
  O53      1.0000 0.85950  0.80540  0.70310  Biso   1.000  O
  O54      1.0000 0.99790  0.74890  0.64500  Biso   1.000  O
  O55      1.0000 0.98300  0.73900  0.38160  Biso   1.000  O
  O56      1.0000 0.84640  0.79950  0.32240  Biso   1.000  O
  O57      1.0000 0.58300  0.87780  0.52250  Biso   1.000  O
  O58      1.0000 0.34380  0.85080  0.52600  Biso   1.000  O
  O59      1.0000 0.29780  0.71300  0.55350  Biso   1.000  O
  O60      1.0000 0.19550  0.64470  0.35370  Biso   1.000  O
