data_image0
_cell_length_a       7.29529
_cell_length_b       13.2981
_cell_length_c       30.7597
_cell_angle_alpha    88.2585
_cell_angle_beta     83.639
_cell_angle_gamma    74.0798

_symmetry_space_group_name_H-M    P 1
_symmetry_int_tables_number       1

loop_
  _symmetry_equiv_pos_as_xyz
  'x, y, z'

loop_
  _atom_site_label
  _atom_site_occupancy
  _atom_site_fract_x
  _atom_site_fract_y
  _atom_site_fract_z
  _atom_site_thermal_displace_type
  _atom_site_B_iso_or_equiv
  _atom_site_type_symbol
  Cd1      1.0000 0.15524  0.68952  0.25000  Biso   1.000  Cd
  Cd2      1.0000 0.84476  0.31048  0.75000  Biso   1.000  Cd
  H1       1.0000 0.90320  0.19880  0.14430  Biso   1.000  H
  H2       1.0000 0.21220  0.07580  0.14480  Biso   1.000  H
  H3       1.0000 0.65360  0.78720  0.03640  Biso   1.000  H
  H4       1.0000 0.61990  0.71360  0.96670  Biso   1.000  H
  H5       1.0000 0.31660  0.84260  0.14580  Biso   1.000  H
  H6       1.0000 0.52880  0.78780  0.19660  Biso   1.000  H
  H7       1.0000 0.90570  0.91120  0.12670  Biso   1.000  H
  H8       1.0000 0.69490  0.96520  0.07560  Biso   1.000  H
  H9       1.0000 0.38770  0.21900  0.11810  Biso   1.000  H
  H10      1.0000 0.21980  0.35280  0.16590  Biso   1.000  H
  H11      1.0000 0.62370  0.50420  0.13540  Biso   1.000  H
  H12      1.0000 0.79140  0.37060  0.08760  Biso   1.000  H
  H13      1.0000 0.89800  0.19880  0.35570  Biso   1.000  H
  H14      1.0000 0.71200  0.07580  0.35520  Biso   1.000  H
  H15      1.0000 0.55920  0.78720  0.46360  Biso   1.000  H
  H16      1.0000 0.66650  0.71360  0.53330  Biso   1.000  H
  H17      1.0000 0.84080  0.84260  0.35420  Biso   1.000  H
  H18      1.0000 0.68340  0.78780  0.30340  Biso   1.000  H
  H19      1.0000 0.18310  0.91120  0.37330  Biso   1.000  H
  H20      1.0000 0.33990  0.96520  0.42440  Biso   1.000  H
  H21      1.0000 0.39330  0.21900  0.38190  Biso   1.000  H
  H22      1.0000 0.42740  0.35280  0.33410  Biso   1.000  H
  H23      1.0000 0.87210  0.50420  0.36460  Biso   1.000  H
  H24      1.0000 0.83800  0.37060  0.41240  Biso   1.000  H
  H25      1.0000 0.09680  0.80120  0.85570  Biso   1.000  H
  H26      1.0000 0.78780  0.92420  0.85520  Biso   1.000  H
  H27      1.0000 0.34640  0.21280  0.96360  Biso   1.000  H
  H28      1.0000 0.38010  0.28640  0.03330  Biso   1.000  H
  H29      1.0000 0.68340  0.15740  0.85420  Biso   1.000  H
  H30      1.0000 0.47120  0.21220  0.80340  Biso   1.000  H
  H31      1.0000 0.09430  0.08880  0.87330  Biso   1.000  H
  H32      1.0000 0.30510  0.03480  0.92440  Biso   1.000  H
  H33      1.0000 0.61230  0.78100  0.88190  Biso   1.000  H
  H34      1.0000 0.78020  0.64720  0.83410  Biso   1.000  H
  H35      1.0000 0.37630  0.49580  0.86460  Biso   1.000  H
  H36      1.0000 0.20860  0.62940  0.91240  Biso   1.000  H
  H37      1.0000 0.10200  0.80120  0.64430  Biso   1.000  H
  H38      1.0000 0.28800  0.92420  0.64480  Biso   1.000  H
  H39      1.0000 0.44080  0.21280  0.53640  Biso   1.000  H
  H40      1.0000 0.33350  0.28640  0.46670  Biso   1.000  H
  H41      1.0000 0.15920  0.15740  0.64580  Biso   1.000  H
  H42      1.0000 0.31660  0.21220  0.69660  Biso   1.000  H
  H43      1.0000 0.81690  0.08880  0.62670  Biso   1.000  H
  H44      1.0000 0.66010  0.03480  0.57560  Biso   1.000  H
  H45      1.0000 0.60670  0.78100  0.61810  Biso   1.000  H
  H46      1.0000 0.57260  0.64720  0.66590  Biso   1.000  H
  H47      1.0000 0.12790  0.49580  0.63540  Biso   1.000  H
  H48      1.0000 0.16200  0.62940  0.58760  Biso   1.000  H
  Pd1      1.0000 0.00000  0.00000  0.00000  Biso   1.000  Pd
  Pd2      1.0000 0.00000  0.00000  0.50000  Biso   1.000  Pd
  C1       1.0000 0.89440  0.13840  0.08160  Biso   1.000  C
  C2       1.0000 0.96530  0.15120  0.12230  Biso   1.000  C
  C3       1.0000 0.13370  0.08340  0.12240  Biso   1.000  C
  C4       1.0000 0.17930  0.02280  0.08320  Biso   1.000  C
  C5       1.0000 0.34360  0.94500  0.07130  Biso   1.000  C
  C6       1.0000 0.38440  0.88940  0.03200  Biso   1.000  C
  C7       1.0000 0.54900  0.80940  0.02030  Biso   1.000  C
  C8       1.0000 0.53200  0.76900  0.98180  Biso   1.000  C
  C9       1.0000 0.35470  0.82740  0.96910  Biso   1.000  C
  C10      1.0000 0.72070  0.19340  0.06950  Biso   1.000  C
  C11      1.0000 0.48230  0.91060  0.10500  Biso   1.000  C
  C12      1.0000 0.43550  0.85640  0.14170  Biso   1.000  C
  C13      1.0000 0.56320  0.82320  0.17190  Biso   1.000  C
  C14      1.0000 0.74230  0.84080  0.16640  Biso   1.000  C
  C15      1.0000 0.78770  0.89620  0.13050  Biso   1.000  C
  C16      1.0000 0.66050  0.92920  0.10020  Biso   1.000  C
  C17      1.0000 0.88720  0.79500  0.19870  Biso   1.000  C
  C18      1.0000 0.60620  0.28160  0.09810  Biso   1.000  C
  C19      1.0000 0.43500  0.27620  0.12160  Biso   1.000  C
  C20      1.0000 0.33440  0.35640  0.15020  Biso   1.000  C
  C21      1.0000 0.40510  0.44180  0.15540  Biso   1.000  C
  C22      1.0000 0.57650  0.44700  0.13190  Biso   1.000  C
  C23      1.0000 0.67690  0.36700  0.10330  Biso   1.000  C
  C24      1.0000 0.30830  0.52740  0.18880  Biso   1.000  C
  C25      1.0000 0.96720  0.13840  0.41840  Biso   1.000  C
  C26      1.0000 0.88350  0.15120  0.37770  Biso   1.000  C
  C27      1.0000 0.78290  0.08340  0.37760  Biso   1.000  C
  C28      1.0000 0.79790  0.02280  0.41680  Biso   1.000  C
  C29      1.0000 0.71140  0.94500  0.42870  Biso   1.000  C
  C30      1.0000 0.72620  0.88940  0.46800  Biso   1.000  C
  C31      1.0000 0.64160  0.80940  0.47970  Biso   1.000  C
  C32      1.0000 0.69900  0.76900  0.51820  Biso   1.000  C
  C33      1.0000 0.81790  0.82740  0.53090  Biso   1.000  C
  C34      1.0000 0.08590  0.19340  0.43050  Biso   1.000  C
  C35      1.0000 0.60710  0.91060  0.39500  Biso   1.000  C
  C36      1.0000 0.70810  0.85640  0.35830  Biso   1.000  C
  C37      1.0000 0.61360  0.82320  0.32810  Biso   1.000  C
  C38      1.0000 0.41690  0.84080  0.33360  Biso   1.000  C
  C39      1.0000 0.31610  0.89620  0.36950  Biso   1.000  C
  C40      1.0000 0.41030  0.92920  0.39980  Biso   1.000  C
  C41      1.0000 0.31780  0.79500  0.30130  Biso   1.000  C
  C42      1.0000 0.11220  0.28160  0.40190  Biso   1.000  C
  C43      1.0000 0.28880  0.27620  0.37840  Biso   1.000  C
  C44      1.0000 0.30920  0.35640  0.34980  Biso   1.000  C
  C45      1.0000 0.15310  0.44180  0.34460  Biso   1.000  C
  C46      1.0000 0.97650  0.44700  0.36810  Biso   1.000  C
  C47      1.0000 0.95610  0.36700  0.39670  Biso   1.000  C
  C48      1.0000 0.16430  0.52740  0.31120  Biso   1.000  C
  C49      1.0000 0.10560  0.86160  0.91840  Biso   1.000  C
  C50      1.0000 0.03470  0.84880  0.87770  Biso   1.000  C
  C51      1.0000 0.86630  0.91660  0.87760  Biso   1.000  C
  C52      1.0000 0.82070  0.97720  0.91680  Biso   1.000  C
  C53      1.0000 0.65640  0.05500  0.92870  Biso   1.000  C
  C54      1.0000 0.61560  0.11060  0.96800  Biso   1.000  C
  C55      1.0000 0.45100  0.19060  0.97970  Biso   1.000  C
  C56      1.0000 0.46800  0.23100  0.01820  Biso   1.000  C
  C57      1.0000 0.64530  0.17260  0.03090  Biso   1.000  C
  C58      1.0000 0.27930  0.80660  0.93050  Biso   1.000  C
  C59      1.0000 0.51770  0.08940  0.89500  Biso   1.000  C
  C60      1.0000 0.56450  0.14360  0.85830  Biso   1.000  C
  C61      1.0000 0.43680  0.17680  0.82810  Biso   1.000  C
  C62      1.0000 0.25770  0.15920  0.83360  Biso   1.000  C
  C63      1.0000 0.21230  0.10380  0.86950  Biso   1.000  C
  C64      1.0000 0.33950  0.07080  0.89980  Biso   1.000  C
  C65      1.0000 0.11280  0.20500  0.80130  Biso   1.000  C
  C66      1.0000 0.39380  0.71840  0.90190  Biso   1.000  C
  C67      1.0000 0.56500  0.72380  0.87840  Biso   1.000  C
  C68      1.0000 0.66560  0.64360  0.84980  Biso   1.000  C
  C69      1.0000 0.59490  0.55820  0.84460  Biso   1.000  C
  C70      1.0000 0.42350  0.55300  0.86810  Biso   1.000  C
  C71      1.0000 0.32310  0.63300  0.89670  Biso   1.000  C
  C72      1.0000 0.69170  0.47260  0.81120  Biso   1.000  C
  C73      1.0000 0.03280  0.86160  0.58160  Biso   1.000  C
  C74      1.0000 0.11650  0.84880  0.62230  Biso   1.000  C
  C75      1.0000 0.21710  0.91660  0.62240  Biso   1.000  C
  C76      1.0000 0.20210  0.97720  0.58320  Biso   1.000  C
  C77      1.0000 0.28860  0.05500  0.57130  Biso   1.000  C
  C78      1.0000 0.27380  0.11060  0.53200  Biso   1.000  C
  C79      1.0000 0.35840  0.19060  0.52030  Biso   1.000  C
  C80      1.0000 0.30100  0.23100  0.48180  Biso   1.000  C
  C81      1.0000 0.18210  0.17260  0.46910  Biso   1.000  C
  C82      1.0000 0.91410  0.80660  0.56950  Biso   1.000  C
  C83      1.0000 0.39290  0.08940  0.60500  Biso   1.000  C
  C84      1.0000 0.29190  0.14360  0.64170  Biso   1.000  C
  C85      1.0000 0.38640  0.17680  0.67190  Biso   1.000  C
  C86      1.0000 0.58310  0.15920  0.66640  Biso   1.000  C
  C87      1.0000 0.68390  0.10380  0.63050  Biso   1.000  C
  C88      1.0000 0.58970  0.07080  0.60020  Biso   1.000  C
  C89      1.0000 0.68220  0.20500  0.69870  Biso   1.000  C
  C90      1.0000 0.88780  0.71840  0.59810  Biso   1.000  C
  C91      1.0000 0.71120  0.72380  0.62160  Biso   1.000  C
  C92      1.0000 0.69080  0.64360  0.65020  Biso   1.000  C
  C93      1.0000 0.84690  0.55820  0.65540  Biso   1.000  C
  C94      1.0000 0.02350  0.55300  0.63190  Biso   1.000  C
  C95      1.0000 0.04390  0.63300  0.60330  Biso   1.000  C
  C96      1.0000 0.83570  0.47260  0.68880  Biso   1.000  C
  N1       1.0000 0.02580  0.05900  0.05850  Biso   1.000  N
  N2       1.0000 0.26310  0.90040  0.99970  Biso   1.000  N
  N3       1.0000 0.91520  0.05900  0.44150  Biso   1.000  N
  N4       1.0000 0.83650  0.90040  0.50030  Biso   1.000  N
  N5       1.0000 0.97420  0.94100  0.94150  Biso   1.000  N
  N6       1.0000 0.73690  0.09960  0.00030  Biso   1.000  N
  N7       1.0000 0.08480  0.94100  0.55850  Biso   1.000  N
  N8       1.0000 0.16350  0.09960  0.49970  Biso   1.000  N
  O1       1.0000 0.84630  0.73720  0.22808  Biso   1.000  O
  O2       1.0000 0.04340  0.81620  0.19430  Biso   1.000  O
  O3       1.0000 0.14900  0.52800  0.20220  Biso   1.000  O
  O4       1.0000 0.39970  0.59460  0.19610  Biso   1.000  O
  O5       1.0000 0.41650  0.73720  0.27192  Biso   1.000  O
  O6       1.0000 0.14040  0.81620  0.30570  Biso   1.000  O
  O7       1.0000 0.32300  0.52800  0.29780  Biso   1.000  O
  O8       1.0000 0.00570  0.59460  0.30390  Biso   1.000  O
  O9       1.0000 0.15370  0.26280  0.77192  Biso   1.000  O
  O10      1.0000 0.95660  0.18380  0.80570  Biso   1.000  O
  O11      1.0000 0.85100  0.47200  0.79780  Biso   1.000  O
  O12      1.0000 0.60030  0.40540  0.80390  Biso   1.000  O
  O13      1.0000 0.58350  0.26280  0.72808  Biso   1.000  O
  O14      1.0000 0.85960  0.18380  0.69430  Biso   1.000  O
  O15      1.0000 0.67700  0.47200  0.70220  Biso   1.000  O
  O16      1.0000 0.99430  0.40540  0.69610  Biso   1.000  O
