data_image0
_cell_length_a       7.27511
_cell_length_b       13.3023
_cell_length_c       30.7749
_cell_angle_alpha    88.2321
_cell_angle_beta     83.5221
_cell_angle_gamma    74.1302

_symmetry_space_group_name_H-M    P 1
_symmetry_int_tables_number       1

loop_
  _symmetry_equiv_pos_as_xyz
  'x, y, z'

loop_
  _atom_site_label
  _atom_site_occupancy
  _atom_site_fract_x
  _atom_site_fract_y
  _atom_site_fract_z
  _atom_site_thermal_displace_type
  _atom_site_B_iso_or_equiv
  _atom_site_type_symbol
  Cd1      1.0000 0.15573  0.68854  0.25000  Biso   1.000  Cd
  Cd2      1.0000 0.84427  0.31146  0.75000  Biso   1.000  Cd
  H1       1.0000 0.89750  0.19760  0.14430  Biso   1.000  H
  H2       1.0000 0.20380  0.07460  0.14560  Biso   1.000  H
  H3       1.0000 0.65130  0.78240  0.03820  Biso   1.000  H
  H4       1.0000 0.62280  0.71500  0.96430  Biso   1.000  H
  H5       1.0000 0.31730  0.83560  0.14440  Biso   1.000  H
  H6       1.0000 0.53120  0.78000  0.19580  Biso   1.000  H
  H7       1.0000 0.90050  0.91620  0.12850  Biso   1.000  H
  H8       1.0000 0.69450  0.96880  0.07600  Biso   1.000  H
  H9       1.0000 0.38850  0.21400  0.11960  Biso   1.000  H
  H10      1.0000 0.21090  0.34760  0.16640  Biso   1.000  H
  H11      1.0000 0.60140  0.50820  0.13490  Biso   1.000  H
  H12      1.0000 0.77890  0.37480  0.08810  Biso   1.000  H
  H13      1.0000 0.90490  0.19760  0.35570  Biso   1.000  H
  H14      1.0000 0.72160  0.07460  0.35440  Biso   1.000  H
  H15      1.0000 0.56630  0.78240  0.46180  Biso   1.000  H
  H16      1.0000 0.66220  0.71500  0.53570  Biso   1.000  H
  H17      1.0000 0.84710  0.83560  0.35560  Biso   1.000  H
  H18      1.0000 0.68880  0.78000  0.30420  Biso   1.000  H
  H19      1.0000 0.18330  0.91620  0.37150  Biso   1.000  H
  H20      1.0000 0.33670  0.96880  0.42400  Biso   1.000  H
  H21      1.0000 0.39750  0.21400  0.38040  Biso   1.000  H
  H22      1.0000 0.44150  0.34760  0.33360  Biso   1.000  H
  H23      1.0000 0.89040  0.50820  0.36510  Biso   1.000  H
  H24      1.0000 0.84630  0.37480  0.41190  Biso   1.000  H
  H25      1.0000 0.10250  0.80240  0.85570  Biso   1.000  H
  H26      1.0000 0.79620  0.92540  0.85440  Biso   1.000  H
  H27      1.0000 0.34870  0.21760  0.96180  Biso   1.000  H
  H28      1.0000 0.37720  0.28500  0.03570  Biso   1.000  H
  H29      1.0000 0.68270  0.16440  0.85560  Biso   1.000  H
  H30      1.0000 0.46880  0.22000  0.80420  Biso   1.000  H
  H31      1.0000 0.09950  0.08380  0.87150  Biso   1.000  H
  H32      1.0000 0.30550  0.03120  0.92400  Biso   1.000  H
  H33      1.0000 0.61150  0.78600  0.88040  Biso   1.000  H
  H34      1.0000 0.78910  0.65240  0.83360  Biso   1.000  H
  H35      1.0000 0.39860  0.49180  0.86510  Biso   1.000  H
  H36      1.0000 0.22110  0.62520  0.91190  Biso   1.000  H
  H37      1.0000 0.09510  0.80240  0.64430  Biso   1.000  H
  H38      1.0000 0.27840  0.92540  0.64560  Biso   1.000  H
  H39      1.0000 0.43370  0.21760  0.53820  Biso   1.000  H
  H40      1.0000 0.33780  0.28500  0.46430  Biso   1.000  H
  H41      1.0000 0.15290  0.16440  0.64440  Biso   1.000  H
  H42      1.0000 0.31120  0.22000  0.69580  Biso   1.000  H
  H43      1.0000 0.81670  0.08380  0.62850  Biso   1.000  H
  H44      1.0000 0.66330  0.03120  0.57600  Biso   1.000  H
  H45      1.0000 0.60250  0.78600  0.61960  Biso   1.000  H
  H46      1.0000 0.55850  0.65240  0.66640  Biso   1.000  H
  H47      1.0000 0.10960  0.49180  0.63490  Biso   1.000  H
  H48      1.0000 0.15370  0.62520  0.58810  Biso   1.000  H
  Pd1      1.0000 0.00000  0.00000  0.00000  Biso   1.000  Pd
  Pd2      1.0000 0.00000  0.00000  0.50000  Biso   1.000  Pd
  C1       1.0000 0.89440  0.13500  0.08160  Biso   1.000  C
  C2       1.0000 0.96120  0.14960  0.12250  Biso   1.000  C
  C3       1.0000 0.12700  0.08200  0.12290  Biso   1.000  C
  C4       1.0000 0.17890  0.01880  0.08330  Biso   1.000  C
  C5       1.0000 0.34330  0.94100  0.07140  Biso   1.000  C
  C6       1.0000 0.38270  0.88900  0.03320  Biso   1.000  C
  C7       1.0000 0.54860  0.80680  0.02160  Biso   1.000  C
  C8       1.0000 0.53220  0.76760  0.98040  Biso   1.000  C
  C9       1.0000 0.35280  0.82420  0.96880  Biso   1.000  C
  C10      1.0000 0.71970  0.19360  0.06880  Biso   1.000  C
  C11      1.0000 0.48190  0.91060  0.10540  Biso   1.000  C
  C12      1.0000 0.43470  0.85180  0.14120  Biso   1.000  C
  C13      1.0000 0.56340  0.81800  0.17160  Biso   1.000  C
  C14      1.0000 0.74170  0.84000  0.16660  Biso   1.000  C
  C15      1.0000 0.78450  0.89860  0.13130  Biso   1.000  C
  C16      1.0000 0.66010  0.93200  0.10030  Biso   1.000  C
  C17      1.0000 0.88380  0.79340  0.19870  Biso   1.000  C
  C18      1.0000 0.60140  0.28120  0.09920  Biso   1.000  C
  C19      1.0000 0.43110  0.27300  0.12270  Biso   1.000  C
  C20      1.0000 0.32450  0.35300  0.15070  Biso   1.000  C
  C21      1.0000 0.38840  0.44120  0.15530  Biso   1.000  C
  C22      1.0000 0.55830  0.44940  0.13180  Biso   1.000  C
  C23      1.0000 0.66540  0.36920  0.10380  Biso   1.000  C
  C24      1.0000 0.28560  0.52680  0.18910  Biso   1.000  C
  C25      1.0000 0.97060  0.13500  0.41840  Biso   1.000  C
  C26      1.0000 0.88920  0.14960  0.37750  Biso   1.000  C
  C27      1.0000 0.79100  0.08200  0.37710  Biso   1.000  C
  C28      1.0000 0.80230  0.01880  0.41670  Biso   1.000  C
  C29      1.0000 0.71570  0.94100  0.42860  Biso   1.000  C
  C30      1.0000 0.72830  0.88900  0.46680  Biso   1.000  C
  C31      1.0000 0.64460  0.80680  0.47840  Biso   1.000  C
  C32      1.0000 0.70020  0.76760  0.51960  Biso   1.000  C
  C33      1.0000 0.82300  0.82420  0.53120  Biso   1.000  C
  C34      1.0000 0.08670  0.19360  0.43120  Biso   1.000  C
  C35      1.0000 0.60750  0.91060  0.39460  Biso   1.000  C
  C36      1.0000 0.71350  0.85180  0.35880  Biso   1.000  C
  C37      1.0000 0.61860  0.81800  0.32840  Biso   1.000  C
  C38      1.0000 0.41830  0.84000  0.33340  Biso   1.000  C
  C39      1.0000 0.31690  0.89860  0.36870  Biso   1.000  C
  C40      1.0000 0.40790  0.93200  0.39970  Biso   1.000  C
  C41      1.0000 0.32280  0.79340  0.30130  Biso   1.000  C
  C42      1.0000 0.11740  0.28120  0.40080  Biso   1.000  C
  C43      1.0000 0.29590  0.27300  0.37730  Biso   1.000  C
  C44      1.0000 0.32250  0.35300  0.34930  Biso   1.000  C
  C45      1.0000 0.17040  0.44120  0.34470  Biso   1.000  C
  C46      1.0000 0.99230  0.44940  0.36820  Biso   1.000  C
  C47      1.0000 0.96540  0.36920  0.39620  Biso   1.000  C
  C48      1.0000 0.18760  0.52680  0.31090  Biso   1.000  C
  C49      1.0000 0.10560  0.86500  0.91840  Biso   1.000  C
  C50      1.0000 0.03880  0.85040  0.87750  Biso   1.000  C
  C51      1.0000 0.87300  0.91800  0.87710  Biso   1.000  C
  C52      1.0000 0.82110  0.98120  0.91670  Biso   1.000  C
  C53      1.0000 0.65670  0.05900  0.92860  Biso   1.000  C
  C54      1.0000 0.61730  0.11100  0.96680  Biso   1.000  C
  C55      1.0000 0.45140  0.19320  0.97840  Biso   1.000  C
  C56      1.0000 0.46780  0.23240  0.01960  Biso   1.000  C
  C57      1.0000 0.64720  0.17580  0.03120  Biso   1.000  C
  C58      1.0000 0.28030  0.80640  0.93120  Biso   1.000  C
  C59      1.0000 0.51810  0.08940  0.89460  Biso   1.000  C
  C60      1.0000 0.56530  0.14820  0.85880  Biso   1.000  C
  C61      1.0000 0.43660  0.18200  0.82840  Biso   1.000  C
  C62      1.0000 0.25830  0.16000  0.83340  Biso   1.000  C
  C63      1.0000 0.21550  0.10140  0.86870  Biso   1.000  C
  C64      1.0000 0.33990  0.06800  0.89970  Biso   1.000  C
  C65      1.0000 0.11620  0.20660  0.80130  Biso   1.000  C
  C66      1.0000 0.39860  0.71880  0.90080  Biso   1.000  C
  C67      1.0000 0.56890  0.72700  0.87730  Biso   1.000  C
  C68      1.0000 0.67550  0.64700  0.84930  Biso   1.000  C
  C69      1.0000 0.61160  0.55880  0.84470  Biso   1.000  C
  C70      1.0000 0.44170  0.55060  0.86820  Biso   1.000  C
  C71      1.0000 0.33460  0.63080  0.89620  Biso   1.000  C
  C72      1.0000 0.71440  0.47320  0.81090  Biso   1.000  C
  C73      1.0000 0.02940  0.86500  0.58160  Biso   1.000  C
  C74      1.0000 0.11080  0.85040  0.62250  Biso   1.000  C
  C75      1.0000 0.20900  0.91800  0.62290  Biso   1.000  C
  C76      1.0000 0.19770  0.98120  0.58330  Biso   1.000  C
  C77      1.0000 0.28430  0.05900  0.57140  Biso   1.000  C
  C78      1.0000 0.27170  0.11100  0.53320  Biso   1.000  C
  C79      1.0000 0.35540  0.19320  0.52160  Biso   1.000  C
  C80      1.0000 0.29980  0.23240  0.48040  Biso   1.000  C
  C81      1.0000 0.17700  0.17580  0.46880  Biso   1.000  C
  C82      1.0000 0.91330  0.80640  0.56880  Biso   1.000  C
  C83      1.0000 0.39250  0.08940  0.60540  Biso   1.000  C
  C84      1.0000 0.28650  0.14820  0.64120  Biso   1.000  C
  C85      1.0000 0.38140  0.18200  0.67160  Biso   1.000  C
  C86      1.0000 0.58170  0.16000  0.66660  Biso   1.000  C
  C87      1.0000 0.68310  0.10140  0.63130  Biso   1.000  C
  C88      1.0000 0.59210  0.06800  0.60030  Biso   1.000  C
  C89      1.0000 0.67720  0.20660  0.69870  Biso   1.000  C
  C90      1.0000 0.88260  0.71880  0.59920  Biso   1.000  C
  C91      1.0000 0.70410  0.72700  0.62270  Biso   1.000  C
  C92      1.0000 0.67750  0.64700  0.65070  Biso   1.000  C
  C93      1.0000 0.82960  0.55880  0.65530  Biso   1.000  C
  C94      1.0000 0.00770  0.55060  0.63180  Biso   1.000  C
  C95      1.0000 0.03460  0.63080  0.60380  Biso   1.000  C
  C96      1.0000 0.81240  0.47320  0.68910  Biso   1.000  C
  N1       1.0000 0.02480  0.05680  0.05880  Biso   1.000  N
  N2       1.0000 0.25910  0.90080  0.99990  Biso   1.000  N
  N3       1.0000 0.91840  0.05680  0.44120  Biso   1.000  N
  N4       1.0000 0.84010  0.90080  0.50010  Biso   1.000  N
  N5       1.0000 0.97520  0.94320  0.94120  Biso   1.000  N
  N6       1.0000 0.74090  0.09920  0.00010  Biso   1.000  N
  N7       1.0000 0.08160  0.94320  0.55880  Biso   1.000  N
  N8       1.0000 0.15990  0.09920  0.49990  Biso   1.000  N
  O1       1.0000 0.42030  0.73380  0.27220  Biso   1.000  O
  O2       1.0000 0.04200  0.81580  0.19410  Biso   1.000  O
  O3       1.0000 0.12990  0.51820  0.20270  Biso   1.000  O
  O4       1.0000 0.38800  0.59000  0.19340  Biso   1.000  O
  O5       1.0000 0.84590  0.73380  0.22780  Biso   1.000  O
  O6       1.0000 0.14220  0.81580  0.30590  Biso   1.000  O
  O7       1.0000 0.35190  0.51820  0.29730  Biso   1.000  O
  O8       1.0000 0.02200  0.59000  0.30660  Biso   1.000  O
  O9       1.0000 0.57970  0.26620  0.72780  Biso   1.000  O
  O10      1.0000 0.95800  0.18420  0.80590  Biso   1.000  O
  O11      1.0000 0.87010  0.48180  0.79730  Biso   1.000  O
  O12      1.0000 0.61200  0.41000  0.80660  Biso   1.000  O
  O13      1.0000 0.15410  0.26620  0.77220  Biso   1.000  O
  O14      1.0000 0.85780  0.18420  0.69410  Biso   1.000  O
  O15      1.0000 0.64810  0.48180  0.70270  Biso   1.000  O
  O16      1.0000 0.97800  0.41000  0.69340  Biso   1.000  O
