data_OQIQUB_charged
_audit_creation_date              2014-07-02
_audit_creation_method            'Materials Studio'
_symmetry_space_group_name_H-M    'P1'
_symmetry_Int_Tables_number       1
_symmetry_cell_setting            triclinic
loop_
_symmetry_equiv_pos_as_xyz
  x,y,z
_cell_length_a                    19.3033
_cell_length_b                    19.3033
_cell_length_c                    19.3033
_cell_angle_alpha                 63.1275
_cell_angle_beta                  74.0978
_cell_angle_gamma                 105.9020
loop_
_atom_site_label
_atom_site_type_symbol
_atom_site_fract_x
_atom_site_fract_y
_atom_site_fract_z
_atom_site_U_iso_or_equiv
_atom_site_adp_type
_atom_site_occupancy
Cu1    Cu    0.00000   0.16205   0.83795   0.01267  Uiso   1.00
Cu2    Cu    0.00000   0.83795   0.16205   0.01267  Uiso   1.00
Cu3    Cu    0.77905   0.52056   0.74151   0.01267  Uiso   1.00
Cu4    Cu    0.22095   0.47944   0.25849   0.01267  Uiso   1.00
Cu5    Cu    0.73793   0.25849   0.52056   0.01267  Uiso   1.00
Cu6    Cu    0.26207   0.74151   0.47944   0.01267  Uiso   1.00
H1     H     0.02200   0.90270   0.51510   0.01267  Uiso   1.00
H2     H     0.96410   0.91160   0.47170   0.01267  Uiso   1.00
H3     H     0.84220   0.72010   0.68210   0.01267  Uiso   1.00
H4     H     0.90800   0.97120   0.88400   0.01267  Uiso   1.00
H5     H     0.85810   0.88870   0.48780   0.01267  Uiso   1.00
H6     H     0.76840   0.85400   0.55380   0.01267  Uiso   1.00
H7     H     0.82420   0.95490   0.48330   0.01267  Uiso   1.00
H8     H     0.95230   0.87620   0.78850   0.01267  Uiso   1.00
H9     H     0.86670   0.86460   0.83930   0.01267  Uiso   1.00
H10    H     0.67010   0.05190   0.63360   0.01267  Uiso   1.00
H11    H     0.05180   0.90000   0.60620   0.01267  Uiso   1.00
H12    H     0.02790   0.89520   0.69330   0.01267  Uiso   1.00
H13    H     0.98900   0.81060   0.69620   0.01267  Uiso   1.00
H14    H     0.07300   0.17980   0.65500   0.01267  Uiso   1.00
H15    H     0.92780   0.63610   0.55050   0.01267  Uiso   1.00
H16    H     0.78160   0.99470   0.73710   0.01267  Uiso   1.00
H17    H     0.72780   0.89340   0.80680   0.01267  Uiso   1.00
H18    H     0.80790   0.94290   0.80560   0.01267  Uiso   1.00
H19    H     0.88550   0.22470   0.45240   0.01267  Uiso   1.00
H20    H     0.71780   0.91640   0.60880   0.01267  Uiso   1.00
H21    H     0.69590   0.91160   0.69590   0.01267  Uiso   1.00
H22    H     0.97800   0.46290   0.11930   0.01267  Uiso   1.00
H23    H     0.03590   0.56420   0.05250   0.01267  Uiso   1.00
H24    H     0.15780   0.47570   0.12210   0.01267  Uiso   1.00
H25    H     0.09200   0.20800   0.93680   0.01267  Uiso   1.00
H26    H     0.14190   0.65410   0.96940   0.01267  Uiso   1.00
H27    H     0.23160   0.67780   0.91440   0.01267  Uiso   1.00
H28    H     0.17580   0.69250   0.86930   0.01267  Uiso   1.00
H29    H     0.04770   0.25920   0.07610   0.01267  Uiso   1.00
H30    H     0.13330   0.29400   0.00210   0.01267  Uiso   1.00
H31    H     0.32990   0.69630   0.61820   0.01267  Uiso   1.00
H32    H     0.94820   0.34200   0.15180   0.01267  Uiso   1.00
H33    H     0.97210   0.27880   0.13270   0.01267  Uiso   1.00
H34    H     0.01100   0.31480   0.17840   0.01267  Uiso   1.00
H35    H     0.92700   0.27200   0.89320   0.01267  Uiso   1.00
H36    H     0.07220   0.52170   0.29170   0.01267  Uiso   1.00
H37    H     0.21840   0.48130   0.78690   0.01267  Uiso   1.00
H38    H     0.27220   0.46540   0.83440   0.01267  Uiso   1.00
H39    H     0.19210   0.38650   0.86500   0.01267  Uiso   1.00
H40    H     0.11450   0.66210   0.66080   0.01267  Uiso   1.00
H41    H     0.28220   0.67340   0.80140   0.01267  Uiso   1.00
H42    H     0.30410   0.60820   0.78430   0.01267  Uiso   1.00
H43    H     0.58220   0.48490   0.53710   0.01267  Uiso   1.00
H44    H     0.61670   0.52830   0.43580   0.01267  Uiso   1.00
H45    H     0.59780   0.31790   0.52430   0.01267  Uiso   1.00
H46    H     0.14480   0.11600   0.79200   0.01267  Uiso   1.00
H47    H     0.62350   0.51220   0.34590   0.01267  Uiso   1.00
H48    H     0.59220   0.44620   0.32220   0.01267  Uiso   1.00
H49    H     0.56180   0.51670   0.30750   0.01267  Uiso   1.00
H50    H     0.33530   0.21150   0.74080   0.01267  Uiso   1.00
H51    H     0.29610   0.16070   0.70600   0.01267  Uiso   1.00
H52    H     0.31450   0.36640   0.30370   0.01267  Uiso   1.00
H53    H     0.49380   0.39380   0.65800   0.01267  Uiso   1.00
H54    H     0.41150   0.30670   0.72120   0.01267  Uiso   1.00
H55    H     0.49320   0.30380   0.68520   0.01267  Uiso   1.00
H56    H     0.16520   0.34500   0.72800   0.01267  Uiso   1.00
H57    H     0.81340   0.44950   0.47830   0.01267  Uiso   1.00
H58    H     0.26820   0.26290   0.51870   0.01267  Uiso   1.00
H59    H     0.29980   0.19320   0.53460   0.01267  Uiso   1.00
H60    H     0.25150   0.19440   0.61350   0.01267  Uiso   1.00
H61    H     0.32290   0.54760   0.33790   0.01267  Uiso   1.00
H62    H     0.47480   0.39120   0.32660   0.01267  Uiso   1.00
H63    H     0.39250   0.30410   0.39180   0.01267  Uiso   1.00
H64    H     0.41780   0.88070   0.09730   0.01267  Uiso   1.00
H65    H     0.38330   0.94750   0.08840   0.01267  Uiso   1.00
H66    H     0.40220   0.87790   0.27990   0.01267  Uiso   1.00
H67    H     0.85520   0.06320   0.02880   0.01267  Uiso   1.00
H68    H     0.37650   0.03060   0.11130   0.01267  Uiso   1.00
H69    H     0.40780   0.08560   0.14600   0.01267  Uiso   1.00
H70    H     0.43820   0.13070   0.04510   0.01267  Uiso   1.00
H71    H     0.66470   0.92390   0.12380   0.01267  Uiso   1.00
H72    H     0.70390   0.99790   0.13540   0.01267  Uiso   1.00
H73    H     0.68550   0.38180   0.94810   0.01267  Uiso   1.00
H74    H     0.50620   0.84820   0.10000   0.01267  Uiso   1.00
H75    H     0.58850   0.86730   0.10480   0.01267  Uiso   1.00
H76    H     0.50680   0.82160   0.18940   0.01267  Uiso   1.00
H77    H     0.83480   0.10680   0.82020   0.01267  Uiso   1.00
H78    H     0.18660   0.70830   0.36390   0.01267  Uiso   1.00
H79    H     0.73180   0.21310   0.00530   0.01267  Uiso   1.00
H80    H     0.70020   0.16560   0.10660   0.01267  Uiso   1.00
H81    H     0.74850   0.13500   0.05710   0.01267  Uiso   1.00
H82    H     0.67710   0.33920   0.77530   0.01267  Uiso   1.00
H83    H     0.52520   0.19860   0.08360   0.01267  Uiso   1.00
H84    H     0.60750   0.21570   0.08840   0.01267  Uiso   1.00
H85    H     0.97800   0.09730   0.48490   0.01267  Uiso   1.00
H86    H     0.03590   0.08840   0.52830   0.01267  Uiso   1.00
H87    H     0.15780   0.27990   0.31790   0.01267  Uiso   1.00
H88    H     0.09200   0.02880   0.11600   0.01267  Uiso   1.00
H89    H     0.14190   0.11130   0.51220   0.01267  Uiso   1.00
H90    H     0.23160   0.14600   0.44620   0.01267  Uiso   1.00
H91    H     0.17580   0.04510   0.51670   0.01267  Uiso   1.00
H92    H     0.04770   0.12380   0.21150   0.01267  Uiso   1.00
H93    H     0.13330   0.13540   0.16070   0.01267  Uiso   1.00
H94    H     0.32990   0.94810   0.36640   0.01267  Uiso   1.00
H95    H     0.94820   0.10000   0.39380   0.01267  Uiso   1.00
H96    H     0.97210   0.10480   0.30670   0.01267  Uiso   1.00
H97    H     0.01100   0.18940   0.30380   0.01267  Uiso   1.00
H98    H     0.92700   0.82020   0.34500   0.01267  Uiso   1.00
H99    H     0.07220   0.36390   0.44950   0.01267  Uiso   1.00
H100   H     0.21840   0.00530   0.26290   0.01267  Uiso   1.00
H101   H     0.27220   0.10660   0.19320   0.01267  Uiso   1.00
H102   H     0.19210   0.05710   0.19440   0.01267  Uiso   1.00
H103   H     0.11450   0.77530   0.54760   0.01267  Uiso   1.00
H104   H     0.28220   0.08360   0.39120   0.01267  Uiso   1.00
H105   H     0.30410   0.08840   0.30410   0.01267  Uiso   1.00
H106   H     0.02200   0.53710   0.88070   0.01267  Uiso   1.00
H107   H     0.96410   0.43580   0.94750   0.01267  Uiso   1.00
H108   H     0.84220   0.52430   0.87790   0.01267  Uiso   1.00
H109   H     0.90800   0.79200   0.06320   0.01267  Uiso   1.00
H110   H     0.85810   0.34590   0.03060   0.01267  Uiso   1.00
H111   H     0.76840   0.32220   0.08560   0.01267  Uiso   1.00
H112   H     0.82420   0.30750   0.13070   0.01267  Uiso   1.00
H113   H     0.95230   0.74080   0.92390   0.01267  Uiso   1.00
H114   H     0.86670   0.70600   0.99790   0.01267  Uiso   1.00
H115   H     0.67010   0.30370   0.38180   0.01267  Uiso   1.00
H116   H     0.05180   0.65800   0.84820   0.01267  Uiso   1.00
H117   H     0.02790   0.72120   0.86730   0.01267  Uiso   1.00
H118   H     0.98900   0.68520   0.82160   0.01267  Uiso   1.00
H119   H     0.07300   0.72800   0.10680   0.01267  Uiso   1.00
H120   H     0.92780   0.47830   0.70830   0.01267  Uiso   1.00
H121   H     0.78160   0.51870   0.21310   0.01267  Uiso   1.00
H122   H     0.72780   0.53460   0.16560   0.01267  Uiso   1.00
H123   H     0.80790   0.61350   0.13500   0.01267  Uiso   1.00
H124   H     0.88550   0.33790   0.33920   0.01267  Uiso   1.00
H125   H     0.71780   0.32660   0.19860   0.01267  Uiso   1.00
H126   H     0.69590   0.39180   0.21570   0.01267  Uiso   1.00
H127   H     0.41780   0.51510   0.46290   0.01267  Uiso   1.00
H128   H     0.38330   0.47170   0.56420   0.01267  Uiso   1.00
H129   H     0.40220   0.68210   0.47570   0.01267  Uiso   1.00
H130   H     0.85520   0.88400   0.20800   0.01267  Uiso   1.00
H131   H     0.37650   0.48780   0.65410   0.01267  Uiso   1.00
H132   H     0.40780   0.55380   0.67780   0.01267  Uiso   1.00
H133   H     0.43820   0.48330   0.69250   0.01267  Uiso   1.00
H134   H     0.66470   0.78850   0.25920   0.01267  Uiso   1.00
H135   H     0.70390   0.83930   0.29400   0.01267  Uiso   1.00
H136   H     0.68550   0.63360   0.69630   0.01267  Uiso   1.00
H137   H     0.50620   0.60620   0.34200   0.01267  Uiso   1.00
H138   H     0.58850   0.69330   0.27880   0.01267  Uiso   1.00
H139   H     0.50680   0.69620   0.31480   0.01267  Uiso   1.00
H140   H     0.83480   0.65500   0.27200   0.01267  Uiso   1.00
H141   H     0.18660   0.55050   0.52170   0.01267  Uiso   1.00
H142   H     0.73180   0.73710   0.48130   0.01267  Uiso   1.00
H143   H     0.70020   0.80680   0.46540   0.01267  Uiso   1.00
H144   H     0.74850   0.80560   0.38650   0.01267  Uiso   1.00
H145   H     0.67710   0.45240   0.66210   0.01267  Uiso   1.00
H146   H     0.52520   0.60880   0.67340   0.01267  Uiso   1.00
H147   H     0.60750   0.69590   0.60820   0.01267  Uiso   1.00
H148   H     0.58220   0.11930   0.90270   0.01267  Uiso   1.00
H149   H     0.61670   0.05250   0.91160   0.01267  Uiso   1.00
H150   H     0.59780   0.12210   0.72010   0.01267  Uiso   1.00
H151   H     0.14480   0.93680   0.97120   0.01267  Uiso   1.00
H152   H     0.62350   0.96940   0.88870   0.01267  Uiso   1.00
H153   H     0.59220   0.91440   0.85400   0.01267  Uiso   1.00
H154   H     0.56180   0.86930   0.95490   0.01267  Uiso   1.00
H155   H     0.33530   0.07610   0.87620   0.01267  Uiso   1.00
H156   H     0.29610   0.00210   0.86460   0.01267  Uiso   1.00
H157   H     0.31450   0.61820   0.05190   0.01267  Uiso   1.00
H158   H     0.49380   0.15180   0.90000   0.01267  Uiso   1.00
H159   H     0.41150   0.13270   0.89520   0.01267  Uiso   1.00
H160   H     0.49320   0.17840   0.81060   0.01267  Uiso   1.00
H161   H     0.16520   0.89320   0.17980   0.01267  Uiso   1.00
H162   H     0.81340   0.29170   0.63610   0.01267  Uiso   1.00
H163   H     0.26820   0.78690   0.99470   0.01267  Uiso   1.00
H164   H     0.29980   0.83440   0.89340   0.01267  Uiso   1.00
H165   H     0.25150   0.86500   0.94290   0.01267  Uiso   1.00
H166   H     0.32290   0.66080   0.22470   0.01267  Uiso   1.00
H167   H     0.47480   0.80140   0.91640   0.01267  Uiso   1.00
H168   H     0.39250   0.78430   0.91160   0.01267  Uiso   1.00
H169   H     0.00000   0.32922   0.67078   0.01267  Uiso   1.00
H170   H     0.00000   0.67078   0.32922   0.01267  Uiso   1.00
H171   H     0.84992   0.46449   0.61457   0.01267  Uiso   1.00
H172   H     0.67984   0.53840   0.85856   0.01267  Uiso   1.00
H173   H     0.15008   0.53551   0.38543   0.01267  Uiso   1.00
H174   H     0.32016   0.46160   0.14144   0.01267  Uiso   1.00
H175   H     0.92094   0.38543   0.46449   0.01267  Uiso   1.00
H176   H     0.60304   0.14144   0.53840   0.01267  Uiso   1.00
H177   H     0.07906   0.61457   0.53551   0.01267  Uiso   1.00
H178   H     0.39696   0.85856   0.46160   0.01267  Uiso   1.00
C1     C     0.93973   0.89299   0.65384   0.01267  Uiso   1.00
C2     C     0.89553   0.90744   0.71232   0.01267  Uiso   1.00
C3     C     0.91770   0.89432   0.59062   0.01267  Uiso   1.00
C4     C     0.96570   0.88001   0.52658   0.01267  Uiso   1.00
C5     C     0.80874   0.92283   0.64347   0.01267  Uiso   1.00
C6     C     0.85144   0.90728   0.58565   0.01267  Uiso   1.00
C7     C     0.83037   0.92352   0.70666   0.01267  Uiso   1.00
C8     C     0.87291   0.71774   0.63751   0.01267  Uiso   1.00
C9     C     0.94441   0.00980   0.82460   0.01267  Uiso   1.00
C10    C     0.82287   0.90059   0.52174   0.01267  Uiso   1.00
C11    C     0.91608   0.90241   0.78389   0.01267  Uiso   1.00
C12    C     0.72429   0.07889   0.59277   0.01267  Uiso   1.00
C13    C     0.00841   0.87284   0.66326   0.01267  Uiso   1.00
C14    C     0.03414   0.12214   0.69957   0.01267  Uiso   1.00
C15    C     0.92005   0.67341   0.56634   0.01267  Uiso   1.00
C16    C     0.78246   0.94022   0.76993   0.01267  Uiso   1.00
C17    C     0.83986   0.17068   0.49552   0.01267  Uiso   1.00
C18    C     0.73908   0.94063   0.63729   0.01267  Uiso   1.00
C19    C     0.06027   0.40643   0.04674   0.01267  Uiso   1.00
C20    C     0.10447   0.39216   0.98809   0.01267  Uiso   1.00
C21    C     0.08230   0.49167   0.02338   0.01267  Uiso   1.00
C22    C     0.03430   0.50772   0.08569   0.01267  Uiso   1.00
C23    C     0.19126   0.54779   0.88591   0.01267  Uiso   1.00
C24    C     0.14856   0.56291   0.94416   0.01267  Uiso   1.00
C25    C     0.16963   0.46297   0.90685   0.01267  Uiso   1.00
C26    C     0.12709   0.48958   0.15517   0.01267  Uiso   1.00
C27    C     0.05559   0.23099   0.93461   0.01267  Uiso   1.00
C28    C     0.17713   0.65539   0.92228   0.01267  Uiso   1.00
C29    C     0.08392   0.30003   0.01367   0.01267  Uiso   1.00
C30    C     0.27571   0.68294   0.64540   0.01267  Uiso   1.00
C31    C     0.99159   0.32833   0.13557   0.01267  Uiso   1.00
C32    C     0.96586   0.26630   0.91200   0.01267  Uiso   1.00
C33    C     0.07995   0.51361   0.24664   0.01267  Uiso   1.00
C34    C     0.21754   0.44760   0.84225   0.01267  Uiso   1.00
C35    C     0.16014   0.66462   0.66918   0.01267  Uiso   1.00
C36    C     0.26092   0.62362   0.79845   0.01267  Uiso   1.00
C37    C     0.45317   0.34616   0.59357   0.01267  Uiso   1.00
C38    C     0.38025   0.28769   0.60784   0.01267  Uiso   1.00
C39    C     0.51506   0.40938   0.50832   0.01267  Uiso   1.00
C40    C     0.59341   0.47342   0.49228   0.01267  Uiso   1.00
C41    C     0.43370   0.35653   0.45221   0.01267  Uiso   1.00
C42    C     0.50707   0.41435   0.43709   0.01267  Uiso   1.00
C43    C     0.36982   0.29334   0.53703   0.01267  Uiso   1.00
C44    C     0.64475   0.36249   0.51042   0.01267  Uiso   1.00
C45    C     0.16560   0.17540   0.76901   0.01267  Uiso   1.00
C46    C     0.57768   0.47827   0.34460   0.01267  Uiso   1.00
C47    C     0.31369   0.21610   0.69998   0.01267  Uiso   1.00
C48    C     0.32834   0.40723   0.31706   0.01267  Uiso   1.00
C49    C     0.46390   0.33674   0.67167   0.01267  Uiso   1.00
C50    C     0.17830   0.30044   0.73370   0.01267  Uiso   1.00
C51    C     0.76026   0.43367   0.48638   0.01267  Uiso   1.00
C52    C     0.28985   0.23006   0.55239   0.01267  Uiso   1.00
C53    C     0.33380   0.50448   0.33538   0.01267  Uiso   1.00
C54    C     0.42207   0.36270   0.37638   0.01267  Uiso   1.00
C55    C     0.54683   0.95326   0.10701   0.01267  Uiso   1.00
C56    C     0.61975   0.01190   0.09256   0.01267  Uiso   1.00
C57    C     0.48494   0.97662   0.10569   0.01267  Uiso   1.00
C58    C     0.40659   0.91431   0.11999   0.01267  Uiso   1.00
C59    C     0.56630   0.11409   0.07717   0.01267  Uiso   1.00
C60    C     0.49293   0.05584   0.09272   0.01267  Uiso   1.00
C61    C     0.63018   0.09315   0.07648   0.01267  Uiso   1.00
C62    C     0.35525   0.84483   0.28226   0.01267  Uiso   1.00
C63    C     0.83440   0.06539   0.99020   0.01267  Uiso   1.00
C64    C     0.42232   0.07771   0.09942   0.01267  Uiso   1.00
C65    C     0.68631   0.98634   0.09758   0.01267  Uiso   1.00
C66    C     0.67166   0.35460   0.92111   0.01267  Uiso   1.00
C67    C     0.53610   0.86443   0.12716   0.01267  Uiso   1.00
C68    C     0.82170   0.08799   0.87786   0.01267  Uiso   1.00
C69    C     0.23974   0.75335   0.32660   0.01267  Uiso   1.00
C70    C     0.71015   0.15776   0.05979   0.01267  Uiso   1.00
C71    C     0.66620   0.33082   0.82932   0.01267  Uiso   1.00
C72    C     0.57792   0.20155   0.05938   0.01267  Uiso   1.00
C73    C     0.06027   0.10701   0.34616   0.01267  Uiso   1.00
C74    C     0.10447   0.09256   0.28768   0.01267  Uiso   1.00
C75    C     0.08230   0.10568   0.40938   0.01267  Uiso   1.00
C76    C     0.03430   0.11999   0.47342   0.01267  Uiso   1.00
C77    C     0.19126   0.07717   0.35653   0.01267  Uiso   1.00
C78    C     0.14856   0.09272   0.41435   0.01267  Uiso   1.00
C79    C     0.16963   0.07648   0.29334   0.01267  Uiso   1.00
C80    C     0.12709   0.28226   0.36249   0.01267  Uiso   1.00
C81    C     0.05559   0.99020   0.17540   0.01267  Uiso   1.00
C82    C     0.17713   0.09941   0.47826   0.01267  Uiso   1.00
C83    C     0.08392   0.09759   0.21611   0.01267  Uiso   1.00
C84    C     0.27571   0.92111   0.40723   0.01267  Uiso   1.00
C85    C     0.99159   0.12716   0.33674   0.01267  Uiso   1.00
C86    C     0.96586   0.87786   0.30043   0.01267  Uiso   1.00
C87    C     0.07995   0.32659   0.43366   0.01267  Uiso   1.00
C88    C     0.21754   0.05978   0.23007   0.01267  Uiso   1.00
C89    C     0.16014   0.82932   0.50448   0.01267  Uiso   1.00
C90    C     0.26092   0.05937   0.36271   0.01267  Uiso   1.00
C91    C     0.93973   0.59357   0.95326   0.01267  Uiso   1.00
C92    C     0.89553   0.60784   0.01191   0.01267  Uiso   1.00
C93    C     0.91770   0.50833   0.97662   0.01267  Uiso   1.00
C94    C     0.96570   0.49228   0.91431   0.01267  Uiso   1.00
C95    C     0.80874   0.45221   0.11409   0.01267  Uiso   1.00
C96    C     0.85144   0.43709   0.05584   0.01267  Uiso   1.00
C97    C     0.83037   0.53703   0.09315   0.01267  Uiso   1.00
C98    C     0.87291   0.51042   0.84483   0.01267  Uiso   1.00
C99    C     0.94441   0.76901   0.06539   0.01267  Uiso   1.00
C100   C     0.82287   0.34461   0.07772   0.01267  Uiso   1.00
C101   C     0.91608   0.69997   0.98633   0.01267  Uiso   1.00
C102   C     0.72429   0.31706   0.35460   0.01267  Uiso   1.00
C103   C     0.00841   0.67167   0.86443   0.01267  Uiso   1.00
C104   C     0.03414   0.73370   0.08800   0.01267  Uiso   1.00
C105   C     0.92005   0.48639   0.75336   0.01267  Uiso   1.00
C106   C     0.78246   0.55240   0.15775   0.01267  Uiso   1.00
C107   C     0.83986   0.33538   0.33082   0.01267  Uiso   1.00
C108   C     0.73908   0.37638   0.20155   0.01267  Uiso   1.00
C109   C     0.54683   0.65384   0.40643   0.01267  Uiso   1.00
C110   C     0.61975   0.71231   0.39216   0.01267  Uiso   1.00
C111   C     0.48494   0.59062   0.49168   0.01267  Uiso   1.00
C112   C     0.40659   0.52658   0.50772   0.01267  Uiso   1.00
C113   C     0.56630   0.64347   0.54779   0.01267  Uiso   1.00
C114   C     0.49293   0.58565   0.56291   0.01267  Uiso   1.00
C115   C     0.63018   0.70666   0.46297   0.01267  Uiso   1.00
C116   C     0.35525   0.63751   0.48958   0.01267  Uiso   1.00
C117   C     0.83440   0.82460   0.23099   0.01267  Uiso   1.00
C118   C     0.42232   0.52173   0.65540   0.01267  Uiso   1.00
C119   C     0.68631   0.78390   0.30002   0.01267  Uiso   1.00
C120   C     0.67166   0.59277   0.68294   0.01267  Uiso   1.00
C121   C     0.53610   0.66326   0.32833   0.01267  Uiso   1.00
C122   C     0.82170   0.69956   0.26630   0.01267  Uiso   1.00
C123   C     0.23974   0.56633   0.51362   0.01267  Uiso   1.00
C124   C     0.71015   0.76994   0.44761   0.01267  Uiso   1.00
C125   C     0.66620   0.49552   0.66462   0.01267  Uiso   1.00
C126   C     0.57792   0.63729   0.62363   0.01267  Uiso   1.00
C127   C     0.45317   0.04674   0.89299   0.01267  Uiso   1.00
C128   C     0.38025   0.98810   0.90744   0.01267  Uiso   1.00
C129   C     0.51506   0.02338   0.89431   0.01267  Uiso   1.00
C130   C     0.59341   0.08569   0.88001   0.01267  Uiso   1.00
C131   C     0.43370   0.88591   0.92283   0.01267  Uiso   1.00
C132   C     0.50707   0.94416   0.90728   0.01267  Uiso   1.00
C133   C     0.36982   0.90685   0.92352   0.01267  Uiso   1.00
C134   C     0.64475   0.15517   0.71774   0.01267  Uiso   1.00
C135   C     0.16560   0.93461   0.00980   0.01267  Uiso   1.00
C136   C     0.57768   0.92229   0.90058   0.01267  Uiso   1.00
C137   C     0.31369   0.01366   0.90242   0.01267  Uiso   1.00
C138   C     0.32834   0.64540   0.07889   0.01267  Uiso   1.00
C139   C     0.46390   0.13557   0.87284   0.01267  Uiso   1.00
C140   C     0.17830   0.91201   0.12213   0.01267  Uiso   1.00
C141   C     0.76026   0.24665   0.67340   0.01267  Uiso   1.00
C142   C     0.28985   0.84224   0.94021   0.01267  Uiso   1.00
C143   C     0.33380   0.66918   0.17068   0.01267  Uiso   1.00
C144   C     0.42207   0.79844   0.94063   0.01267  Uiso   1.00
N1     N     0.93180   0.78588   0.56212   0.01267  Uiso   1.00
N2     N     0.86223   0.64508   0.64286   0.01267  Uiso   1.00
N3     N     0.95481   0.98872   0.76799   0.01267  Uiso   1.00
N4     N     0.99324   0.09389   0.78481   0.01267  Uiso   1.00
N5     N     0.76399   0.03573   0.58740   0.01267  Uiso   1.00
N6     N     0.76644   0.16216   0.53666   0.01267  Uiso   1.00
N7     N     0.01331   0.05993   0.68662   0.01267  Uiso   1.00
N8     N     0.96602   0.76008   0.51424   0.01267  Uiso   1.00
N9     N     0.84115   0.09541   0.52194   0.01267  Uiso   1.00
N10    N     0.06820   0.50608   0.14591   0.01267  Uiso   1.00
N11    N     0.13777   0.49491   0.21715   0.01267  Uiso   1.00
N12    N     0.04519   0.27719   0.96609   0.01267  Uiso   1.00
N13    N     0.00676   0.22195   0.89935   0.01267  Uiso   1.00
N14    N     0.23601   0.64860   0.72826   0.01267  Uiso   1.00
N15    N     0.23356   0.69690   0.60428   0.01267  Uiso   1.00
N16    N     0.98669   0.30007   0.95338   0.01267  Uiso   1.00
N17    N     0.03398   0.51975   0.20594   0.01267  Uiso   1.00
N18    N     0.15885   0.63691   0.74574   0.01267  Uiso   1.00
N19    N     0.65199   0.43788   0.49393   0.01267  Uiso   1.00
N20    N     0.71206   0.35714   0.50509   0.01267  Uiso   1.00
N21    N     0.24328   0.23200   0.72281   0.01267  Uiso   1.00
N22    N     0.12130   0.21519   0.77805   0.01267  Uiso   1.00
N23    N     0.37686   0.41259   0.35140   0.01267  Uiso   1.00
N24    N     0.30118   0.46334   0.30310   0.01267  Uiso   1.00
N25    N     0.25345   0.31338   0.69993   0.01267  Uiso   1.00
N26    N     0.72568   0.48576   0.48026   0.01267  Uiso   1.00
N27    N     0.38265   0.47806   0.36309   0.01267  Uiso   1.00
N28    N     0.34800   0.85408   0.21412   0.01267  Uiso   1.00
N29    N     0.28794   0.78285   0.35492   0.01267  Uiso   1.00
N30    N     0.75672   0.03392   0.01127   0.01267  Uiso   1.00
N31    N     0.87870   0.10065   0.90611   0.01267  Uiso   1.00
N32    N     0.62314   0.27175   0.96427   0.01267  Uiso   1.00
N33    N     0.69882   0.39572   0.83784   0.01267  Uiso   1.00
N34    N     0.74655   0.04662   0.94007   0.01267  Uiso   1.00
N35    N     0.27432   0.79406   0.23991   0.01267  Uiso   1.00
N36    N     0.61735   0.25426   0.90459   0.01267  Uiso   1.00
N37    N     0.06820   0.21412   0.43788   0.01267  Uiso   1.00
N38    N     0.13777   0.35492   0.35714   0.01267  Uiso   1.00
N39    N     0.04519   0.01128   0.23201   0.01267  Uiso   1.00
N40    N     0.00676   0.90611   0.21519   0.01267  Uiso   1.00
N41    N     0.23601   0.96427   0.41260   0.01267  Uiso   1.00
N42    N     0.23356   0.83784   0.46334   0.01267  Uiso   1.00
N43    N     0.98669   0.94007   0.31338   0.01267  Uiso   1.00
N44    N     0.03398   0.23992   0.48576   0.01267  Uiso   1.00
N45    N     0.15885   0.90459   0.47806   0.01267  Uiso   1.00
N46    N     0.93180   0.49392   0.85409   0.01267  Uiso   1.00
N47    N     0.86223   0.50509   0.78285   0.01267  Uiso   1.00
N48    N     0.95481   0.72280   0.03391   0.01267  Uiso   1.00
N49    N     0.99324   0.77805   0.10065   0.01267  Uiso   1.00
N50    N     0.76399   0.35140   0.27174   0.01267  Uiso   1.00
N51    N     0.76644   0.30310   0.39572   0.01267  Uiso   1.00
N52    N     0.01331   0.69993   0.04662   0.01267  Uiso   1.00
N53    N     0.96602   0.48025   0.79406   0.01267  Uiso   1.00
N54    N     0.84115   0.36309   0.25426   0.01267  Uiso   1.00
N55    N     0.34800   0.56211   0.50608   0.01267  Uiso   1.00
N56    N     0.28794   0.64286   0.49491   0.01267  Uiso   1.00
N57    N     0.75672   0.76800   0.27719   0.01267  Uiso   1.00
N58    N     0.87870   0.78481   0.22195   0.01267  Uiso   1.00
N59    N     0.62314   0.58741   0.64860   0.01267  Uiso   1.00
N60    N     0.69882   0.53666   0.69690   0.01267  Uiso   1.00
N61    N     0.74655   0.68662   0.30007   0.01267  Uiso   1.00
N62    N     0.27432   0.51424   0.51974   0.01267  Uiso   1.00
N63    N     0.61735   0.52194   0.63691   0.01267  Uiso   1.00
N64    N     0.65199   0.14591   0.78589   0.01267  Uiso   1.00
N65    N     0.71206   0.21715   0.64508   0.01267  Uiso   1.00
N66    N     0.24328   0.96608   0.98872   0.01267  Uiso   1.00
N67    N     0.12130   0.89935   0.09389   0.01267  Uiso   1.00
N68    N     0.37686   0.72825   0.03573   0.01267  Uiso   1.00
N69    N     0.30118   0.60428   0.16216   0.01267  Uiso   1.00
N70    N     0.25345   0.95338   0.05993   0.01267  Uiso   1.00
N71    N     0.72568   0.20594   0.76009   0.01267  Uiso   1.00
N72    N     0.38265   0.74574   0.09541   0.01267  Uiso   1.00
O1     O     0.00000   0.28439   0.71561   0.01267  Uiso   1.00
O2     O     0.00000   0.71561   0.28439   0.01267  Uiso   1.00
O3     O     0.72897   0.56380   0.83483   0.01267  Uiso   1.00
O4     O     0.81758   0.46735   0.64977   0.01267  Uiso   1.00
O5     O     0.27103   0.43620   0.16517   0.01267  Uiso   1.00
O6     O     0.18242   0.53265   0.35023   0.01267  Uiso   1.00
O7     O     0.60138   0.16518   0.56379   0.01267  Uiso   1.00
O8     O     0.88288   0.35023   0.46735   0.01267  Uiso   1.00
O9     O     0.39862   0.83482   0.43621   0.01267  Uiso   1.00
O10    O     0.11712   0.64977   0.53265   0.01267  Uiso   1.00
N73    N     0.76793   0.82759   0.05966   0.01267  Uiso   1.00
O11    O     0.69871   0.80272   0.10401   0.01267  Uiso   1.00
O12    O     0.82475   0.88061   0.05586   0.01267  Uiso   1.00
O13    O     0.79343   0.80512   0.01169   0.01267  Uiso   1.00
N74    N     0.23207   0.17241   0.94034   0.01267  Uiso   1.00
O14    O     0.30129   0.19728   0.89599   0.01267  Uiso   1.00
O15    O     0.17525   0.11939   0.94414   0.01267  Uiso   1.00
O16    O     0.20657   0.19488   0.98831   0.01267  Uiso   1.00
N75    N     0.11275   0.94034   0.82759   0.01267  Uiso   1.00
O17    O     0.09327   0.89599   0.80272   0.01267  Uiso   1.00
O18    O     0.06353   0.94414   0.88061   0.01267  Uiso   1.00
O19    O     0.18319   0.98831   0.80512   0.01267  Uiso   1.00
N76    N     0.88725   0.05966   0.17241   0.01267  Uiso   1.00
O20    O     0.90673   0.10401   0.19728   0.01267  Uiso   1.00
O21    O     0.93647   0.05586   0.11939   0.01267  Uiso   1.00
O22    O     0.81681   0.01169   0.19488   0.01267  Uiso   1.00
