data_image0
_cell_length_a       21.2928
_cell_length_b       21.2928
_cell_length_c       10.7304
_cell_angle_alpha    90
_cell_angle_beta     90
_cell_angle_gamma    90

_symmetry_space_group_name_H-M    "P 1"
_symmetry_int_tables_number       1

loop_
  _symmetry_equiv_pos_as_xyz
  'x, y, z'

loop_
  _atom_site_label
  _atom_site_occupancy
  _atom_site_fract_x
  _atom_site_fract_y
  _atom_site_fract_z
  _atom_site_thermal_displace_type
  _atom_site_B_iso_or_equiv
  _atom_site_type_symbol
  Al1      1.0000 0.25540  0.31380  0.24430  Biso   1.000  Al
  O1       1.0000 0.24870  0.25940  0.38050  Biso   1.000  O
  C1       1.0000 0.05640  0.33240  0.25860  Biso   1.000  C
  C2       1.0000 0.93950  0.37490  0.34530  Biso   1.000  C
  C3       1.0000 0.11880  0.31410  0.21030  Biso   1.000  C
  C4       1.0000 0.05240  0.37560  0.35850  Biso   1.000  C
  C5       1.0000 0.00080  0.31000  0.20300  Biso   1.000  C
  C6       1.0000 0.88310  0.31260  0.18260  Biso   1.000  C
  C7       1.0000 0.94200  0.33170  0.24520  Biso   1.000  C
  C8       1.0000 0.99430  0.39640  0.40150  Biso   1.000  C
  O2       1.0000 0.16850  0.33180  0.25900  Biso   1.000  O
  O3       1.0000 0.83530  0.32960  0.24990  Biso   1.000  O
  O4       1.0000 0.88490  0.26650  0.11490  Biso   1.000  O
  O5       1.0000 0.12050  0.27730  0.11570  Biso   1.000  O
  C9       1.0000 0.55780  0.26880  0.20510  Biso   1.000  C
  C10      1.0000 0.44520  0.27300  0.07070  Biso   1.000  C
  C11      1.0000 0.61640  0.27520  0.27560  Biso   1.000  C
  C12      1.0000 0.55820  0.27780  0.07450  Biso   1.000  C
  C13      1.0000 0.50070  0.26020  0.26770  Biso   1.000  C
  C14      1.0000 0.38400  0.26520  0.26780  Biso   1.000  C
  C15      1.0000 0.44420  0.26390  0.20130  Biso   1.000  C
  C16      1.0000 0.50210  0.27970  0.00780  Biso   1.000  C
  O6       1.0000 0.65750  0.31090  0.23500  Biso   1.000  O
  O7       1.0000 0.34300  0.29910  0.22130  Biso   1.000  O
  O8       1.0000 0.37690  0.23620  0.36950  Biso   1.000  O
  O9       1.0000 0.61520  0.23830  0.36430  Biso   1.000  O
  Al2      1.0000 0.74570  0.31980  0.24330  Biso   1.000  Al
  O10      1.0000 0.74560  0.25840  0.37480  Biso   1.000  O
  Al3      1.0000 0.75540  0.81380  0.74430  Biso   1.000  Al
  O11      1.0000 0.74870  0.75940  0.88050  Biso   1.000  O
  C17      1.0000 0.55640  0.83240  0.75860  Biso   1.000  C
  C18      1.0000 0.43950  0.87490  0.84530  Biso   1.000  C
  C19      1.0000 0.61880  0.81410  0.71030  Biso   1.000  C
  C20      1.0000 0.55240  0.87560  0.85850  Biso   1.000  C
  C21      1.0000 0.50080  0.81000  0.70300  Biso   1.000  C
  C22      1.0000 0.38310  0.81260  0.68260  Biso   1.000  C
  C23      1.0000 0.44200  0.83170  0.74520  Biso   1.000  C
  C24      1.0000 0.49430  0.89640  0.90150  Biso   1.000  C
  O12      1.0000 0.66850  0.83180  0.75900  Biso   1.000  O
  O13      1.0000 0.33530  0.82960  0.74990  Biso   1.000  O
  O14      1.0000 0.38490  0.76650  0.61490  Biso   1.000  O
  O15      1.0000 0.62050  0.77730  0.61570  Biso   1.000  O
  C25      1.0000 0.05780  0.76880  0.70510  Biso   1.000  C
  C26      1.0000 0.94520  0.77300  0.57070  Biso   1.000  C
  C27      1.0000 0.11640  0.77520  0.77560  Biso   1.000  C
  C28      1.0000 0.05820  0.77780  0.57450  Biso   1.000  C
  C29      1.0000 0.00070  0.76020  0.76770  Biso   1.000  C
  C30      1.0000 0.88400  0.76520  0.76780  Biso   1.000  C
  C31      1.0000 0.94420  0.76390  0.70130  Biso   1.000  C
  C32      1.0000 0.00210  0.77970  0.50780  Biso   1.000  C
  O16      1.0000 0.15750  0.81090  0.73500  Biso   1.000  O
  O17      1.0000 0.84300  0.79910  0.72130  Biso   1.000  O
  O18      1.0000 0.87690  0.73620  0.86950  Biso   1.000  O
  O19      1.0000 0.11520  0.73830  0.86430  Biso   1.000  O
  Al4      1.0000 0.24570  0.81980  0.74330  Biso   1.000  Al
  O20      1.0000 0.24560  0.75840  0.87480  Biso   1.000  O
  Al5      1.0000 0.24460  0.18620  0.74430  Biso   1.000  Al
  O21      1.0000 0.25130  0.24060  0.88050  Biso   1.000  O
  C33      1.0000 0.44360  0.16760  0.75860  Biso   1.000  C
  C34      1.0000 0.56050  0.12510  0.84530  Biso   1.000  C
  C35      1.0000 0.38120  0.18590  0.71030  Biso   1.000  C
  C36      1.0000 0.44760  0.12440  0.85850  Biso   1.000  C
  C37      1.0000 0.49920  0.19000  0.70300  Biso   1.000  C
  C38      1.0000 0.61690  0.18740  0.68260  Biso   1.000  C
  C39      1.0000 0.55800  0.16830  0.74520  Biso   1.000  C
  C40      1.0000 0.50570  0.10360  0.90150  Biso   1.000  C
  O22      1.0000 0.33150  0.16820  0.75900  Biso   1.000  O
  O23      1.0000 0.66470  0.17040  0.74990  Biso   1.000  O
  O24      1.0000 0.61510  0.23350  0.61490  Biso   1.000  O
  O25      1.0000 0.37950  0.22270  0.61570  Biso   1.000  O
  C41      1.0000 0.94220  0.23120  0.70510  Biso   1.000  C
  C42      1.0000 0.05480  0.22700  0.57070  Biso   1.000  C
  C43      1.0000 0.88360  0.22480  0.77560  Biso   1.000  C
  C44      1.0000 0.94180  0.22220  0.57450  Biso   1.000  C
  C45      1.0000 0.99930  0.23980  0.76770  Biso   1.000  C
  C46      1.0000 0.11600  0.23480  0.76780  Biso   1.000  C
  C47      1.0000 0.05580  0.23610  0.70130  Biso   1.000  C
  C48      1.0000 0.99790  0.22030  0.50780  Biso   1.000  C
  O26      1.0000 0.84250  0.18910  0.73500  Biso   1.000  O
  O27      1.0000 0.15700  0.20090  0.72130  Biso   1.000  O
  O28      1.0000 0.12310  0.26380  0.86950  Biso   1.000  O
  O29      1.0000 0.88480  0.26170  0.86430  Biso   1.000  O
  Al6      1.0000 0.75430  0.18020  0.74330  Biso   1.000  Al
  O30      1.0000 0.75440  0.24160  0.87480  Biso   1.000  O
  Al7      1.0000 0.74460  0.68620  0.24430  Biso   1.000  Al
  O31      1.0000 0.75130  0.74060  0.38050  Biso   1.000  O
  C49      1.0000 0.94360  0.66760  0.25860  Biso   1.000  C
  C50      1.0000 0.06050  0.62510  0.34530  Biso   1.000  C
  C51      1.0000 0.88120  0.68590  0.21030  Biso   1.000  C
  C52      1.0000 0.94760  0.62440  0.35850  Biso   1.000  C
  C53      1.0000 0.99920  0.69000  0.20300  Biso   1.000  C
  C54      1.0000 0.11690  0.68740  0.18260  Biso   1.000  C
  C55      1.0000 0.05800  0.66830  0.24520  Biso   1.000  C
  C56      1.0000 0.00570  0.60360  0.40150  Biso   1.000  C
  O32      1.0000 0.83150  0.66820  0.25900  Biso   1.000  O
  O33      1.0000 0.16470  0.67040  0.24990  Biso   1.000  O
  O34      1.0000 0.11510  0.73350  0.11490  Biso   1.000  O
  O35      1.0000 0.87950  0.72270  0.11570  Biso   1.000  O
  C57      1.0000 0.44220  0.73120  0.20510  Biso   1.000  C
  C58      1.0000 0.55480  0.72700  0.07070  Biso   1.000  C
  C59      1.0000 0.38360  0.72480  0.27560  Biso   1.000  C
  C60      1.0000 0.44180  0.72220  0.07450  Biso   1.000  C
  C61      1.0000 0.49930  0.73980  0.26770  Biso   1.000  C
  C62      1.0000 0.61600  0.73480  0.26780  Biso   1.000  C
  C63      1.0000 0.55580  0.73610  0.20130  Biso   1.000  C
  C64      1.0000 0.49790  0.72030  0.00780  Biso   1.000  C
  O36      1.0000 0.34250  0.68910  0.23500  Biso   1.000  O
  O37      1.0000 0.65700  0.70090  0.22130  Biso   1.000  O
  O38      1.0000 0.62310  0.76380  0.36950  Biso   1.000  O
  O39      1.0000 0.38480  0.76170  0.36430  Biso   1.000  O
  Al8      1.0000 0.25430  0.68020  0.24330  Biso   1.000  Al
  O40      1.0000 0.25440  0.74160  0.37480  Biso   1.000  O
  Al9      1.0000 0.68620  0.75540  0.49430  Biso   1.000  Al
  O41      1.0000 0.74060  0.74870  0.63050  Biso   1.000  O
  C65      1.0000 0.66760  0.55640  0.50860  Biso   1.000  C
  C66      1.0000 0.62510  0.43950  0.59530  Biso   1.000  C
  C67      1.0000 0.68590  0.61880  0.46030  Biso   1.000  C
  C68      1.0000 0.62440  0.55240  0.60850  Biso   1.000  C
  C69      1.0000 0.69000  0.50080  0.45300  Biso   1.000  C
  C70      1.0000 0.68740  0.38310  0.43260  Biso   1.000  C
  C71      1.0000 0.66830  0.44200  0.49520  Biso   1.000  C
  C72      1.0000 0.60360  0.49430  0.65150  Biso   1.000  C
  O42      1.0000 0.66820  0.66850  0.50900  Biso   1.000  O
  O43      1.0000 0.67040  0.33530  0.49990  Biso   1.000  O
  O44      1.0000 0.73350  0.38490  0.36490  Biso   1.000  O
  O45      1.0000 0.72270  0.62050  0.36570  Biso   1.000  O
  C73      1.0000 0.73120  0.05780  0.45510  Biso   1.000  C
  C74      1.0000 0.72700  0.94520  0.32070  Biso   1.000  C
  C75      1.0000 0.72480  0.11640  0.52560  Biso   1.000  C
  C76      1.0000 0.72220  0.05820  0.32450  Biso   1.000  C
  C77      1.0000 0.73980  0.00070  0.51770  Biso   1.000  C
  C78      1.0000 0.73480  0.88400  0.51780  Biso   1.000  C
  C79      1.0000 0.73610  0.94420  0.45130  Biso   1.000  C
  C80      1.0000 0.72030  0.00210  0.25780  Biso   1.000  C
  O46      1.0000 0.68910  0.15750  0.48500  Biso   1.000  O
  O47      1.0000 0.70090  0.84300  0.47130  Biso   1.000  O
  O48      1.0000 0.76380  0.87690  0.61950  Biso   1.000  O
  O49      1.0000 0.76170  0.11520  0.61430  Biso   1.000  O
  Al10     1.0000 0.68020  0.24570  0.49330  Biso   1.000  Al
  O50      1.0000 0.74160  0.24560  0.62480  Biso   1.000  O
  Al11     1.0000 0.18620  0.25540  0.99430  Biso   1.000  Al
  O51      1.0000 0.24060  0.24870  0.13050  Biso   1.000  O
  C81      1.0000 0.16760  0.05640  0.00860  Biso   1.000  C
  C82      1.0000 0.12510  0.93950  0.09530  Biso   1.000  C
  C83      1.0000 0.18590  0.11880  0.96030  Biso   1.000  C
  C84      1.0000 0.12440  0.05240  0.10850  Biso   1.000  C
  C85      1.0000 0.19000  0.00080  0.95300  Biso   1.000  C
  C86      1.0000 0.18740  0.88310  0.93260  Biso   1.000  C
  C87      1.0000 0.16830  0.94200  0.99520  Biso   1.000  C
  C88      1.0000 0.10360  0.99430  0.15150  Biso   1.000  C
  O52      1.0000 0.16820  0.16850  0.00900  Biso   1.000  O
  O53      1.0000 0.17040  0.83530  0.99990  Biso   1.000  O
  O54      1.0000 0.23350  0.88490  0.86490  Biso   1.000  O
  O55      1.0000 0.22270  0.12050  0.86570  Biso   1.000  O
  C89      1.0000 0.23120  0.55780  0.95510  Biso   1.000  C
  C90      1.0000 0.22700  0.44520  0.82070  Biso   1.000  C
  C91      1.0000 0.22480  0.61640  0.02560  Biso   1.000  C
  C92      1.0000 0.22220  0.55820  0.82450  Biso   1.000  C
  C93      1.0000 0.23980  0.50070  0.01770  Biso   1.000  C
  C94      1.0000 0.23480  0.38400  0.01780  Biso   1.000  C
  C95      1.0000 0.23610  0.44420  0.95130  Biso   1.000  C
  C96      1.0000 0.22030  0.50210  0.75780  Biso   1.000  C
  O56      1.0000 0.18910  0.65750  0.98500  Biso   1.000  O
  O57      1.0000 0.20090  0.34300  0.97130  Biso   1.000  O
  O58      1.0000 0.26380  0.37690  0.11950  Biso   1.000  O
  O59      1.0000 0.26170  0.61520  0.11430  Biso   1.000  O
  Al12     1.0000 0.18020  0.74570  0.99330  Biso   1.000  Al
  O60      1.0000 0.24160  0.74560  0.12480  Biso   1.000  O
  Al13     1.0000 0.81380  0.74460  0.99430  Biso   1.000  Al
  O61      1.0000 0.75940  0.75130  0.13050  Biso   1.000  O
  C97      1.0000 0.83240  0.94360  0.00860  Biso   1.000  C
  C98      1.0000 0.87490  0.06050  0.09530  Biso   1.000  C
  C99      1.0000 0.81410  0.88120  0.96030  Biso   1.000  C
  C100     1.0000 0.87560  0.94760  0.10850  Biso   1.000  C
  C101     1.0000 0.81000  0.99920  0.95300  Biso   1.000  C
  C102     1.0000 0.81260  0.11690  0.93260  Biso   1.000  C
  C103     1.0000 0.83170  0.05800  0.99520  Biso   1.000  C
  C104     1.0000 0.89640  0.00570  0.15150  Biso   1.000  C
  O62      1.0000 0.83180  0.83150  0.00900  Biso   1.000  O
  O63      1.0000 0.82960  0.16470  0.99990  Biso   1.000  O
  O64      1.0000 0.76650  0.11510  0.86490  Biso   1.000  O
  O65      1.0000 0.77730  0.87950  0.86570  Biso   1.000  O
  C105     1.0000 0.76880  0.44220  0.95510  Biso   1.000  C
  C106     1.0000 0.77300  0.55480  0.82070  Biso   1.000  C
  C107     1.0000 0.77520  0.38360  0.02560  Biso   1.000  C
  C108     1.0000 0.77780  0.44180  0.82450  Biso   1.000  C
  C109     1.0000 0.76020  0.49930  0.01770  Biso   1.000  C
  C110     1.0000 0.76520  0.61600  0.01780  Biso   1.000  C
  C111     1.0000 0.76390  0.55580  0.95130  Biso   1.000  C
  C112     1.0000 0.77970  0.49790  0.75780  Biso   1.000  C
  O66      1.0000 0.81090  0.34250  0.98500  Biso   1.000  O
  O67      1.0000 0.79910  0.65700  0.97130  Biso   1.000  O
  O68      1.0000 0.73620  0.62310  0.11950  Biso   1.000  O
  O69      1.0000 0.73830  0.38480  0.11430  Biso   1.000  O
  Al14     1.0000 0.81980  0.25430  0.99330  Biso   1.000  Al
  O70      1.0000 0.75840  0.25440  0.12480  Biso   1.000  O
  Al15     1.0000 0.31380  0.24460  0.49430  Biso   1.000  Al
  O71      1.0000 0.25940  0.25130  0.63050  Biso   1.000  O
  C113     1.0000 0.33240  0.44360  0.50860  Biso   1.000  C
  C114     1.0000 0.37490  0.56050  0.59530  Biso   1.000  C
  C115     1.0000 0.31410  0.38120  0.46030  Biso   1.000  C
  C116     1.0000 0.37560  0.44760  0.60850  Biso   1.000  C
  C117     1.0000 0.31000  0.49920  0.45300  Biso   1.000  C
  C118     1.0000 0.31260  0.61690  0.43260  Biso   1.000  C
  C119     1.0000 0.33170  0.55800  0.49520  Biso   1.000  C
  C120     1.0000 0.39640  0.50570  0.65150  Biso   1.000  C
  O72      1.0000 0.33180  0.33150  0.50900  Biso   1.000  O
  O73      1.0000 0.32960  0.66470  0.49990  Biso   1.000  O
  O74      1.0000 0.26650  0.61510  0.36490  Biso   1.000  O
  O75      1.0000 0.27730  0.37950  0.36570  Biso   1.000  O
  C121     1.0000 0.26880  0.94220  0.45510  Biso   1.000  C
  C122     1.0000 0.27300  0.05480  0.32070  Biso   1.000  C
  C123     1.0000 0.27520  0.88360  0.52560  Biso   1.000  C
  C124     1.0000 0.27780  0.94180  0.32450  Biso   1.000  C
  C125     1.0000 0.26020  0.99930  0.51770  Biso   1.000  C
  C126     1.0000 0.26520  0.11600  0.51780  Biso   1.000  C
  C127     1.0000 0.26390  0.05580  0.45130  Biso   1.000  C
  C128     1.0000 0.27970  0.99790  0.25780  Biso   1.000  C
  O76      1.0000 0.31090  0.84250  0.48500  Biso   1.000  O
  O77      1.0000 0.29910  0.15700  0.47130  Biso   1.000  O
  O78      1.0000 0.23620  0.12310  0.61950  Biso   1.000  O
  O79      1.0000 0.23830  0.88480  0.61430  Biso   1.000  O
  Al16     1.0000 0.31980  0.75430  0.49330  Biso   1.000  Al
  O80      1.0000 0.25840  0.75440  0.62480  Biso   1.000  O
