data_image0
_cell_length_a       25.6433
_cell_length_b       13.3904
_cell_length_c       15.1209
_cell_angle_alpha    90
_cell_angle_beta     92.753
_cell_angle_gamma    90

_symmetry_space_group_name_H-M    "P 1"
_symmetry_int_tables_number       1

loop_
  _symmetry_equiv_pos_as_xyz
  'x, y, z'

loop_
  _atom_site_label
  _atom_site_occupancy
  _atom_site_fract_x
  _atom_site_fract_y
  _atom_site_fract_z
  _atom_site_thermal_displace_type
  _atom_site_B_iso_or_equiv
  _atom_site_type_symbol
  Cd1      1.0000 0.88772  0.92039  0.06400  Biso   1.000  Cd
  Cd2      1.0000 0.76136  0.04973  0.99770  Biso   1.000  Cd
  C1       1.0000 0.99370  0.05930  0.11550  Biso   1.000  C
  H1       1.0000 0.01610  0.00530  0.12540  Biso   1.000  H
  O1       1.0000 0.68630  0.00100  0.11570  Biso   1.000  O
  N1       1.0000 0.96260  0.62750  0.10380  Biso   1.000  N
  O2       1.0000 0.81730  0.01870  0.11310  Biso   1.000  O
  O3       1.0000 0.59550  0.41040  0.09300  Biso   1.000  O
  O4       1.0000 0.56190  0.98640  0.37030  Biso   1.000  O
  C2       1.0000 0.68390  0.09310  0.12210  Biso   1.000  C
  C3       1.0000 0.56520  0.07720  0.37640  Biso   1.000  C
  C4       1.0000 0.82690  0.00430  0.19390  Biso   1.000  C
  C5       1.0000 0.99090  0.78080  0.10870  Biso   1.000  C
  H2       1.0000 0.01290  0.83600  0.11300  Biso   1.000  H
  N2       1.0000 0.93910  0.78480  0.09090  Biso   1.000  N
  N3       1.0000 0.96310  0.21090  0.10640  Biso   1.000  N
  C6       1.0000 0.92960  0.36660  0.04340  Biso   1.000  C
  H3       1.0000 0.90990  0.33110  0.00090  Biso   1.000  H
  C7       1.0000 0.59830  0.23910  0.31780  Biso   1.000  C
  H4       1.0000 0.58000  0.27180  0.36100  Biso   1.000  H
  C8       1.0000 0.96010  0.52220  0.10490  Biso   1.000  C
  N4       1.0000 0.94150  0.05310  0.08950  Biso   1.000  N
  C9       1.0000 0.00640  0.68500  0.11930  Biso   1.000  C
  H5       1.0000 0.04000  0.66250  0.13420  Biso   1.000  H
  C10      1.0000 0.92200  0.69210  0.08660  Biso   1.000  C
  H6       1.0000 0.88760  0.67340  0.07360  Biso   1.000  H
  C11      1.0000 0.98930  0.47300  0.17010  Biso   1.000  C
  H7       1.0000 0.00880  0.50880  0.21270  Biso   1.000  H
  C12      1.0000 0.92420  0.14540  0.08370  Biso   1.000  C
  H8       1.0000 0.89020  0.16340  0.06660  Biso   1.000  H
  C13      1.0000 0.62460  0.08740  0.24980  Biso   1.000  C
  H9       1.0000 0.62370  0.01810  0.24630  Biso   1.000  H
  C14      1.0000 0.96010  0.31680  0.10720  Biso   1.000  C
  O5       1.0000 0.76910  0.38020  0.06030  Biso   1.000  O
  O6       1.0000 0.70760  0.14870  0.06930  Biso   1.000  O
  C15      1.0000 0.98940  0.36860  0.17150  Biso   1.000  C
  H10      1.0000 0.00890  0.33420  0.21500  Biso   1.000  H
  C16      1.0000 0.92900  0.47050  0.04360  Biso   1.000  C
  H11      1.0000 0.90770  0.50500  0.00260  Biso   1.000  H
  C17      1.0000 0.63560  0.45540  0.11720  Biso   1.000  C
  C18      1.0000 0.79190  0.42890  0.12240  Biso   1.000  C
  O7       1.0000 0.95150  0.37690  0.42860  Biso   1.000  O
  O8       1.0000 0.92900  0.52030  0.37120  Biso   1.000  O
  C19      1.0000 0.65460  0.24600  0.19560  Biso   1.000  C
  H12      1.0000 0.67450  0.28240  0.15710  Biso   1.000  H
  C20      1.0000 0.65300  0.14140  0.19090  Biso   1.000  C
  C21      1.0000 0.83610  0.22360  0.28070  Biso   1.000  C
  C22      1.0000 0.82120  0.37470  0.19560  Biso   1.000  C
  C23      1.0000 0.62580  0.29460  0.25880  Biso   1.000  C
  O9       1.0000 0.62330  0.39650  0.26950  Biso   1.000  O
  O10      1.0000 0.82740  0.12840  0.30960  Biso   1.000  O
  C24      1.0000 0.65330  0.45890  0.21390  Biso   1.000  C
  H13      1.0000 0.69000  0.43900  0.22010  Biso   1.000  H
  C25      1.0000 0.88440  0.37360  0.31780  Biso   1.000  C
  C26      1.0000 0.81030  0.27340  0.20980  Biso   1.000  C
  H14      1.0000 0.78630  0.23970  0.17260  Biso   1.000  H
  O11      1.0000 0.54170  0.12700  0.43430  Biso   1.000  O
  C27      1.0000 0.87460  0.27640  0.33450  Biso   1.000  C
  H15      1.0000 0.89270  0.24390  0.38070  Biso   1.000  H
  O12      1.0000 0.81810  0.80380  0.05480  Biso   1.000  O
  C28      1.0000 0.92420  0.42710  0.37670  Biso   1.000  C
  C29      1.0000 0.85620  0.42520  0.24880  Biso   1.000  C
  H16      1.0000 0.86170  0.49310  0.24010  Biso   1.000  H
  O13      1.0000 0.86200  0.94790  0.22090  Biso   1.000  O
  C30      1.0000 0.76990  0.99130  0.32080  Biso   1.000  C
  H17      1.0000 0.74750  0.94650  0.28700  Biso   1.000  H
  H18      1.0000 0.79660  0.95380  0.35270  Biso   1.000  H
  H19      1.0000 0.74970  0.02770  0.36180  Biso   1.000  H
  C31      1.0000 0.00710  0.15580  0.12410  Biso   1.000  C
  H20      1.0000 0.04020  0.18050  0.13930  Biso   1.000  H
  C32      1.0000 0.59720  0.13600  0.31420  Biso   1.000  C
  O14      1.0000 0.80260  0.20620  0.97740  Biso   1.000  O
  O15      1.0000 0.79020  0.52350  0.12600  Biso   1.000  O
  C33      1.0000 0.79460  0.06260  0.25980  Biso   1.000  C
  H21      1.0000 0.76730  0.10100  0.22730  Biso   1.000  H
  C34      1.0000 0.64760  0.56490  0.24980  Biso   1.000  C
  H22      1.0000 0.66700  0.61040  0.21500  Biso   1.000  H
  H23      1.0000 0.61140  0.58350  0.24670  Biso   1.000  H
  H24      1.0000 0.66080  0.56730  0.31030  Biso   1.000  H
  O16      1.0000 0.66380  0.49910  0.06430  Biso   1.000  O
  Cd3      1.0000 0.38772  0.42039  0.06400  Biso   1.000  Cd
  Cd4      1.0000 0.26136  0.54973  0.99770  Biso   1.000  Cd
  C35      1.0000 0.49370  0.55930  0.11550  Biso   1.000  C
  H25      1.0000 0.51610  0.50530  0.12540  Biso   1.000  H
  O17      1.0000 0.18630  0.50100  0.11570  Biso   1.000  O
  N5       1.0000 0.46260  0.12750  0.10380  Biso   1.000  N
  O18      1.0000 0.31730  0.51870  0.11310  Biso   1.000  O
  O19      1.0000 0.09550  0.91040  0.09300  Biso   1.000  O
  O20      1.0000 0.06190  0.48640  0.37030  Biso   1.000  O
  C36      1.0000 0.18390  0.59310  0.12210  Biso   1.000  C
  C37      1.0000 0.06520  0.57720  0.37640  Biso   1.000  C
  C38      1.0000 0.32690  0.50430  0.19390  Biso   1.000  C
  C39      1.0000 0.49090  0.28080  0.10870  Biso   1.000  C
  H26      1.0000 0.51290  0.33600  0.11300  Biso   1.000  H
  N6       1.0000 0.43910  0.28480  0.09090  Biso   1.000  N
  N7       1.0000 0.46310  0.71090  0.10640  Biso   1.000  N
  C40      1.0000 0.42960  0.86660  0.04340  Biso   1.000  C
  H27      1.0000 0.40990  0.83110  0.00090  Biso   1.000  H
  C41      1.0000 0.09830  0.73910  0.31780  Biso   1.000  C
  H28      1.0000 0.08000  0.77180  0.36100  Biso   1.000  H
  C42      1.0000 0.46010  0.02220  0.10490  Biso   1.000  C
  N8       1.0000 0.44150  0.55310  0.08950  Biso   1.000  N
  C43      1.0000 0.50640  0.18500  0.11930  Biso   1.000  C
  H29      1.0000 0.54000  0.16250  0.13420  Biso   1.000  H
  C44      1.0000 0.42200  0.19210  0.08660  Biso   1.000  C
  H30      1.0000 0.38760  0.17340  0.07360  Biso   1.000  H
  C45      1.0000 0.48930  0.97300  0.17010  Biso   1.000  C
  H31      1.0000 0.50880  0.00880  0.21270  Biso   1.000  H
  C46      1.0000 0.42420  0.64540  0.08370  Biso   1.000  C
  H32      1.0000 0.39020  0.66340  0.06660  Biso   1.000  H
  C47      1.0000 0.12460  0.58740  0.24980  Biso   1.000  C
  H33      1.0000 0.12370  0.51810  0.24630  Biso   1.000  H
  C48      1.0000 0.46010  0.81680  0.10720  Biso   1.000  C
  O21      1.0000 0.26910  0.88020  0.06030  Biso   1.000  O
  O22      1.0000 0.20760  0.64870  0.06930  Biso   1.000  O
  C49      1.0000 0.48940  0.86860  0.17150  Biso   1.000  C
  H34      1.0000 0.50890  0.83420  0.21500  Biso   1.000  H
  C50      1.0000 0.42900  0.97050  0.04360  Biso   1.000  C
  H35      1.0000 0.40770  0.00500  0.00260  Biso   1.000  H
  C51      1.0000 0.13560  0.95540  0.11720  Biso   1.000  C
  C52      1.0000 0.29190  0.92890  0.12240  Biso   1.000  C
  O23      1.0000 0.45150  0.87690  0.42860  Biso   1.000  O
  O24      1.0000 0.42900  0.02030  0.37120  Biso   1.000  O
  C53      1.0000 0.15460  0.74600  0.19560  Biso   1.000  C
  H36      1.0000 0.17450  0.78240  0.15710  Biso   1.000  H
  C54      1.0000 0.15300  0.64140  0.19090  Biso   1.000  C
  C55      1.0000 0.33610  0.72360  0.28070  Biso   1.000  C
  C56      1.0000 0.32120  0.87470  0.19560  Biso   1.000  C
  C57      1.0000 0.12580  0.79460  0.25880  Biso   1.000  C
  O25      1.0000 0.12330  0.89650  0.26950  Biso   1.000  O
  O26      1.0000 0.32740  0.62840  0.30960  Biso   1.000  O
  C58      1.0000 0.15330  0.95890  0.21390  Biso   1.000  C
  H37      1.0000 0.19000  0.93900  0.22010  Biso   1.000  H
  C59      1.0000 0.38440  0.87360  0.31780  Biso   1.000  C
  C60      1.0000 0.31030  0.77340  0.20980  Biso   1.000  C
  H38      1.0000 0.28630  0.73970  0.17260  Biso   1.000  H
  O27      1.0000 0.04170  0.62700  0.43430  Biso   1.000  O
  C61      1.0000 0.37460  0.77640  0.33450  Biso   1.000  C
  H39      1.0000 0.39270  0.74390  0.38070  Biso   1.000  H
  O28      1.0000 0.31810  0.30380  0.05480  Biso   1.000  O
  C62      1.0000 0.42420  0.92710  0.37670  Biso   1.000  C
  C63      1.0000 0.35620  0.92520  0.24880  Biso   1.000  C
  H40      1.0000 0.36170  0.99310  0.24010  Biso   1.000  H
  O29      1.0000 0.36200  0.44790  0.22090  Biso   1.000  O
  C64      1.0000 0.26990  0.49130  0.32080  Biso   1.000  C
  H41      1.0000 0.24750  0.44650  0.28700  Biso   1.000  H
  H42      1.0000 0.29660  0.45380  0.35270  Biso   1.000  H
  H43      1.0000 0.24970  0.52770  0.36180  Biso   1.000  H
  C65      1.0000 0.50710  0.65580  0.12410  Biso   1.000  C
  H44      1.0000 0.54020  0.68050  0.13930  Biso   1.000  H
  C66      1.0000 0.09720  0.63600  0.31420  Biso   1.000  C
  O30      1.0000 0.30260  0.70620  0.97740  Biso   1.000  O
  O31      1.0000 0.29020  0.02350  0.12600  Biso   1.000  O
  C67      1.0000 0.29460  0.56260  0.25980  Biso   1.000  C
  H45      1.0000 0.26730  0.60100  0.22730  Biso   1.000  H
  C68      1.0000 0.14760  0.06490  0.24980  Biso   1.000  C
  H46      1.0000 0.16700  0.11040  0.21500  Biso   1.000  H
  H47      1.0000 0.11140  0.08350  0.24670  Biso   1.000  H
  H48      1.0000 0.16080  0.06730  0.31030  Biso   1.000  H
  O32      1.0000 0.16380  0.99910  0.06430  Biso   1.000  O
  Cd5      1.0000 0.11228  0.92039  0.93600  Biso   1.000  Cd
  Cd6      1.0000 0.23864  0.04973  0.00230  Biso   1.000  Cd
  C69      1.0000 0.00630  0.05930  0.88450  Biso   1.000  C
  H49      1.0000 0.98390  0.00530  0.87460  Biso   1.000  H
  O33      1.0000 0.31370  0.00100  0.88430  Biso   1.000  O
  N9       1.0000 0.03740  0.62750  0.89620  Biso   1.000  N
  O34      1.0000 0.18270  0.01870  0.88690  Biso   1.000  O
  O35      1.0000 0.40450  0.41040  0.90700  Biso   1.000  O
  O36      1.0000 0.43810  0.98640  0.62970  Biso   1.000  O
  C70      1.0000 0.31610  0.09310  0.87790  Biso   1.000  C
  C71      1.0000 0.43480  0.07720  0.62360  Biso   1.000  C
  C72      1.0000 0.17310  0.00430  0.80610  Biso   1.000  C
  C73      1.0000 0.00910  0.78080  0.89130  Biso   1.000  C
  H50      1.0000 0.98710  0.83600  0.88700  Biso   1.000  H
  N10      1.0000 0.06090  0.78480  0.90910  Biso   1.000  N
  N11      1.0000 0.03690  0.21090  0.89360  Biso   1.000  N
  C74      1.0000 0.07040  0.36660  0.95660  Biso   1.000  C
  H51      1.0000 0.09010  0.33110  0.99910  Biso   1.000  H
  C75      1.0000 0.40170  0.23910  0.68220  Biso   1.000  C
  H52      1.0000 0.42000  0.27180  0.63900  Biso   1.000  H
  C76      1.0000 0.03990  0.52220  0.89510  Biso   1.000  C
  N12      1.0000 0.05850  0.05310  0.91050  Biso   1.000  N
  C77      1.0000 0.99360  0.68500  0.88070  Biso   1.000  C
  H53      1.0000 0.96000  0.66250  0.86580  Biso   1.000  H
  C78      1.0000 0.07800  0.69210  0.91340  Biso   1.000  C
  H54      1.0000 0.11240  0.67340  0.92640  Biso   1.000  H
  C79      1.0000 0.01070  0.47300  0.82990  Biso   1.000  C
  H55      1.0000 0.99120  0.50880  0.78730  Biso   1.000  H
  C80      1.0000 0.07580  0.14540  0.91630  Biso   1.000  C
  H56      1.0000 0.10980  0.16340  0.93340  Biso   1.000  H
  C81      1.0000 0.37540  0.08740  0.75020  Biso   1.000  C
  H57      1.0000 0.37630  0.01810  0.75370  Biso   1.000  H
  C82      1.0000 0.03990  0.31680  0.89280  Biso   1.000  C
  O37      1.0000 0.23090  0.38020  0.93970  Biso   1.000  O
  O38      1.0000 0.29240  0.14870  0.93070  Biso   1.000  O
  C83      1.0000 0.01060  0.36860  0.82850  Biso   1.000  C
  H58      1.0000 0.99110  0.33420  0.78500  Biso   1.000  H
  C84      1.0000 0.07100  0.47050  0.95640  Biso   1.000  C
  H59      1.0000 0.09230  0.50500  0.99740  Biso   1.000  H
  C85      1.0000 0.36440  0.45540  0.88280  Biso   1.000  C
  C86      1.0000 0.20810  0.42890  0.87760  Biso   1.000  C
  O39      1.0000 0.04850  0.37690  0.57140  Biso   1.000  O
  O40      1.0000 0.07100  0.52030  0.62880  Biso   1.000  O
  C87      1.0000 0.34540  0.24600  0.80440  Biso   1.000  C
  H60      1.0000 0.32550  0.28240  0.84290  Biso   1.000  H
  C88      1.0000 0.34700  0.14140  0.80910  Biso   1.000  C
  C89      1.0000 0.16390  0.22360  0.71930  Biso   1.000  C
  C90      1.0000 0.17880  0.37470  0.80440  Biso   1.000  C
  C91      1.0000 0.37420  0.29460  0.74120  Biso   1.000  C
  O41      1.0000 0.37670  0.39650  0.73050  Biso   1.000  O
  O42      1.0000 0.17260  0.12840  0.69040  Biso   1.000  O
  C92      1.0000 0.34670  0.45890  0.78610  Biso   1.000  C
  H61      1.0000 0.31000  0.43900  0.77990  Biso   1.000  H
  C93      1.0000 0.11560  0.37360  0.68220  Biso   1.000  C
  C94      1.0000 0.18970  0.27340  0.79020  Biso   1.000  C
  H62      1.0000 0.21370  0.23970  0.82740  Biso   1.000  H
  O43      1.0000 0.45830  0.12700  0.56570  Biso   1.000  O
  C95      1.0000 0.12540  0.27640  0.66550  Biso   1.000  C
  H63      1.0000 0.10730  0.24390  0.61930  Biso   1.000  H
  O44      1.0000 0.18190  0.80380  0.94520  Biso   1.000  O
  C96      1.0000 0.07580  0.42710  0.62330  Biso   1.000  C
  C97      1.0000 0.14380  0.42520  0.75120  Biso   1.000  C
  H64      1.0000 0.13830  0.49310  0.75990  Biso   1.000  H
  O45      1.0000 0.13800  0.94790  0.77910  Biso   1.000  O
  C98      1.0000 0.23010  0.99130  0.67920  Biso   1.000  C
  H65      1.0000 0.25250  0.94650  0.71300  Biso   1.000  H
  H66      1.0000 0.20340  0.95380  0.64730  Biso   1.000  H
  H67      1.0000 0.25030  0.02770  0.63820  Biso   1.000  H
  C99      1.0000 0.99290  0.15580  0.87590  Biso   1.000  C
  H68      1.0000 0.95980  0.18050  0.86070  Biso   1.000  H
  C100     1.0000 0.40280  0.13600  0.68580  Biso   1.000  C
  O46      1.0000 0.19740  0.20620  0.02260  Biso   1.000  O
  O47      1.0000 0.20980  0.52350  0.87400  Biso   1.000  O
  C101     1.0000 0.20540  0.06260  0.74020  Biso   1.000  C
  H69      1.0000 0.23270  0.10100  0.77270  Biso   1.000  H
  C102     1.0000 0.35240  0.56490  0.75020  Biso   1.000  C
  H70      1.0000 0.33300  0.61040  0.78500  Biso   1.000  H
  H71      1.0000 0.38860  0.58350  0.75330  Biso   1.000  H
  H72      1.0000 0.33920  0.56730  0.68970  Biso   1.000  H
  O48      1.0000 0.33620  0.49910  0.93570  Biso   1.000  O
  Cd7      1.0000 0.61228  0.42039  0.93600  Biso   1.000  Cd
  Cd8      1.0000 0.73864  0.54973  0.00230  Biso   1.000  Cd
  C103     1.0000 0.50630  0.55930  0.88450  Biso   1.000  C
  H73      1.0000 0.48390  0.50530  0.87460  Biso   1.000  H
  O49      1.0000 0.81370  0.50100  0.88430  Biso   1.000  O
  N13      1.0000 0.53740  0.12750  0.89620  Biso   1.000  N
  O50      1.0000 0.68270  0.51870  0.88690  Biso   1.000  O
  O51      1.0000 0.90450  0.91040  0.90700  Biso   1.000  O
  O52      1.0000 0.93810  0.48640  0.62970  Biso   1.000  O
  C104     1.0000 0.81610  0.59310  0.87790  Biso   1.000  C
  C105     1.0000 0.93480  0.57720  0.62360  Biso   1.000  C
  C106     1.0000 0.67310  0.50430  0.80610  Biso   1.000  C
  C107     1.0000 0.50910  0.28080  0.89130  Biso   1.000  C
  H74      1.0000 0.48710  0.33600  0.88700  Biso   1.000  H
  N14      1.0000 0.56090  0.28480  0.90910  Biso   1.000  N
  N15      1.0000 0.53690  0.71090  0.89360  Biso   1.000  N
  C108     1.0000 0.57040  0.86660  0.95660  Biso   1.000  C
  H75      1.0000 0.59010  0.83110  0.99910  Biso   1.000  H
  C109     1.0000 0.90170  0.73910  0.68220  Biso   1.000  C
  H76      1.0000 0.92000  0.77180  0.63900  Biso   1.000  H
  C110     1.0000 0.53990  0.02220  0.89510  Biso   1.000  C
  N16      1.0000 0.55850  0.55310  0.91050  Biso   1.000  N
  C111     1.0000 0.49360  0.18500  0.88070  Biso   1.000  C
  H77      1.0000 0.46000  0.16250  0.86580  Biso   1.000  H
  C112     1.0000 0.57800  0.19210  0.91340  Biso   1.000  C
  H78      1.0000 0.61240  0.17340  0.92640  Biso   1.000  H
  C113     1.0000 0.51070  0.97300  0.82990  Biso   1.000  C
  H79      1.0000 0.49120  0.00880  0.78730  Biso   1.000  H
  C114     1.0000 0.57580  0.64540  0.91630  Biso   1.000  C
  H80      1.0000 0.60980  0.66340  0.93340  Biso   1.000  H
  C115     1.0000 0.87540  0.58740  0.75020  Biso   1.000  C
  H81      1.0000 0.87630  0.51810  0.75370  Biso   1.000  H
  C116     1.0000 0.53990  0.81680  0.89280  Biso   1.000  C
  O53      1.0000 0.73090  0.88020  0.93970  Biso   1.000  O
  O54      1.0000 0.79240  0.64870  0.93070  Biso   1.000  O
  C117     1.0000 0.51060  0.86860  0.82850  Biso   1.000  C
  H82      1.0000 0.49110  0.83420  0.78500  Biso   1.000  H
  C118     1.0000 0.57100  0.97050  0.95640  Biso   1.000  C
  H83      1.0000 0.59230  0.00500  0.99740  Biso   1.000  H
  C119     1.0000 0.86440  0.95540  0.88280  Biso   1.000  C
  C120     1.0000 0.70810  0.92890  0.87760  Biso   1.000  C
  O55      1.0000 0.54850  0.87690  0.57140  Biso   1.000  O
  O56      1.0000 0.57100  0.02030  0.62880  Biso   1.000  O
  C121     1.0000 0.84540  0.74600  0.80440  Biso   1.000  C
  H84      1.0000 0.82550  0.78240  0.84290  Biso   1.000  H
  C122     1.0000 0.84700  0.64140  0.80910  Biso   1.000  C
  C123     1.0000 0.66390  0.72360  0.71930  Biso   1.000  C
  C124     1.0000 0.67880  0.87470  0.80440  Biso   1.000  C
  C125     1.0000 0.87420  0.79460  0.74120  Biso   1.000  C
  O57      1.0000 0.87670  0.89650  0.73050  Biso   1.000  O
  O58      1.0000 0.67260  0.62840  0.69040  Biso   1.000  O
  C126     1.0000 0.84670  0.95890  0.78610  Biso   1.000  C
  H85      1.0000 0.81000  0.93900  0.77990  Biso   1.000  H
  C127     1.0000 0.61560  0.87360  0.68220  Biso   1.000  C
  C128     1.0000 0.68970  0.77340  0.79020  Biso   1.000  C
  H86      1.0000 0.71370  0.73970  0.82740  Biso   1.000  H
  O59      1.0000 0.95830  0.62700  0.56570  Biso   1.000  O
  C129     1.0000 0.62540  0.77640  0.66550  Biso   1.000  C
  H87      1.0000 0.60730  0.74390  0.61930  Biso   1.000  H
  O60      1.0000 0.68190  0.30380  0.94520  Biso   1.000  O
  C130     1.0000 0.57580  0.92710  0.62330  Biso   1.000  C
  C131     1.0000 0.64380  0.92520  0.75120  Biso   1.000  C
  H88      1.0000 0.63830  0.99310  0.75990  Biso   1.000  H
  O61      1.0000 0.63800  0.44790  0.77910  Biso   1.000  O
  C132     1.0000 0.73010  0.49130  0.67920  Biso   1.000  C
  H89      1.0000 0.75250  0.44650  0.71300  Biso   1.000  H
  H90      1.0000 0.70340  0.45380  0.64730  Biso   1.000  H
  H91      1.0000 0.75030  0.52770  0.63820  Biso   1.000  H
  C133     1.0000 0.49290  0.65580  0.87590  Biso   1.000  C
  H92      1.0000 0.45980  0.68050  0.86070  Biso   1.000  H
  C134     1.0000 0.90280  0.63600  0.68580  Biso   1.000  C
  O62      1.0000 0.69740  0.70620  0.02260  Biso   1.000  O
  O63      1.0000 0.70980  0.02350  0.87400  Biso   1.000  O
  C135     1.0000 0.70540  0.56260  0.74020  Biso   1.000  C
  H93      1.0000 0.73270  0.60100  0.77270  Biso   1.000  H
  C136     1.0000 0.85240  0.06490  0.75020  Biso   1.000  C
  H94      1.0000 0.83300  0.11040  0.78500  Biso   1.000  H
  H95      1.0000 0.88860  0.08350  0.75330  Biso   1.000  H
  H96      1.0000 0.83920  0.06730  0.68970  Biso   1.000  H
  O64      1.0000 0.83620  0.99910  0.93570  Biso   1.000  O
  Cd9      1.0000 0.50000  0.99342  0.50000  Biso   1.000  Cd
  Cd10     1.0000 0.00000  0.49342  0.50000  Biso   1.000  Cd
