data_image0
_cell_length_a       14.4751
_cell_length_b       21.3554
_cell_length_c       20.6114
_cell_angle_alpha    90
_cell_angle_beta     90
_cell_angle_gamma    90

_symmetry_space_group_name_H-M    "P 1"
_symmetry_int_tables_number       1

loop_
  _symmetry_equiv_pos_as_xyz
  'x, y, z'

loop_
  _atom_site_label
  _atom_site_occupancy
  _atom_site_fract_x
  _atom_site_fract_y
  _atom_site_fract_z
  _atom_site_thermal_displace_type
  _atom_site_B_iso_or_equiv
  _atom_site_type_symbol
  Re1      1.0000 0.90469  0.63940  0.44130  Biso   1.000  Re
  S1       1.0000 0.86969  0.73790  0.48913  Biso   1.000  S
  O1       1.0000 0.70170  0.56660  0.82010  Biso   1.000  O
  N1       1.0000 0.85220  0.65840  0.65390  Biso   1.000  N
  N2       1.0000 0.73720  0.58610  0.53100  Biso   1.000  N
  N3       1.0000 0.88140  0.50740  0.36520  Biso   1.000  N
  N4       1.0000 0.73210  0.67030  0.34590  Biso   1.000  N
  N5       1.0000 0.85090  0.80920  0.32020  Biso   1.000  N
  C1       1.0000 0.90400  0.67030  0.61430  Biso   1.000  C
  C2       1.0000 0.79530  0.60450  0.49910  Biso   1.000  C
  C3       1.0000 0.88780  0.55200  0.39400  Biso   1.000  C
  C4       1.0000 0.79340  0.65920  0.37980  Biso   1.000  C
  C5       1.0000 0.90450  0.78770  0.35470  Biso   1.000  C
  O2       1.0000 0.59300  0.54340  0.39840  Biso   1.000  O
  Re2      1.0000 0.40469  0.13940  0.44130  Biso   1.000  Re
  S2       1.0000 0.36969  0.23790  0.48913  Biso   1.000  S
  O3       1.0000 0.20170  0.06660  0.82010  Biso   1.000  O
  N6       1.0000 0.35220  0.15840  0.65390  Biso   1.000  N
  N7       1.0000 0.23720  0.08610  0.53100  Biso   1.000  N
  N8       1.0000 0.38140  0.00740  0.36520  Biso   1.000  N
  N9       1.0000 0.23210  0.17030  0.34590  Biso   1.000  N
  N10      1.0000 0.35090  0.30920  0.32020  Biso   1.000  N
  C6       1.0000 0.40400  0.17030  0.61430  Biso   1.000  C
  C7       1.0000 0.29530  0.10450  0.49910  Biso   1.000  C
  C8       1.0000 0.38780  0.05200  0.39400  Biso   1.000  C
  C9       1.0000 0.29340  0.15920  0.37980  Biso   1.000  C
  C10      1.0000 0.40450  0.28770  0.35470  Biso   1.000  C
  O4       1.0000 0.09300  0.04340  0.39840  Biso   1.000  O
  Re3      1.0000 0.09531  0.36060  0.94130  Biso   1.000  Re
  S3       1.0000 0.13031  0.26210  0.98913  Biso   1.000  S
  O5       1.0000 0.29830  0.43340  0.32010  Biso   1.000  O
  N11      1.0000 0.14780  0.34160  0.15390  Biso   1.000  N
  N12      1.0000 0.26280  0.41390  0.03100  Biso   1.000  N
  N13      1.0000 0.11860  0.49260  0.86520  Biso   1.000  N
  N14      1.0000 0.26790  0.32970  0.84590  Biso   1.000  N
  N15      1.0000 0.14910  0.19080  0.82020  Biso   1.000  N
  C11      1.0000 0.09600  0.32970  0.11430  Biso   1.000  C
  C12      1.0000 0.20470  0.39550  0.99910  Biso   1.000  C
  C13      1.0000 0.11220  0.44800  0.89400  Biso   1.000  C
  C14      1.0000 0.20660  0.34080  0.87980  Biso   1.000  C
  C15      1.0000 0.09550  0.21230  0.85470  Biso   1.000  C
  O6       1.0000 0.40700  0.45660  0.89840  Biso   1.000  O
  Re4      1.0000 0.59531  0.86060  0.94130  Biso   1.000  Re
  S4       1.0000 0.63031  0.76210  0.98913  Biso   1.000  S
  O7       1.0000 0.79830  0.93340  0.32010  Biso   1.000  O
  N16      1.0000 0.64780  0.84160  0.15390  Biso   1.000  N
  N17      1.0000 0.76280  0.91390  0.03100  Biso   1.000  N
  N18      1.0000 0.61860  0.99260  0.86520  Biso   1.000  N
  N19      1.0000 0.76790  0.82970  0.84590  Biso   1.000  N
  N20      1.0000 0.64910  0.69080  0.82020  Biso   1.000  N
  C16      1.0000 0.59600  0.82970  0.11430  Biso   1.000  C
  C17      1.0000 0.70470  0.89550  0.99910  Biso   1.000  C
  C18      1.0000 0.61220  0.94800  0.89400  Biso   1.000  C
  C19      1.0000 0.70660  0.84080  0.87980  Biso   1.000  C
  C20      1.0000 0.59550  0.71230  0.85470  Biso   1.000  C
  O8       1.0000 0.90700  0.95660  0.89840  Biso   1.000  O
  Re5      1.0000 0.09531  0.63940  0.05870  Biso   1.000  Re
  S5       1.0000 0.13031  0.73790  0.01087  Biso   1.000  S
  O9       1.0000 0.29830  0.56660  0.67990  Biso   1.000  O
  N21      1.0000 0.14780  0.65840  0.84610  Biso   1.000  N
  N22      1.0000 0.26280  0.58610  0.96900  Biso   1.000  N
  N23      1.0000 0.11860  0.50740  0.13480  Biso   1.000  N
  N24      1.0000 0.26790  0.67030  0.15410  Biso   1.000  N
  N25      1.0000 0.14910  0.80920  0.17980  Biso   1.000  N
  C21      1.0000 0.09600  0.67030  0.88570  Biso   1.000  C
  C22      1.0000 0.20470  0.60450  0.00090  Biso   1.000  C
  C23      1.0000 0.11220  0.55200  0.10600  Biso   1.000  C
  C24      1.0000 0.20660  0.65920  0.12020  Biso   1.000  C
  C25      1.0000 0.09550  0.78770  0.14530  Biso   1.000  C
  O10      1.0000 0.40700  0.54340  0.10160  Biso   1.000  O
  Re6      1.0000 0.59531  0.13940  0.05870  Biso   1.000  Re
  S6       1.0000 0.63031  0.23790  0.01087  Biso   1.000  S
  O11      1.0000 0.79830  0.06660  0.67990  Biso   1.000  O
  N26      1.0000 0.64780  0.15840  0.84610  Biso   1.000  N
  N27      1.0000 0.76280  0.08610  0.96900  Biso   1.000  N
  N28      1.0000 0.61860  0.00740  0.13480  Biso   1.000  N
  N29      1.0000 0.76790  0.17030  0.15410  Biso   1.000  N
  N30      1.0000 0.64910  0.30920  0.17980  Biso   1.000  N
  C26      1.0000 0.59600  0.17030  0.88570  Biso   1.000  C
  C27      1.0000 0.70470  0.10450  0.00090  Biso   1.000  C
  C28      1.0000 0.61220  0.05200  0.10600  Biso   1.000  C
  C29      1.0000 0.70660  0.15920  0.12020  Biso   1.000  C
  C30      1.0000 0.59550  0.28770  0.14530  Biso   1.000  C
  O12      1.0000 0.90700  0.04340  0.10160  Biso   1.000  O
  Re7      1.0000 0.90469  0.36060  0.55870  Biso   1.000  Re
  S7       1.0000 0.86969  0.26210  0.51087  Biso   1.000  S
  O13      1.0000 0.70170  0.43340  0.17990  Biso   1.000  O
  N31      1.0000 0.85220  0.34160  0.34610  Biso   1.000  N
  N32      1.0000 0.73720  0.41390  0.46900  Biso   1.000  N
  N33      1.0000 0.88140  0.49260  0.63480  Biso   1.000  N
  N34      1.0000 0.73210  0.32970  0.65410  Biso   1.000  N
  N35      1.0000 0.85090  0.19080  0.67980  Biso   1.000  N
  C31      1.0000 0.90400  0.32970  0.38570  Biso   1.000  C
  C32      1.0000 0.79530  0.39550  0.50090  Biso   1.000  C
  C33      1.0000 0.88780  0.44800  0.60600  Biso   1.000  C
  C34      1.0000 0.79340  0.34080  0.62020  Biso   1.000  C
  C35      1.0000 0.90450  0.21230  0.64530  Biso   1.000  C
  O14      1.0000 0.59300  0.45660  0.60160  Biso   1.000  O
  Re8      1.0000 0.40469  0.86060  0.55870  Biso   1.000  Re
  S8       1.0000 0.36969  0.76210  0.51087  Biso   1.000  S
  O15      1.0000 0.20170  0.93340  0.17990  Biso   1.000  O
  N36      1.0000 0.35220  0.84160  0.34610  Biso   1.000  N
  N37      1.0000 0.23720  0.91390  0.46900  Biso   1.000  N
  N38      1.0000 0.38140  0.99260  0.63480  Biso   1.000  N
  N39      1.0000 0.23210  0.82970  0.65410  Biso   1.000  N
  N40      1.0000 0.35090  0.69080  0.67980  Biso   1.000  N
  C36      1.0000 0.40400  0.82970  0.38570  Biso   1.000  C
  C37      1.0000 0.29530  0.89550  0.50090  Biso   1.000  C
  C38      1.0000 0.38780  0.94800  0.60600  Biso   1.000  C
  C39      1.0000 0.29340  0.84080  0.62020  Biso   1.000  C
  C40      1.0000 0.40450  0.71230  0.64530  Biso   1.000  C
  O16      1.0000 0.09300  0.95660  0.60160  Biso   1.000  O
  Re9      1.0000 0.09531  0.36060  0.55870  Biso   1.000  Re
  S9       1.0000 0.13031  0.26210  0.51087  Biso   1.000  S
  O17      1.0000 0.29830  0.43340  0.17990  Biso   1.000  O
  N41      1.0000 0.14780  0.34160  0.34610  Biso   1.000  N
  N42      1.0000 0.26280  0.41390  0.46900  Biso   1.000  N
  N43      1.0000 0.11860  0.49260  0.63480  Biso   1.000  N
  N44      1.0000 0.26790  0.32970  0.65410  Biso   1.000  N
  N45      1.0000 0.14910  0.19080  0.67980  Biso   1.000  N
  C41      1.0000 0.09600  0.32970  0.38570  Biso   1.000  C
  C42      1.0000 0.20470  0.39550  0.50090  Biso   1.000  C
  C43      1.0000 0.11220  0.44800  0.60600  Biso   1.000  C
  C44      1.0000 0.20660  0.34080  0.62020  Biso   1.000  C
  C45      1.0000 0.09550  0.21230  0.64530  Biso   1.000  C
  O18      1.0000 0.40700  0.45660  0.60160  Biso   1.000  O
  Re10     1.0000 0.59531  0.86060  0.55870  Biso   1.000  Re
  S10      1.0000 0.63031  0.76210  0.51087  Biso   1.000  S
  O19      1.0000 0.79830  0.93340  0.17990  Biso   1.000  O
  N46      1.0000 0.64780  0.84160  0.34610  Biso   1.000  N
  N47      1.0000 0.76280  0.91390  0.46900  Biso   1.000  N
  N48      1.0000 0.61860  0.99260  0.63480  Biso   1.000  N
  N49      1.0000 0.76790  0.82970  0.65410  Biso   1.000  N
  N50      1.0000 0.64910  0.69080  0.67980  Biso   1.000  N
  C46      1.0000 0.59600  0.82970  0.38570  Biso   1.000  C
  C47      1.0000 0.70470  0.89550  0.50090  Biso   1.000  C
  C48      1.0000 0.61220  0.94800  0.60600  Biso   1.000  C
  C49      1.0000 0.70660  0.84080  0.62020  Biso   1.000  C
  C50      1.0000 0.59550  0.71230  0.64530  Biso   1.000  C
  O20      1.0000 0.90700  0.95660  0.60160  Biso   1.000  O
  Re11     1.0000 0.90469  0.63940  0.05870  Biso   1.000  Re
  S11      1.0000 0.86969  0.73790  0.01087  Biso   1.000  S
  O21      1.0000 0.70170  0.56660  0.67990  Biso   1.000  O
  N51      1.0000 0.85220  0.65840  0.84610  Biso   1.000  N
  N52      1.0000 0.73720  0.58610  0.96900  Biso   1.000  N
  N53      1.0000 0.88140  0.50740  0.13480  Biso   1.000  N
  N54      1.0000 0.73210  0.67030  0.15410  Biso   1.000  N
  N55      1.0000 0.85090  0.80920  0.17980  Biso   1.000  N
  C51      1.0000 0.90400  0.67030  0.88570  Biso   1.000  C
  C52      1.0000 0.79530  0.60450  0.00090  Biso   1.000  C
  C53      1.0000 0.88780  0.55200  0.10600  Biso   1.000  C
  C54      1.0000 0.79340  0.65920  0.12020  Biso   1.000  C
  C55      1.0000 0.90450  0.78770  0.14530  Biso   1.000  C
  O22      1.0000 0.59300  0.54340  0.10160  Biso   1.000  O
  Re12     1.0000 0.40469  0.13940  0.05870  Biso   1.000  Re
  S12      1.0000 0.36969  0.23790  0.01087  Biso   1.000  S
  O23      1.0000 0.20170  0.06660  0.67990  Biso   1.000  O
  N56      1.0000 0.35220  0.15840  0.84610  Biso   1.000  N
  N57      1.0000 0.23720  0.08610  0.96900  Biso   1.000  N
  N58      1.0000 0.38140  0.00740  0.13480  Biso   1.000  N
  N59      1.0000 0.23210  0.17030  0.15410  Biso   1.000  N
  N60      1.0000 0.35090  0.30920  0.17980  Biso   1.000  N
  C56      1.0000 0.40400  0.17030  0.88570  Biso   1.000  C
  C57      1.0000 0.29530  0.10450  0.00090  Biso   1.000  C
  C58      1.0000 0.38780  0.05200  0.10600  Biso   1.000  C
  C59      1.0000 0.29340  0.15920  0.12020  Biso   1.000  C
  C60      1.0000 0.40450  0.28770  0.14530  Biso   1.000  C
  O24      1.0000 0.09300  0.04340  0.10160  Biso   1.000  O
  Re13     1.0000 0.90469  0.36060  0.94130  Biso   1.000  Re
  S13      1.0000 0.86969  0.26210  0.98913  Biso   1.000  S
  O25      1.0000 0.70170  0.43340  0.32010  Biso   1.000  O
  N61      1.0000 0.85220  0.34160  0.15390  Biso   1.000  N
  N62      1.0000 0.73720  0.41390  0.03100  Biso   1.000  N
  N63      1.0000 0.88140  0.49260  0.86520  Biso   1.000  N
  N64      1.0000 0.73210  0.32970  0.84590  Biso   1.000  N
  N65      1.0000 0.85090  0.19080  0.82020  Biso   1.000  N
  C61      1.0000 0.90400  0.32970  0.11430  Biso   1.000  C
  C62      1.0000 0.79530  0.39550  0.99910  Biso   1.000  C
  C63      1.0000 0.88780  0.44800  0.89400  Biso   1.000  C
  C64      1.0000 0.79340  0.34080  0.87980  Biso   1.000  C
  C65      1.0000 0.90450  0.21230  0.85470  Biso   1.000  C
  O26      1.0000 0.59300  0.45660  0.89840  Biso   1.000  O
  Re14     1.0000 0.40469  0.86060  0.94130  Biso   1.000  Re
  S14      1.0000 0.36969  0.76210  0.98913  Biso   1.000  S
  O27      1.0000 0.20170  0.93340  0.32010  Biso   1.000  O
  N66      1.0000 0.35220  0.84160  0.15390  Biso   1.000  N
  N67      1.0000 0.23720  0.91390  0.03100  Biso   1.000  N
  N68      1.0000 0.38140  0.99260  0.86520  Biso   1.000  N
  N69      1.0000 0.23210  0.82970  0.84590  Biso   1.000  N
  N70      1.0000 0.35090  0.69080  0.82020  Biso   1.000  N
  C66      1.0000 0.40400  0.82970  0.11430  Biso   1.000  C
  C67      1.0000 0.29530  0.89550  0.99910  Biso   1.000  C
  C68      1.0000 0.38780  0.94800  0.89400  Biso   1.000  C
  C69      1.0000 0.29340  0.84080  0.87980  Biso   1.000  C
  C70      1.0000 0.40450  0.71230  0.85470  Biso   1.000  C
  O28      1.0000 0.09300  0.95660  0.89840  Biso   1.000  O
  Re15     1.0000 0.09531  0.63940  0.44130  Biso   1.000  Re
  S15      1.0000 0.13031  0.73790  0.48913  Biso   1.000  S
  O29      1.0000 0.29830  0.56660  0.82010  Biso   1.000  O
  N71      1.0000 0.14780  0.65840  0.65390  Biso   1.000  N
  N72      1.0000 0.26280  0.58610  0.53100  Biso   1.000  N
  N73      1.0000 0.11860  0.50740  0.36520  Biso   1.000  N
  N74      1.0000 0.26790  0.67030  0.34590  Biso   1.000  N
  N75      1.0000 0.14910  0.80920  0.32020  Biso   1.000  N
  C71      1.0000 0.09600  0.67030  0.61430  Biso   1.000  C
  C72      1.0000 0.20470  0.60450  0.49910  Biso   1.000  C
  C73      1.0000 0.11220  0.55200  0.39400  Biso   1.000  C
  C74      1.0000 0.20660  0.65920  0.37980  Biso   1.000  C
  C75      1.0000 0.09550  0.78770  0.35470  Biso   1.000  C
  O30      1.0000 0.40700  0.54340  0.39840  Biso   1.000  O
  Re16     1.0000 0.59531  0.13940  0.44130  Biso   1.000  Re
  S16      1.0000 0.63031  0.23790  0.48913  Biso   1.000  S
  O31      1.0000 0.79830  0.06660  0.82010  Biso   1.000  O
  N76      1.0000 0.64780  0.15840  0.65390  Biso   1.000  N
  N77      1.0000 0.76280  0.08610  0.53100  Biso   1.000  N
  N78      1.0000 0.61860  0.00740  0.36520  Biso   1.000  N
  N79      1.0000 0.76790  0.17030  0.34590  Biso   1.000  N
  N80      1.0000 0.64910  0.30920  0.32020  Biso   1.000  N
  C76      1.0000 0.59600  0.17030  0.61430  Biso   1.000  C
  C77      1.0000 0.70470  0.10450  0.49910  Biso   1.000  C
  C78      1.0000 0.61220  0.05200  0.39400  Biso   1.000  C
  C79      1.0000 0.70660  0.15920  0.37980  Biso   1.000  C
  C80      1.0000 0.59550  0.28770  0.35470  Biso   1.000  C
  O32      1.0000 0.90700  0.04340  0.39840  Biso   1.000  O
  Re17     1.0000 0.00000  0.69443  0.54158  Biso   1.000  Re
  Re18     1.0000 0.00000  0.74933  0.42075  Biso   1.000  Re
  S17      1.0000 0.00000  0.58477  0.51731  Biso   1.000  S
  S18      1.0000 0.00000  0.66168  0.35081  Biso   1.000  S
  N81      1.0000 0.00000  0.82180  0.62670  Biso   1.000  N
  N82      1.0000 0.00000  0.89450  0.46540  Biso   1.000  N
  C81      1.0000 0.00000  0.77890  0.59570  Biso   1.000  C
  C82      1.0000 0.00000  0.84350  0.45150  Biso   1.000  C
  Re19     1.0000 0.50000  0.19443  0.54158  Biso   1.000  Re
  Re20     1.0000 0.50000  0.24933  0.42075  Biso   1.000  Re
  S19      1.0000 0.50000  0.08477  0.51731  Biso   1.000  S
  S20      1.0000 0.50000  0.16168  0.35081  Biso   1.000  S
  N83      1.0000 0.50000  0.32180  0.62670  Biso   1.000  N
  N84      1.0000 0.50000  0.39450  0.46540  Biso   1.000  N
  C83      1.0000 0.50000  0.27890  0.59570  Biso   1.000  C
  C84      1.0000 0.50000  0.34350  0.45150  Biso   1.000  C
  Re21     1.0000 0.00000  0.30557  0.04158  Biso   1.000  Re
  Re22     1.0000 0.00000  0.25067  0.92075  Biso   1.000  Re
  S21      1.0000 0.00000  0.41523  0.01731  Biso   1.000  S
  S22      1.0000 0.00000  0.33832  0.85081  Biso   1.000  S
  N85      1.0000 0.00000  0.17820  0.12670  Biso   1.000  N
  N86      1.0000 0.00000  0.10550  0.96540  Biso   1.000  N
  C85      1.0000 0.00000  0.22110  0.09570  Biso   1.000  C
  C86      1.0000 0.00000  0.15650  0.95150  Biso   1.000  C
  Re23     1.0000 0.50000  0.80557  0.04158  Biso   1.000  Re
  Re24     1.0000 0.50000  0.75067  0.92075  Biso   1.000  Re
  S23      1.0000 0.50000  0.91523  0.01731  Biso   1.000  S
  S24      1.0000 0.50000  0.83832  0.85081  Biso   1.000  S
  N87      1.0000 0.50000  0.67820  0.12670  Biso   1.000  N
  N88      1.0000 0.50000  0.60550  0.96540  Biso   1.000  N
  C87      1.0000 0.50000  0.72110  0.09570  Biso   1.000  C
  C88      1.0000 0.50000  0.65650  0.95150  Biso   1.000  C
  Re25     1.0000 0.00000  0.69443  0.95842  Biso   1.000  Re
  Re26     1.0000 0.00000  0.74933  0.07925  Biso   1.000  Re
  S25      1.0000 0.00000  0.58477  0.98269  Biso   1.000  S
  S26      1.0000 0.00000  0.66168  0.14919  Biso   1.000  S
  N89      1.0000 0.00000  0.82180  0.87330  Biso   1.000  N
  N90      1.0000 0.00000  0.89450  0.03460  Biso   1.000  N
  C89      1.0000 0.00000  0.77890  0.90430  Biso   1.000  C
  C90      1.0000 0.00000  0.84350  0.04850  Biso   1.000  C
  Re27     1.0000 0.50000  0.19443  0.95842  Biso   1.000  Re
  Re28     1.0000 0.50000  0.24933  0.07925  Biso   1.000  Re
  S27      1.0000 0.50000  0.08477  0.98269  Biso   1.000  S
  S28      1.0000 0.50000  0.16168  0.14919  Biso   1.000  S
  N91      1.0000 0.50000  0.32180  0.87330  Biso   1.000  N
  N92      1.0000 0.50000  0.39450  0.03460  Biso   1.000  N
  C91      1.0000 0.50000  0.27890  0.90430  Biso   1.000  C
  C92      1.0000 0.50000  0.34350  0.04850  Biso   1.000  C
  Re29     1.0000 0.00000  0.30557  0.45842  Biso   1.000  Re
  Re30     1.0000 0.00000  0.25067  0.57925  Biso   1.000  Re
  S29      1.0000 0.00000  0.41523  0.48269  Biso   1.000  S
  S30      1.0000 0.00000  0.33832  0.64919  Biso   1.000  S
  N93      1.0000 0.00000  0.17820  0.37330  Biso   1.000  N
  N94      1.0000 0.00000  0.10550  0.53460  Biso   1.000  N
  C93      1.0000 0.00000  0.22110  0.40430  Biso   1.000  C
  C94      1.0000 0.00000  0.15650  0.54850  Biso   1.000  C
  Re31     1.0000 0.50000  0.80557  0.45842  Biso   1.000  Re
  Re32     1.0000 0.50000  0.75067  0.57925  Biso   1.000  Re
  S31      1.0000 0.50000  0.91523  0.48269  Biso   1.000  S
  S32      1.0000 0.50000  0.83832  0.64919  Biso   1.000  S
  N95      1.0000 0.50000  0.67820  0.37330  Biso   1.000  N
  N96      1.0000 0.50000  0.60550  0.53460  Biso   1.000  N
  C95      1.0000 0.50000  0.72110  0.40430  Biso   1.000  C
  C96      1.0000 0.50000  0.65650  0.54850  Biso   1.000  C
  Yb1      1.0000 0.76246  0.64251  0.75000  Biso   1.000  Yb
  O33      1.0000 0.87740  0.56840  0.75000  Biso   1.000  O
  O34      1.0000 0.81480  0.74390  0.75000  Biso   1.000  O
  Yb2      1.0000 0.26246  0.14251  0.75000  Biso   1.000  Yb
  O35      1.0000 0.37740  0.06840  0.75000  Biso   1.000  O
  O36      1.0000 0.31480  0.24390  0.75000  Biso   1.000  O
  Yb3      1.0000 0.23754  0.35749  0.25000  Biso   1.000  Yb
  O37      1.0000 0.12260  0.43160  0.25000  Biso   1.000  O
  O38      1.0000 0.18520  0.25610  0.25000  Biso   1.000  O
  Yb4      1.0000 0.73754  0.85749  0.25000  Biso   1.000  Yb
  O39      1.0000 0.62260  0.93160  0.25000  Biso   1.000  O
  O40      1.0000 0.68520  0.75610  0.25000  Biso   1.000  O
  Yb5      1.0000 0.23754  0.64251  0.75000  Biso   1.000  Yb
  O41      1.0000 0.12260  0.56840  0.75000  Biso   1.000  O
  O42      1.0000 0.18520  0.74390  0.75000  Biso   1.000  O
  Yb6      1.0000 0.73754  0.14251  0.75000  Biso   1.000  Yb
  O43      1.0000 0.62260  0.06840  0.75000  Biso   1.000  O
  O44      1.0000 0.68520  0.24390  0.75000  Biso   1.000  O
  Yb7      1.0000 0.76246  0.35749  0.25000  Biso   1.000  Yb
  O45      1.0000 0.87740  0.43160  0.25000  Biso   1.000  O
  O46      1.0000 0.81480  0.25610  0.25000  Biso   1.000  O
  Yb8      1.0000 0.26246  0.85749  0.25000  Biso   1.000  Yb
  O47      1.0000 0.37740  0.93160  0.25000  Biso   1.000  O
  O48      1.0000 0.31480  0.75610  0.25000  Biso   1.000  O
  K1       1.0000 0.59370  0.50000  0.50000  Biso   1.000  K
  K2       1.0000 0.09370  0.00000  0.50000  Biso   1.000  K
  K3       1.0000 0.40630  0.50000  0.00000  Biso   1.000  K
  K4       1.0000 0.90630  0.00000  0.00000  Biso   1.000  K
  K5       1.0000 0.40630  0.50000  0.50000  Biso   1.000  K
  K6       1.0000 0.90630  0.00000  0.50000  Biso   1.000  K
  K7       1.0000 0.59370  0.50000  0.00000  Biso   1.000  K
  K8       1.0000 0.09370  0.00000  0.00000  Biso   1.000  K
