data_image0
_cell_length_a       17.7992
_cell_length_b       17.7992
_cell_length_c       12.7145
_cell_angle_alpha    90
_cell_angle_beta     90
_cell_angle_gamma    120

_symmetry_space_group_name_H-M    "P 1"
_symmetry_int_tables_number       1

loop_
  _symmetry_equiv_pos_as_xyz
  'x, y, z'

loop_
  _atom_site_label
  _atom_site_occupancy
  _atom_site_fract_x
  _atom_site_fract_y
  _atom_site_fract_z
  _atom_site_thermal_displace_type
  _atom_site_B_iso_or_equiv
  _atom_site_type_symbol
  Cu1      1.0000 0.13680  0.55380  0.26620  Biso   1.000  Cu
  Cu2      1.0000 0.13770  0.55480  0.00411  Biso   1.000  Cu
  O1       1.0000 0.17670  0.53400  0.12900  Biso   1.000  O
  N1       1.0000 0.08880  0.59510  0.36500  Biso   1.000  N
  N2       1.0000 0.89840  0.40160  0.38940  Biso   1.000  N
  O2       1.0000 0.23480  0.67470  0.26950  Biso   1.000  O
  O3       1.0000 0.02320  0.44810  0.28300  Biso   1.000  O
  O4       1.0000 0.29420  0.80320  0.36180  Biso   1.000  O
  O5       1.0000 0.75990  0.32450  0.50000  Biso   1.000  O
  O6       1.0000 0.98010  0.56100  0.48600  Biso   1.000  O
  O7       1.0000 0.71710  0.20190  0.42670  Biso   1.000  O
  C1       1.0000 0.23610  0.72400  0.33800  Biso   1.000  C
  C2       1.0000 0.14500  0.69500  0.39800  Biso   1.000  C
  H1       1.0000 0.15320  0.70130  0.47620  Biso   1.000  H
  C3       1.0000 0.98100  0.45370  0.36000  Biso   1.000  C
  C4       1.0000 0.02100  0.53900  0.41700  Biso   1.000  C
  C5       1.0000 0.77500  0.27500  0.43100  Biso   1.000  C
  C6       1.0000 0.84850  0.31630  0.36300  Biso   1.000  C
  H2       1.0000 0.82060  0.32150  0.29690  Biso   1.000  H
  C7       1.0000 0.09400  0.73800  0.36000  Biso   1.000  C
  H3       1.0000 0.03690  0.71010  0.39600  Biso   1.000  H
  H4       1.0000 0.12550  0.79970  0.38130  Biso   1.000  H
  C8       1.0000 0.08000  0.73300  0.24800  Biso   1.000  C
  H5       1.0000 0.13510  0.78050  0.21990  Biso   1.000  H
  H6       1.0000 0.03740  0.75320  0.23890  Biso   1.000  H
  C9       1.0000 0.10800  0.75300  0.06700  Biso   1.000  C
  H7       1.0000 0.10820  0.73920  0.99240  Biso   1.000  H
  H8       1.0000 0.16830  0.78570  0.09240  Biso   1.000  H
  H9       1.0000 0.08020  0.78780  0.07620  Biso   1.000  H
  C10      1.0000 0.90480  0.27690  0.31680  Biso   1.000  C
  H10      1.0000 0.95100  0.32540  0.27590  Biso   1.000  H
  H11      1.0000 0.86630  0.23430  0.26370  Biso   1.000  H
  C11      1.0000 0.95410  0.23030  0.37070  Biso   1.000  C
  H12      1.0000 0.01280  0.28200  0.37530  Biso   1.000  H
  H13      1.0000 0.95740  0.19940  0.30770  Biso   1.000  H
  C12      1.0000 0.02600  0.12400  0.38800  Biso   1.000  C
  H14      1.0000 0.03770  0.08740  0.43490  Biso   1.000  H
  H15      1.0000 0.08070  0.17190  0.36180  Biso   1.000  H
  H16      1.0000 0.99000  0.08950  0.32920  Biso   1.000  H
  S1       1.0000 0.04570  0.64610  0.14700  Biso   1.000  S
  S2       1.0000 0.96700  0.16890  0.46310  Biso   1.000  S
  Cu3      1.0000 0.44620  0.58300  0.26620  Biso   1.000  Cu
  Cu4      1.0000 0.44520  0.58290  0.00411  Biso   1.000  Cu
  O8       1.0000 0.46600  0.64270  0.12900  Biso   1.000  O
  N3       1.0000 0.40490  0.49370  0.36500  Biso   1.000  N
  N4       1.0000 0.59840  0.49680  0.38940  Biso   1.000  N
  O9       1.0000 0.32530  0.56010  0.26950  Biso   1.000  O
  O10      1.0000 0.55190  0.57510  0.28300  Biso   1.000  O
  O11      1.0000 0.19680  0.49100  0.36180  Biso   1.000  O
  O12      1.0000 0.67550  0.43540  0.50000  Biso   1.000  O
  O13      1.0000 0.43900  0.41910  0.48600  Biso   1.000  O
  O14      1.0000 0.79810  0.51520  0.42670  Biso   1.000  O
  C13      1.0000 0.27600  0.51210  0.33800  Biso   1.000  C
  C14      1.0000 0.30500  0.45000  0.39800  Biso   1.000  C
  H17      1.0000 0.29870  0.45190  0.47620  Biso   1.000  H
  C15      1.0000 0.54630  0.52730  0.36000  Biso   1.000  C
  C16      1.0000 0.46100  0.48200  0.41700  Biso   1.000  C
  C17      1.0000 0.72500  0.50000  0.43100  Biso   1.000  C
  C18      1.0000 0.68370  0.53220  0.36300  Biso   1.000  C
  H18      1.0000 0.67850  0.49910  0.29690  Biso   1.000  H
  C19      1.0000 0.26200  0.35600  0.36000  Biso   1.000  C
  H19      1.0000 0.28990  0.32680  0.39600  Biso   1.000  H
  H20      1.0000 0.20030  0.32580  0.38130  Biso   1.000  H
  C20      1.0000 0.26700  0.34700  0.24800  Biso   1.000  C
  H21      1.0000 0.21950  0.35460  0.21990  Biso   1.000  H
  H22      1.0000 0.24680  0.28420  0.23890  Biso   1.000  H
  C21      1.0000 0.24700  0.35500  0.06700  Biso   1.000  C
  H23      1.0000 0.26080  0.36900  0.99240  Biso   1.000  H
  H24      1.0000 0.21430  0.38260  0.09240  Biso   1.000  H
  H25      1.0000 0.21220  0.29240  0.07620  Biso   1.000  H
  C22      1.0000 0.72310  0.62790  0.31680  Biso   1.000  C
  H26      1.0000 0.67460  0.62560  0.27590  Biso   1.000  H
  H27      1.0000 0.76570  0.63200  0.26370  Biso   1.000  H
  C23      1.0000 0.76970  0.72380  0.37070  Biso   1.000  C
  H28      1.0000 0.71800  0.73080  0.37530  Biso   1.000  H
  H29      1.0000 0.80060  0.75800  0.30770  Biso   1.000  H
  C24      1.0000 0.87600  0.90200  0.38800  Biso   1.000  C
  H30      1.0000 0.91260  0.95030  0.43490  Biso   1.000  H
  H31      1.0000 0.82810  0.90880  0.36180  Biso   1.000  H
  H32      1.0000 0.91050  0.90050  0.32920  Biso   1.000  H
  S3       1.0000 0.35390  0.39960  0.14700  Biso   1.000  S
  S4       1.0000 0.83110  0.79810  0.46310  Biso   1.000  S
  Cu5      1.0000 0.41700  0.86320  0.26620  Biso   1.000  Cu
  Cu6      1.0000 0.41710  0.86230  0.00411  Biso   1.000  Cu
  O15      1.0000 0.35730  0.82330  0.12900  Biso   1.000  O
  N5       1.0000 0.50630  0.91120  0.36500  Biso   1.000  N
  N6       1.0000 0.50320  0.10160  0.38940  Biso   1.000  N
  O16      1.0000 0.43990  0.76520  0.26950  Biso   1.000  O
  O17      1.0000 0.42490  0.97680  0.28300  Biso   1.000  O
  O18      1.0000 0.50900  0.70580  0.36180  Biso   1.000  O
  O19      1.0000 0.56460  0.24010  0.50000  Biso   1.000  O
  O20      1.0000 0.58090  0.01990  0.48600  Biso   1.000  O
  O21      1.0000 0.48480  0.28290  0.42670  Biso   1.000  O
  C25      1.0000 0.48790  0.76390  0.33800  Biso   1.000  C
  C26      1.0000 0.55000  0.85500  0.39800  Biso   1.000  C
  H33      1.0000 0.54810  0.84680  0.47620  Biso   1.000  H
  C27      1.0000 0.47270  0.01900  0.36000  Biso   1.000  C
  C28      1.0000 0.51800  0.97900  0.41700  Biso   1.000  C
  C29      1.0000 0.50000  0.22500  0.43100  Biso   1.000  C
  C30      1.0000 0.46780  0.15150  0.36300  Biso   1.000  C
  H34      1.0000 0.50090  0.17940  0.29690  Biso   1.000  H
  C31      1.0000 0.64400  0.90600  0.36000  Biso   1.000  C
  H35      1.0000 0.67320  0.96310  0.39600  Biso   1.000  H
  H36      1.0000 0.67420  0.87450  0.38130  Biso   1.000  H
  C32      1.0000 0.65300  0.92000  0.24800  Biso   1.000  C
  H37      1.0000 0.64540  0.86490  0.21990  Biso   1.000  H
  H38      1.0000 0.71580  0.96260  0.23890  Biso   1.000  H
  C33      1.0000 0.64500  0.89200  0.06700  Biso   1.000  C
  H39      1.0000 0.63100  0.89180  0.99240  Biso   1.000  H
  H40      1.0000 0.61740  0.83170  0.09240  Biso   1.000  H
  H41      1.0000 0.70760  0.91980  0.07620  Biso   1.000  H
  C34      1.0000 0.37210  0.09520  0.31680  Biso   1.000  C
  H42      1.0000 0.37440  0.04900  0.27590  Biso   1.000  H
  H43      1.0000 0.36800  0.13370  0.26370  Biso   1.000  H
  C35      1.0000 0.27620  0.04590  0.37070  Biso   1.000  C
  H44      1.0000 0.26920  0.98720  0.37530  Biso   1.000  H
  H45      1.0000 0.24200  0.04260  0.30770  Biso   1.000  H
  C36      1.0000 0.09800  0.97400  0.38800  Biso   1.000  C
  H46      1.0000 0.04970  0.96230  0.43490  Biso   1.000  H
  H47      1.0000 0.09120  0.91930  0.36180  Biso   1.000  H
  H48      1.0000 0.09950  0.01000  0.32920  Biso   1.000  H
  S5       1.0000 0.60040  0.95430  0.14700  Biso   1.000  S
  S6       1.0000 0.20190  0.03300  0.46310  Biso   1.000  S
  Cu7      1.0000 0.86320  0.44620  0.76620  Biso   1.000  Cu
  Cu8      1.0000 0.86230  0.44520  0.50411  Biso   1.000  Cu
  O22      1.0000 0.82330  0.46600  0.62900  Biso   1.000  O
  N7       1.0000 0.91120  0.40490  0.86500  Biso   1.000  N
  N8       1.0000 0.10160  0.59840  0.88940  Biso   1.000  N
  O23      1.0000 0.76520  0.32530  0.76950  Biso   1.000  O
  O24      1.0000 0.97680  0.55190  0.78300  Biso   1.000  O
  O25      1.0000 0.70580  0.19680  0.86180  Biso   1.000  O
  O26      1.0000 0.24010  0.67550  0.00000  Biso   1.000  O
  O27      1.0000 0.01990  0.43900  0.98600  Biso   1.000  O
  O28      1.0000 0.28290  0.79810  0.92670  Biso   1.000  O
  C37      1.0000 0.76390  0.27600  0.83800  Biso   1.000  C
  C38      1.0000 0.85500  0.30500  0.89800  Biso   1.000  C
  H49      1.0000 0.84680  0.29870  0.97620  Biso   1.000  H
  C39      1.0000 0.01900  0.54630  0.86000  Biso   1.000  C
  C40      1.0000 0.97900  0.46100  0.91700  Biso   1.000  C
  C41      1.0000 0.22500  0.72500  0.93100  Biso   1.000  C
  C42      1.0000 0.15150  0.68370  0.86300  Biso   1.000  C
  H50      1.0000 0.17940  0.67850  0.79690  Biso   1.000  H
  C43      1.0000 0.90600  0.26200  0.86000  Biso   1.000  C
  H51      1.0000 0.96310  0.28990  0.89600  Biso   1.000  H
  H52      1.0000 0.87450  0.20030  0.88130  Biso   1.000  H
  C44      1.0000 0.92000  0.26700  0.74800  Biso   1.000  C
  H53      1.0000 0.86490  0.21950  0.71990  Biso   1.000  H
  H54      1.0000 0.96260  0.24680  0.73890  Biso   1.000  H
  C45      1.0000 0.89200  0.24700  0.56700  Biso   1.000  C
  H55      1.0000 0.89180  0.26080  0.49240  Biso   1.000  H
  H56      1.0000 0.83170  0.21430  0.59240  Biso   1.000  H
  H57      1.0000 0.91980  0.21220  0.57620  Biso   1.000  H
  C46      1.0000 0.09520  0.72310  0.81680  Biso   1.000  C
  H58      1.0000 0.04900  0.67460  0.77590  Biso   1.000  H
  H59      1.0000 0.13370  0.76570  0.76370  Biso   1.000  H
  C47      1.0000 0.04590  0.76970  0.87070  Biso   1.000  C
  H60      1.0000 0.98720  0.71800  0.87530  Biso   1.000  H
  H61      1.0000 0.04260  0.80060  0.80770  Biso   1.000  H
  C48      1.0000 0.97400  0.87600  0.88800  Biso   1.000  C
  H62      1.0000 0.96230  0.91260  0.93490  Biso   1.000  H
  H63      1.0000 0.91930  0.82810  0.86180  Biso   1.000  H
  H64      1.0000 0.01000  0.91050  0.82920  Biso   1.000  H
  S7       1.0000 0.95430  0.35390  0.64700  Biso   1.000  S
  S8       1.0000 0.03300  0.83110  0.96310  Biso   1.000  S
  Cu9      1.0000 0.55380  0.41700  0.76620  Biso   1.000  Cu
  Cu10     1.0000 0.55480  0.41710  0.50411  Biso   1.000  Cu
  O29      1.0000 0.53400  0.35730  0.62900  Biso   1.000  O
  N9       1.0000 0.59510  0.50630  0.86500  Biso   1.000  N
  N10      1.0000 0.40160  0.50320  0.88940  Biso   1.000  N
  O30      1.0000 0.67470  0.43990  0.76950  Biso   1.000  O
  O31      1.0000 0.44810  0.42490  0.78300  Biso   1.000  O
  O32      1.0000 0.80320  0.50900  0.86180  Biso   1.000  O
  O33      1.0000 0.32450  0.56460  0.00000  Biso   1.000  O
  O34      1.0000 0.56100  0.58090  0.98600  Biso   1.000  O
  O35      1.0000 0.20190  0.48480  0.92670  Biso   1.000  O
  C49      1.0000 0.72400  0.48790  0.83800  Biso   1.000  C
  C50      1.0000 0.69500  0.55000  0.89800  Biso   1.000  C
  H65      1.0000 0.70130  0.54810  0.97620  Biso   1.000  H
  C51      1.0000 0.45370  0.47270  0.86000  Biso   1.000  C
  C52      1.0000 0.53900  0.51800  0.91700  Biso   1.000  C
  C53      1.0000 0.27500  0.50000  0.93100  Biso   1.000  C
  C54      1.0000 0.31630  0.46780  0.86300  Biso   1.000  C
  H66      1.0000 0.32150  0.50090  0.79690  Biso   1.000  H
  C55      1.0000 0.73800  0.64400  0.86000  Biso   1.000  C
  H67      1.0000 0.71010  0.67320  0.89600  Biso   1.000  H
  H68      1.0000 0.79970  0.67420  0.88130  Biso   1.000  H
  C56      1.0000 0.73300  0.65300  0.74800  Biso   1.000  C
  H69      1.0000 0.78050  0.64540  0.71990  Biso   1.000  H
  H70      1.0000 0.75320  0.71580  0.73890  Biso   1.000  H
  C57      1.0000 0.75300  0.64500  0.56700  Biso   1.000  C
  H71      1.0000 0.73920  0.63100  0.49240  Biso   1.000  H
  H72      1.0000 0.78570  0.61740  0.59240  Biso   1.000  H
  H73      1.0000 0.78780  0.70760  0.57620  Biso   1.000  H
  C58      1.0000 0.27690  0.37210  0.81680  Biso   1.000  C
  H74      1.0000 0.32540  0.37440  0.77590  Biso   1.000  H
  H75      1.0000 0.23430  0.36800  0.76370  Biso   1.000  H
  C59      1.0000 0.23030  0.27620  0.87070  Biso   1.000  C
  H76      1.0000 0.28200  0.26920  0.87530  Biso   1.000  H
  H77      1.0000 0.19940  0.24200  0.80770  Biso   1.000  H
  C60      1.0000 0.12400  0.09800  0.88800  Biso   1.000  C
  H78      1.0000 0.08740  0.04970  0.93490  Biso   1.000  H
  H79      1.0000 0.17190  0.09120  0.86180  Biso   1.000  H
  H80      1.0000 0.08950  0.09950  0.82920  Biso   1.000  H
  S9       1.0000 0.64610  0.60040  0.64700  Biso   1.000  S
  S10      1.0000 0.16890  0.20190  0.96310  Biso   1.000  S
  Cu11     1.0000 0.58300  0.13680  0.76620  Biso   1.000  Cu
  Cu12     1.0000 0.58290  0.13770  0.50411  Biso   1.000  Cu
  O36      1.0000 0.64270  0.17670  0.62900  Biso   1.000  O
  N11      1.0000 0.49370  0.08880  0.86500  Biso   1.000  N
  N12      1.0000 0.49680  0.89840  0.88940  Biso   1.000  N
  O37      1.0000 0.56010  0.23480  0.76950  Biso   1.000  O
  O38      1.0000 0.57510  0.02320  0.78300  Biso   1.000  O
  O39      1.0000 0.49100  0.29420  0.86180  Biso   1.000  O
  O40      1.0000 0.43540  0.75990  0.00000  Biso   1.000  O
  O41      1.0000 0.41910  0.98010  0.98600  Biso   1.000  O
  O42      1.0000 0.51520  0.71710  0.92670  Biso   1.000  O
  C61      1.0000 0.51210  0.23610  0.83800  Biso   1.000  C
  C62      1.0000 0.45000  0.14500  0.89800  Biso   1.000  C
  H81      1.0000 0.45190  0.15320  0.97620  Biso   1.000  H
  C63      1.0000 0.52730  0.98100  0.86000  Biso   1.000  C
  C64      1.0000 0.48200  0.02100  0.91700  Biso   1.000  C
  C65      1.0000 0.50000  0.77500  0.93100  Biso   1.000  C
  C66      1.0000 0.53220  0.84850  0.86300  Biso   1.000  C
  H82      1.0000 0.49910  0.82060  0.79690  Biso   1.000  H
  C67      1.0000 0.35600  0.09400  0.86000  Biso   1.000  C
  H83      1.0000 0.32680  0.03690  0.89600  Biso   1.000  H
  H84      1.0000 0.32580  0.12550  0.88130  Biso   1.000  H
  C68      1.0000 0.34700  0.08000  0.74800  Biso   1.000  C
  H85      1.0000 0.35460  0.13510  0.71990  Biso   1.000  H
  H86      1.0000 0.28420  0.03740  0.73890  Biso   1.000  H
  C69      1.0000 0.35500  0.10800  0.56700  Biso   1.000  C
  H87      1.0000 0.36900  0.10820  0.49240  Biso   1.000  H
  H88      1.0000 0.38260  0.16830  0.59240  Biso   1.000  H
  H89      1.0000 0.29240  0.08020  0.57620  Biso   1.000  H
  C70      1.0000 0.62790  0.90480  0.81680  Biso   1.000  C
  H90      1.0000 0.62560  0.95100  0.77590  Biso   1.000  H
  H91      1.0000 0.63200  0.86630  0.76370  Biso   1.000  H
  C71      1.0000 0.72380  0.95410  0.87070  Biso   1.000  C
  H92      1.0000 0.73080  0.01280  0.87530  Biso   1.000  H
  H93      1.0000 0.75800  0.95740  0.80770  Biso   1.000  H
  C72      1.0000 0.90200  0.02600  0.88800  Biso   1.000  C
  H94      1.0000 0.95030  0.03770  0.93490  Biso   1.000  H
  H95      1.0000 0.90880  0.08070  0.86180  Biso   1.000  H
  H96      1.0000 0.90050  0.99000  0.82920  Biso   1.000  H
  S11      1.0000 0.39960  0.04570  0.64700  Biso   1.000  S
  S12      1.0000 0.79810  0.96700  0.96310  Biso   1.000  S
  Ca1      1.0000 0.33333  0.66667  0.13460  Biso   1.000  Ca
  Ca2      1.0000 0.66667  0.33333  0.63460  Biso   1.000  Ca
