data_image0
_cell_length_a       12.3431
_cell_length_b       12.9544
_cell_length_c       19.3934
_cell_angle_alpha    90
_cell_angle_beta     91.944
_cell_angle_gamma    90

_symmetry_space_group_name_H-M    "P 1"
_symmetry_int_tables_number       1

loop_
  _symmetry_equiv_pos_as_xyz
  'x, y, z'

loop_
  _atom_site_label
  _atom_site_occupancy
  _atom_site_fract_x
  _atom_site_fract_y
  _atom_site_fract_z
  _atom_site_thermal_displace_type
  _atom_site_B_iso_or_equiv
  _atom_site_type_symbol
  Nb1      1.0000 0.10101  0.89969  0.05461  Biso   1.000  Nb
  Cl1      1.0000 0.97285  0.75622  0.06822  Biso   1.000  Cl
  N1       1.0000 0.21180  0.79410  0.11350  Biso   1.000  N
  Nb2      1.0000 0.12477  0.10701  0.99601  Biso   1.000  Nb
  Cl2      1.0000 0.17676  0.80728  0.95662  Biso   1.000  Cl
  Nb3      1.0000 0.95200  0.06401  0.09113  Biso   1.000  Nb
  Cl3      1.0000 0.26537  0.00714  0.05895  Biso   1.000  Cl
  Cl4      1.0000 0.06079  0.95721  0.17169  Biso   1.000  Cl
  C1       1.0000 0.27930  0.75260  0.14580  Biso   1.000  C
  N2       1.0000 0.26060  0.21800  0.99170  Biso   1.000  N
  Cl5      1.0000 0.20176  0.05008  0.88721  Biso   1.000  Cl
  Cl6      1.0000 0.09085  0.20022  0.10345  Biso   1.000  Cl
  N3       1.0000 0.89880  0.13380  0.18810  Biso   1.000  N
  S1       1.0000 0.37418  0.69596  0.19265  Biso   1.000  S
  C2       1.0000 0.34080  0.26250  0.98400  Biso   1.000  C
  C3       1.0000 0.86420  0.17580  0.23480  Biso   1.000  C
  Cu1      1.0000 0.51976  0.76125  0.13537  Biso   1.000  Cu
  S2       1.0000 0.45543  0.32258  0.97174  Biso   1.000  S
  S3       1.0000 0.81592  0.23879  0.29988  Biso   1.000  S
  N4       1.0000 0.51650  0.91260  0.11640  Biso   1.000  N
  C4       1.0000 0.52910  0.99680  0.10220  Biso   1.000  C
  C5       1.0000 0.54340  0.10390  0.08330  Biso   1.000  C
  H1       1.0000 0.60280  0.13390  0.11150  Biso   1.000  H
  H2       1.0000 0.47640  0.14210  0.09110  Biso   1.000  H
  H3       1.0000 0.56080  0.10830  0.03440  Biso   1.000  H
  Nb4      1.0000 0.39899  0.39969  0.44539  Biso   1.000  Nb
  Cl7      1.0000 0.52715  0.25622  0.43178  Biso   1.000  Cl
  N5       1.0000 0.28820  0.29410  0.38650  Biso   1.000  N
  Nb5      1.0000 0.37523  0.60701  0.50399  Biso   1.000  Nb
  Cl8      1.0000 0.32324  0.30728  0.54338  Biso   1.000  Cl
  Nb6      1.0000 0.54800  0.56401  0.40887  Biso   1.000  Nb
  Cl9      1.0000 0.23463  0.50714  0.44105  Biso   1.000  Cl
  Cl10     1.0000 0.43921  0.45721  0.32831  Biso   1.000  Cl
  C6       1.0000 0.22070  0.25260  0.35420  Biso   1.000  C
  N6       1.0000 0.23940  0.71800  0.50830  Biso   1.000  N
  Cl11     1.0000 0.29824  0.55008  0.61279  Biso   1.000  Cl
  Cl12     1.0000 0.40915  0.70022  0.39655  Biso   1.000  Cl
  N7       1.0000 0.60120  0.63380  0.31190  Biso   1.000  N
  S4       1.0000 0.12582  0.19596  0.30735  Biso   1.000  S
  C7       1.0000 0.15920  0.76250  0.51600  Biso   1.000  C
  C8       1.0000 0.63580  0.67580  0.26520  Biso   1.000  C
  Cu2      1.0000 0.98024  0.26125  0.36463  Biso   1.000  Cu
  S5       1.0000 0.04457  0.82258  0.52826  Biso   1.000  S
  S6       1.0000 0.68408  0.73879  0.20012  Biso   1.000  S
  N8       1.0000 0.98350  0.41260  0.38360  Biso   1.000  N
  C9       1.0000 0.97090  0.49680  0.39780  Biso   1.000  C
  C10      1.0000 0.95660  0.60390  0.41670  Biso   1.000  C
  H4       1.0000 0.89720  0.63390  0.38850  Biso   1.000  H
  H5       1.0000 0.02360  0.64210  0.40890  Biso   1.000  H
  H6       1.0000 0.93920  0.60830  0.46560  Biso   1.000  H
  Nb7      1.0000 0.89899  0.10031  0.94539  Biso   1.000  Nb
  Cl13     1.0000 0.02715  0.24378  0.93178  Biso   1.000  Cl
  N9       1.0000 0.78820  0.20590  0.88650  Biso   1.000  N
  Nb8      1.0000 0.87523  0.89299  0.00399  Biso   1.000  Nb
  Cl14     1.0000 0.82324  0.19272  0.04338  Biso   1.000  Cl
  Nb9      1.0000 0.04800  0.93599  0.90887  Biso   1.000  Nb
  Cl15     1.0000 0.73463  0.99286  0.94105  Biso   1.000  Cl
  Cl16     1.0000 0.93921  0.04279  0.82831  Biso   1.000  Cl
  C11      1.0000 0.72070  0.24740  0.85420  Biso   1.000  C
  N10      1.0000 0.73940  0.78200  0.00830  Biso   1.000  N
  Cl17     1.0000 0.79824  0.94992  0.11279  Biso   1.000  Cl
  Cl18     1.0000 0.90915  0.79978  0.89655  Biso   1.000  Cl
  N11      1.0000 0.10120  0.86620  0.81190  Biso   1.000  N
  S7       1.0000 0.62582  0.30404  0.80735  Biso   1.000  S
  C12      1.0000 0.65920  0.73750  0.01600  Biso   1.000  C
  C13      1.0000 0.13580  0.82420  0.76520  Biso   1.000  C
  Cu3      1.0000 0.48024  0.23875  0.86463  Biso   1.000  Cu
  S8       1.0000 0.54457  0.67742  0.02826  Biso   1.000  S
  S9       1.0000 0.18408  0.76121  0.70012  Biso   1.000  S
  N12      1.0000 0.48350  0.08740  0.88360  Biso   1.000  N
  C14      1.0000 0.47090  0.00320  0.89780  Biso   1.000  C
  C15      1.0000 0.45660  0.89610  0.91670  Biso   1.000  C
  H7       1.0000 0.39720  0.86610  0.88850  Biso   1.000  H
  H8       1.0000 0.52360  0.85790  0.90890  Biso   1.000  H
  H9       1.0000 0.43920  0.89170  0.96560  Biso   1.000  H
  Nb10     1.0000 0.60101  0.60031  0.55461  Biso   1.000  Nb
  Cl19     1.0000 0.47285  0.74378  0.56822  Biso   1.000  Cl
  N13      1.0000 0.71180  0.70590  0.61350  Biso   1.000  N
  Nb11     1.0000 0.62477  0.39299  0.49601  Biso   1.000  Nb
  Cl20     1.0000 0.67676  0.69272  0.45662  Biso   1.000  Cl
  Nb12     1.0000 0.45200  0.43599  0.59113  Biso   1.000  Nb
  Cl21     1.0000 0.76537  0.49286  0.55895  Biso   1.000  Cl
  Cl22     1.0000 0.56079  0.54279  0.67169  Biso   1.000  Cl
  C16      1.0000 0.77930  0.74740  0.64580  Biso   1.000  C
  N14      1.0000 0.76060  0.28200  0.49170  Biso   1.000  N
  Cl23     1.0000 0.70176  0.44992  0.38721  Biso   1.000  Cl
  Cl24     1.0000 0.59085  0.29978  0.60345  Biso   1.000  Cl
  N15      1.0000 0.39880  0.36620  0.68810  Biso   1.000  N
  S10      1.0000 0.87418  0.80404  0.69265  Biso   1.000  S
  C17      1.0000 0.84080  0.23750  0.48400  Biso   1.000  C
  C18      1.0000 0.36420  0.32420  0.73480  Biso   1.000  C
  Cu4      1.0000 0.01976  0.73875  0.63537  Biso   1.000  Cu
  S11      1.0000 0.95543  0.17742  0.47174  Biso   1.000  S
  S12      1.0000 0.31592  0.26121  0.79988  Biso   1.000  S
  N16      1.0000 0.01650  0.58740  0.61640  Biso   1.000  N
  C19      1.0000 0.02910  0.50320  0.60220  Biso   1.000  C
  C20      1.0000 0.04340  0.39610  0.58330  Biso   1.000  C
  H10      1.0000 0.10280  0.36610  0.61150  Biso   1.000  H
  H11      1.0000 0.97640  0.35790  0.59110  Biso   1.000  H
  H12      1.0000 0.06080  0.39170  0.53440  Biso   1.000  H
