data_image0
_cell_length_a       9.638
_cell_length_b       20.5979
_cell_length_c       10.4207
_cell_angle_alpha    90
_cell_angle_beta     95.034
_cell_angle_gamma    90

_symmetry_space_group_name_H-M    "P 1"
_symmetry_int_tables_number       1

loop_
  _symmetry_equiv_pos_as_xyz
  'x, y, z'

loop_
  _atom_site_label
  _atom_site_occupancy
  _atom_site_fract_x
  _atom_site_fract_y
  _atom_site_fract_z
  _atom_site_thermal_displace_type
  _atom_site_B_iso_or_equiv
  _atom_site_type_symbol
  Zn1      1.0000 0.17007  0.30740  0.36014  Biso   1.000  Zn
  Zn2      1.0000 0.69379  0.45704  0.59123  Biso   1.000  Zn
  Zn3      1.0000 0.92422  0.42964  0.12006  Biso   1.000  Zn
  P1       1.0000 0.06112  0.29241  0.05967  Biso   1.000  P
  H1       1.0000 0.97100  0.24370  0.08000  Biso   1.000  H
  P2       1.0000 0.43148  0.39996  0.43668  Biso   1.000  P
  H2       1.0000 0.47500  0.41710  0.32600  Biso   1.000  H
  P3       1.0000 0.78878  0.49864  0.87175  Biso   1.000  P
  H3       1.0000 0.73200  0.55740  0.86800  Biso   1.000  H
  P4       1.0000 0.88514  0.38787  0.40393  Biso   1.000  P
  H4       1.0000 0.81000  0.33550  0.41500  Biso   1.000  H
  O1       1.0000 0.97760  0.35326  0.03650  Biso   1.000  O
  O2       1.0000 0.15970  0.29428  0.17830  Biso   1.000  O
  O3       1.0000 0.13340  0.27431  0.94189  Biso   1.000  O
  O4       1.0000 0.35580  0.33635  0.41890  Biso   1.000  O
  O5       1.0000 0.33790  0.45546  0.47220  Biso   1.000  O
  O6       1.0000 0.55740  0.39255  0.53300  Biso   1.000  O
  O7       1.0000 0.69890  0.45588  0.77826  Biso   1.000  O
  O8       1.0000 0.78320  0.47472  0.00785  Biso   1.000  O
  O9       1.0000 0.93410  0.50605  0.82964  Biso   1.000  O
  O10      1.0000 0.86380  0.43175  0.51850  Biso   1.000  O
  O11      1.0000 0.03600  0.36926  0.41130  Biso   1.000  O
  O12      1.0000 0.83030  0.41805  0.27770  Biso   1.000  O
  Zn4      1.0000 0.82993  0.80740  0.13986  Biso   1.000  Zn
  Zn5      1.0000 0.30621  0.95704  0.90877  Biso   1.000  Zn
  Zn6      1.0000 0.07578  0.92964  0.37994  Biso   1.000  Zn
  P5       1.0000 0.93888  0.79241  0.44033  Biso   1.000  P
  H5       1.0000 0.02900  0.74370  0.42000  Biso   1.000  H
  P6       1.0000 0.56852  0.89996  0.06332  Biso   1.000  P
  H6       1.0000 0.52500  0.91710  0.17400  Biso   1.000  H
  P7       1.0000 0.21122  0.99864  0.62825  Biso   1.000  P
  H7       1.0000 0.26800  0.05740  0.63200  Biso   1.000  H
  P8       1.0000 0.11486  0.88787  0.09607  Biso   1.000  P
  H8       1.0000 0.19000  0.83550  0.08500  Biso   1.000  H
  O13      1.0000 0.02240  0.85326  0.46350  Biso   1.000  O
  O14      1.0000 0.84030  0.79428  0.32170  Biso   1.000  O
  O15      1.0000 0.86660  0.77431  0.55811  Biso   1.000  O
  O16      1.0000 0.64420  0.83635  0.08110  Biso   1.000  O
  O17      1.0000 0.66210  0.95546  0.02780  Biso   1.000  O
  O18      1.0000 0.44260  0.89255  0.96700  Biso   1.000  O
  O19      1.0000 0.30110  0.95588  0.72174  Biso   1.000  O
  O20      1.0000 0.21680  0.97472  0.49215  Biso   1.000  O
  O21      1.0000 0.06590  0.00605  0.67036  Biso   1.000  O
  O22      1.0000 0.13620  0.93175  0.98150  Biso   1.000  O
  O23      1.0000 0.96400  0.86926  0.08870  Biso   1.000  O
  O24      1.0000 0.16970  0.91805  0.22230  Biso   1.000  O
  Zn7      1.0000 0.82993  0.69260  0.63986  Biso   1.000  Zn
  Zn8      1.0000 0.30621  0.54296  0.40877  Biso   1.000  Zn
  Zn9      1.0000 0.07578  0.57036  0.87994  Biso   1.000  Zn
  P9       1.0000 0.93888  0.70759  0.94033  Biso   1.000  P
  H9       1.0000 0.02900  0.75630  0.92000  Biso   1.000  H
  P10      1.0000 0.56852  0.60004  0.56332  Biso   1.000  P
  H10      1.0000 0.52500  0.58290  0.67400  Biso   1.000  H
  P11      1.0000 0.21122  0.50136  0.12825  Biso   1.000  P
  H11      1.0000 0.26800  0.44260  0.13200  Biso   1.000  H
  P12      1.0000 0.11486  0.61213  0.59607  Biso   1.000  P
  H12      1.0000 0.19000  0.66450  0.58500  Biso   1.000  H
  O25      1.0000 0.02240  0.64674  0.96350  Biso   1.000  O
  O26      1.0000 0.84030  0.70572  0.82170  Biso   1.000  O
  O27      1.0000 0.86660  0.72569  0.05811  Biso   1.000  O
  O28      1.0000 0.64420  0.66365  0.58110  Biso   1.000  O
  O29      1.0000 0.66210  0.54454  0.52780  Biso   1.000  O
  O30      1.0000 0.44260  0.60745  0.46700  Biso   1.000  O
  O31      1.0000 0.30110  0.54412  0.22174  Biso   1.000  O
  O32      1.0000 0.21680  0.52528  0.99215  Biso   1.000  O
  O33      1.0000 0.06590  0.49395  0.17036  Biso   1.000  O
  O34      1.0000 0.13620  0.56825  0.48150  Biso   1.000  O
  O35      1.0000 0.96400  0.63074  0.58870  Biso   1.000  O
  O36      1.0000 0.16970  0.58195  0.72230  Biso   1.000  O
  Zn10     1.0000 0.17007  0.19260  0.86014  Biso   1.000  Zn
  Zn11     1.0000 0.69379  0.04296  0.09123  Biso   1.000  Zn
  Zn12     1.0000 0.92422  0.07036  0.62006  Biso   1.000  Zn
  P13      1.0000 0.06112  0.20759  0.55967  Biso   1.000  P
  H13      1.0000 0.97100  0.25630  0.58000  Biso   1.000  H
  P14      1.0000 0.43148  0.10004  0.93668  Biso   1.000  P
  H14      1.0000 0.47500  0.08290  0.82600  Biso   1.000  H
  P15      1.0000 0.78878  0.00136  0.37175  Biso   1.000  P
  H15      1.0000 0.73200  0.94260  0.36800  Biso   1.000  H
  P16      1.0000 0.88514  0.11213  0.90393  Biso   1.000  P
  H16      1.0000 0.81000  0.16450  0.91500  Biso   1.000  H
  O37      1.0000 0.97760  0.14674  0.53650  Biso   1.000  O
  O38      1.0000 0.15970  0.20572  0.67830  Biso   1.000  O
  O39      1.0000 0.13340  0.22569  0.44189  Biso   1.000  O
  O40      1.0000 0.35580  0.16365  0.91890  Biso   1.000  O
  O41      1.0000 0.33790  0.04454  0.97220  Biso   1.000  O
  O42      1.0000 0.55740  0.10745  0.03300  Biso   1.000  O
  O43      1.0000 0.69890  0.04412  0.27826  Biso   1.000  O
  O44      1.0000 0.78320  0.02528  0.50785  Biso   1.000  O
  O45      1.0000 0.93410  0.99395  0.32964  Biso   1.000  O
  O46      1.0000 0.86380  0.06825  0.01850  Biso   1.000  O
  O47      1.0000 0.03600  0.13074  0.91130  Biso   1.000  O
  O48      1.0000 0.83030  0.08195  0.77770  Biso   1.000  O
