data_image0
_cell_length_a       7.7782
_cell_length_b       9.9174
_cell_length_c       12.7946
_cell_angle_alpha    99.559
_cell_angle_beta     94.03
_cell_angle_gamma    94.803

_symmetry_space_group_name_H-M    "P 1"
_symmetry_int_tables_number       1

loop_
  _symmetry_equiv_pos_as_xyz
  'x, y, z'

loop_
  _atom_site_label
  _atom_site_occupancy
  _atom_site_fract_x
  _atom_site_fract_y
  _atom_site_fract_z
  _atom_site_thermal_displace_type
  _atom_site_B_iso_or_equiv
  _atom_site_type_symbol
  Zn1      1.0000 0.06072  0.61808  0.13647  Biso   1.000  Zn
  Zn2      1.0000 0.45431  0.14424  0.12316  Biso   1.000  Zn
  Zn3      1.0000 0.77007  0.56377  0.50060  Biso   1.000  Zn
  P1       1.0000 0.07832  0.66381  0.39125  Biso   1.000  P
  H1       1.0000 0.22200  0.74800  0.43700  Biso   1.000  H
  P2       1.0000 0.23942  0.36886  0.04032  Biso   1.000  P
  H2       1.0000 0.38800  0.45200  0.05500  Biso   1.000  H
  P3       1.0000 0.51433  0.35205  0.34672  Biso   1.000  P
  H3       1.0000 0.43200  0.43800  0.29600  Biso   1.000  H
  P4       1.0000 0.25925  0.85431  0.04232  Biso   1.000  P
  H4       1.0000 0.10100  0.90300  0.03100  Biso   1.000  H
  O1       1.0000 0.04750  0.70200  0.28313  Biso   1.000  O
  O2       1.0000 0.93010  0.70400  0.45815  Biso   1.000  O
  O3       1.0000 0.11420  0.51620  0.38796  Biso   1.000  O
  O4       1.0000 0.16610  0.37070  0.92879  Biso   1.000  O
  O5       1.0000 0.27220  0.22570  0.05690  Biso   1.000  O
  O6       1.0000 0.12570  0.43220  0.12434  Biso   1.000  O
  O7       1.0000 0.69720  0.42050  0.38008  Biso   1.000  O
  O8       1.0000 0.41430  0.33620  0.44164  Biso   1.000  O
  O9       1.0000 0.52070  0.21770  0.27292  Biso   1.000  O
  O10      1.0000 0.23970  0.71660  0.07480  Biso   1.000  O
  O11      1.0000 0.37120  0.95720  0.12413  Biso   1.000  O
  O12      1.0000 0.31940  0.84690  0.93162  Biso   1.000  O
  Zn4      1.0000 0.93928  0.38192  0.86353  Biso   1.000  Zn
  Zn5      1.0000 0.54569  0.85576  0.87684  Biso   1.000  Zn
  Zn6      1.0000 0.22993  0.43623  0.49940  Biso   1.000  Zn
  P5       1.0000 0.92168  0.33619  0.60875  Biso   1.000  P
  H5       1.0000 0.77800  0.25200  0.56300  Biso   1.000  H
  P6       1.0000 0.76058  0.63114  0.95968  Biso   1.000  P
  H6       1.0000 0.61200  0.54800  0.94500  Biso   1.000  H
  P7       1.0000 0.48567  0.64795  0.65328  Biso   1.000  P
  H7       1.0000 0.56800  0.56200  0.70400  Biso   1.000  H
  P8       1.0000 0.74075  0.14569  0.95768  Biso   1.000  P
  H8       1.0000 0.89900  0.09700  0.96900  Biso   1.000  H
  O13      1.0000 0.95250  0.29800  0.71687  Biso   1.000  O
  O14      1.0000 0.06990  0.29600  0.54185  Biso   1.000  O
  O15      1.0000 0.88580  0.48380  0.61204  Biso   1.000  O
  O16      1.0000 0.83390  0.62930  0.07121  Biso   1.000  O
  O17      1.0000 0.72780  0.77430  0.94310  Biso   1.000  O
  O18      1.0000 0.87430  0.56780  0.87566  Biso   1.000  O
  O19      1.0000 0.30280  0.57950  0.61992  Biso   1.000  O
  O20      1.0000 0.58570  0.66380  0.55836  Biso   1.000  O
  O21      1.0000 0.47930  0.78230  0.72708  Biso   1.000  O
  O22      1.0000 0.76030  0.28340  0.92520  Biso   1.000  O
  O23      1.0000 0.62880  0.04280  0.87587  Biso   1.000  O
  O24      1.0000 0.68060  0.15310  0.06838  Biso   1.000  O
