data_OSILOS_charged
_audit_creation_date              2014-07-02
_audit_creation_method            'Materials Studio'
_symmetry_space_group_name_H-M    'P1'
_symmetry_Int_Tables_number       1
_symmetry_cell_setting            triclinic
loop_
_symmetry_equiv_pos_as_xyz
  x,y,z
_cell_length_a                    4.9950
_cell_length_b                    16.8757
_cell_length_c                    16.8757
_cell_angle_alpha                 88.7450
_cell_angle_beta                  81.4893
_cell_angle_gamma                 81.4893
loop_
_atom_site_label
_atom_site_type_symbol
_atom_site_fract_x
_atom_site_fract_y
_atom_site_fract_z
_atom_site_U_iso_or_equiv
_atom_site_adp_type
_atom_site_occupancy
Cu1    Cu    0.50000   0.00000  -0.00000   0.01267  Uiso   1.00
Cu2    Cu    0.00000   0.50000   0.50000   0.01267  Uiso   1.00
Cu3    Cu    0.50000   0.00000   0.50000   0.01267  Uiso   1.00
Cu4    Cu    0.50000   0.50000  -0.00000   0.01267  Uiso   1.00
H1     H     0.87570   0.27400   0.10400   0.01267  Uiso   1.00
H2     H     0.07380   0.28740   0.02520   0.01267  Uiso   1.00
H3     H     0.52680   0.16520   0.08380   0.01267  Uiso   1.00
H4     H     0.75370   0.22600   0.39600   0.01267  Uiso   1.00
H5     H     0.88640   0.21260   0.47480   0.01267  Uiso   1.00
H6     H     0.27580   0.33480   0.41620   0.01267  Uiso   1.00
H7     H     0.97970   0.89600   0.77400   0.01267  Uiso   1.00
H8     H     0.09900   0.97480   0.78740   0.01267  Uiso   1.00
H9     H     0.61060   0.91620   0.66520   0.01267  Uiso   1.00
H10    H     0.14970   0.60400   0.72600   0.01267  Uiso   1.00
H11    H     0.36120   0.52520   0.71260   0.01267  Uiso   1.00
H12    H     0.69200   0.58380   0.83480   0.01267  Uiso   1.00
H13    H     0.12430   0.72600   0.89600   0.01267  Uiso   1.00
H14    H     0.92620   0.71260   0.97480   0.01267  Uiso   1.00
H15    H     0.47320   0.83480   0.91620   0.01267  Uiso   1.00
H16    H     0.24630   0.77400   0.60400   0.01267  Uiso   1.00
H17    H     0.11360   0.78740   0.52520   0.01267  Uiso   1.00
H18    H     0.72420   0.66520   0.58380   0.01267  Uiso   1.00
H19    H     0.02030   0.10400   0.22600   0.01267  Uiso   1.00
H20    H     0.90100   0.02520   0.21260   0.01267  Uiso   1.00
H21    H     0.38940   0.08380   0.33480   0.01267  Uiso   1.00
H22    H     0.85030   0.39600   0.27400   0.01267  Uiso   1.00
H23    H     0.63880   0.47480   0.28740   0.01267  Uiso   1.00
H24    H     0.30800   0.41620   0.16520   0.01267  Uiso   1.00
C1     C     0.89110   0.27660   0.04600   0.01267  Uiso   1.00
C2     C     0.68250   0.34500   0.02260   0.01267  Uiso   1.00
C3     C     0.66470   0.15460   0.04040   0.01267  Uiso   1.00
C4     C     0.71370   0.22340   0.45400   0.01267  Uiso   1.00
C5     C     0.55010   0.15500   0.47740   0.01267  Uiso   1.00
C6     C     0.35970   0.34540   0.45960   0.01267  Uiso   1.00
C7     C     0.93710   0.95400   0.77660   0.01267  Uiso   1.00
C8     C     0.70510   0.97740   0.84500   0.01267  Uiso   1.00
C9     C     0.70510   0.95960   0.65460   0.01267  Uiso   1.00
C10    C     0.16770   0.54600   0.72340   0.01267  Uiso   1.00
C11    C     0.02750   0.52260   0.65500   0.01267  Uiso   1.00
C12    C     0.81930   0.54040   0.84540   0.01267  Uiso   1.00
C13    C     0.10890   0.72340   0.95400   0.01267  Uiso   1.00
C14    C     0.31750   0.65500   0.97740   0.01267  Uiso   1.00
C15    C     0.33530   0.84540   0.95960   0.01267  Uiso   1.00
C16    C     0.28630   0.77660   0.54600   0.01267  Uiso   1.00
C17    C     0.44990   0.84500   0.52260   0.01267  Uiso   1.00
C18    C     0.64030   0.65460   0.54040   0.01267  Uiso   1.00
C19    C     0.06290   0.04600   0.22340   0.01267  Uiso   1.00
C20    C     0.29490   0.02260   0.15500   0.01267  Uiso   1.00
C21    C     0.29490   0.04040   0.34540   0.01267  Uiso   1.00
C22    C     0.83230   0.45400   0.27660   0.01267  Uiso   1.00
C23    C     0.97250   0.47740   0.34500   0.01267  Uiso   1.00
C24    C     0.18070   0.45960   0.15460   0.01267  Uiso   1.00
N1     N     0.70320   0.09220   0.99340   0.01267  Uiso   1.00
N2     N     0.92560   0.09880   0.93960   0.01267  Uiso   1.00
N3     N     0.01740   0.16620   0.95480   0.01267  Uiso   1.00
N4     N     0.85340   0.20010   0.01590   0.01267  Uiso   1.00
N5     N     0.28880   0.40780   0.50660   0.01267  Uiso   1.00
N6     N     0.46400   0.40120   0.56040   0.01267  Uiso   1.00
N7     N     0.63840   0.33380   0.54520   0.01267  Uiso   1.00
N8     N     0.56940   0.29990   0.48410   0.01267  Uiso   1.00
N9     N     0.69660   0.00660   0.59220   0.01267  Uiso   1.00
N10    N     0.86520   0.06040   0.59880   0.01267  Uiso   1.00
N11    N     0.97220   0.04520   0.66620   0.01267  Uiso   1.00
N12    N     0.86930   0.98410   0.70010   0.01267  Uiso   1.00
N13    N     0.79540   0.49340   0.90780   0.01267  Uiso   1.00
N14    N     0.02440   0.43960   0.90120   0.01267  Uiso   1.00
N15    N     0.18360   0.45480   0.83380   0.01267  Uiso   1.00
N16    N     0.05350   0.51590   0.79990   0.01267  Uiso   1.00
N17    N     0.29680   0.90780   0.00660   0.01267  Uiso   1.00
N18    N     0.07440   0.90120   0.06040   0.01267  Uiso   1.00
N19    N     0.98260   0.83380   0.04520   0.01267  Uiso   1.00
N20    N     0.14660   0.79990   0.98410   0.01267  Uiso   1.00
N21    N     0.71120   0.59220   0.49340   0.01267  Uiso   1.00
N22    N     0.53600   0.59880   0.43960   0.01267  Uiso   1.00
N23    N     0.36160   0.66620   0.45480   0.01267  Uiso   1.00
N24    N     0.43060   0.70010   0.51590   0.01267  Uiso   1.00
N25    N     0.30340   0.99340   0.40780   0.01267  Uiso   1.00
N26    N     0.13480   0.93960   0.40120   0.01267  Uiso   1.00
N27    N     0.02780   0.95480   0.33380   0.01267  Uiso   1.00
N28    N     0.13070   0.01590   0.29990   0.01267  Uiso   1.00
N29    N     0.20460   0.50660   0.09220   0.01267  Uiso   1.00
N30    N     0.97560   0.56040   0.09880   0.01267  Uiso   1.00
N31    N     0.81640   0.54520   0.16620   0.01267  Uiso   1.00
N32    N     0.94650   0.48410   0.20010   0.01267  Uiso   1.00
O1     O     0.51890   0.33250   0.97850   0.01267  Uiso   1.00
O2     O     0.70140   0.41160   0.05120   0.01267  Uiso   1.00
O3     O     0.32990   0.16750   0.52150   0.01267  Uiso   1.00
O4     O     0.66420   0.08840   0.44880   0.01267  Uiso   1.00
O5     O     0.49740   0.02150   0.83250   0.01267  Uiso   1.00
O6     O     0.75260   0.94880   0.91160   0.01267  Uiso   1.00
O7     O     0.85140   0.47850   0.66750   0.01267  Uiso   1.00
O8     O     0.11300   0.55120   0.58840   0.01267  Uiso   1.00
O9     O     0.48110   0.66750   0.02150   0.01267  Uiso   1.00
O10    O     0.29860   0.58840   0.94880   0.01267  Uiso   1.00
O11    O     0.67010   0.83250   0.47850   0.01267  Uiso   1.00
O12    O     0.33580   0.91160   0.55120   0.01267  Uiso   1.00
O13    O     0.50260   0.97850   0.16750   0.01267  Uiso   1.00
O14    O     0.24740   0.05120   0.08840   0.01267  Uiso   1.00
O15    O     0.14860   0.52150   0.33250   0.01267  Uiso   1.00
O16    O     0.88700   0.44880   0.41160   0.01267  Uiso   1.00
Cl1    Cl    0.37500   0.25000   0.25000   0.01267  Uiso   1.00
O17    O     0.24600   0.26320   0.18320   0.01267  Uiso   1.00
O18    O     0.19240   0.23680   0.31680   0.01267  Uiso   1.00
O19    O     0.57080   0.18320   0.23680   0.01267  Uiso   1.00
O20    O     0.49080   0.31680   0.26320   0.01267  Uiso   1.00
Cl2    Cl    0.62500   0.75000   0.75000   0.01267  Uiso   1.00
O21    O     0.42920   0.81680   0.76320   0.01267  Uiso   1.00
O22    O     0.50920   0.68320   0.73680   0.01267  Uiso   1.00
O23    O     0.75400   0.73680   0.81680   0.01267  Uiso   1.00
O24    O     0.80760   0.76320   0.68320   0.01267  Uiso   1.00
