data_image0
_cell_length_a       11.6563
_cell_length_b       11.9318
_cell_length_c       21.3866
_cell_angle_alpha    90
_cell_angle_beta     90
_cell_angle_gamma    113.844

_symmetry_space_group_name_H-M    P 1
_symmetry_int_tables_number       1

loop_
  _symmetry_equiv_pos_as_xyz
  'x, y, z'

loop_
  _atom_site_label
  _atom_site_occupancy
  _atom_site_fract_x
  _atom_site_fract_y
  _atom_site_fract_z
  _atom_site_thermal_displace_type
  _atom_site_B_iso_or_equiv
  _atom_site_type_symbol
  Ag1      1.0000 0.46573  0.41206  0.81382  Biso   1.000  Ag
  Ag2      1.0000 0.65085  0.32355  0.94710  Biso   1.000  Ag
  Ag3      1.0000 0.55504  0.09894  0.81368  Biso   1.000  Ag
  Ag4      1.0000 0.35897  0.18155  0.94771  Biso   1.000  Ag
  Ag5      1.0000 0.03427  0.58794  0.31382  Biso   1.000  Ag
  Ag6      1.0000 0.84915  0.67645  0.44710  Biso   1.000  Ag
  Ag7      1.0000 0.94496  0.90106  0.31368  Biso   1.000  Ag
  Ag8      1.0000 0.14103  0.81845  0.44771  Biso   1.000  Ag
  Ag9      1.0000 0.53427  0.58794  0.18618  Biso   1.000  Ag
  Ag10     1.0000 0.34915  0.67645  0.05290  Biso   1.000  Ag
  Ag11     1.0000 0.44496  0.90106  0.18632  Biso   1.000  Ag
  Ag12     1.0000 0.64103  0.81845  0.05229  Biso   1.000  Ag
  Ag13     1.0000 0.96573  0.41206  0.68618  Biso   1.000  Ag
  Ag14     1.0000 0.15085  0.32355  0.55290  Biso   1.000  Ag
  Ag15     1.0000 0.05504  0.09894  0.68632  Biso   1.000  Ag
  Ag16     1.0000 0.85897  0.18155  0.55229  Biso   1.000  Ag
  H1       1.0000 0.70460  0.46130  0.71290  Biso   1.000  H
  H2       1.0000 0.86460  0.26730  0.87680  Biso   1.000  H
  H3       1.0000 0.95930  0.32090  0.82160  Biso   1.000  H
  H4       1.0000 0.05260  0.41180  0.91310  Biso   1.000  H
  H5       1.0000 0.94450  0.45510  0.92600  Biso   1.000  H
  H6       1.0000 0.03720  0.51130  0.87020  Biso   1.000  H
  H7       1.0000 0.63330  0.89710  0.90370  Biso   1.000  H
  H8       1.0000 0.64710  0.19080  0.07330  Biso   1.000  H
  H9       1.0000 0.64480  0.06740  0.09980  Biso   1.000  H
  H10      1.0000 0.83050  0.22610  0.12670  Biso   1.000  H
  H11      1.0000 0.86060  0.26050  0.05610  Biso   1.000  H
  H12      1.0000 0.85880  0.13670  0.08170  Biso   1.000  H
  H13      1.0000 0.31200  0.03970  0.71330  Biso   1.000  H
  H14      1.0000 0.15560  0.24060  0.87640  Biso   1.000  H
  H15      1.0000 0.06210  0.18980  0.82040  Biso   1.000  H
  H16      1.0000 0.96450  0.09720  0.91120  Biso   1.000  H
  H17      1.0000 0.97920  0.99760  0.86800  Biso   1.000  H
  H18      1.0000 0.07050  0.05130  0.92460  Biso   1.000  H
  H19      1.0000 0.39690  0.61580  0.90480  Biso   1.000  H
  H20      1.0000 0.31740  0.42170  0.09740  Biso   1.000  H
  H21      1.0000 0.32930  0.30350  0.07250  Biso   1.000  H
  H22      1.0000 0.13390  0.25520  0.10990  Biso   1.000  H
  H23      1.0000 0.11500  0.34890  0.06400  Biso   1.000  H
  H24      1.0000 0.12660  0.23130  0.03760  Biso   1.000  H
  H25      1.0000 0.79540  0.53870  0.21290  Biso   1.000  H
  H26      1.0000 0.63540  0.73270  0.37680  Biso   1.000  H
  H27      1.0000 0.54070  0.67910  0.32160  Biso   1.000  H
  H28      1.0000 0.44740  0.58820  0.41310  Biso   1.000  H
  H29      1.0000 0.55550  0.54490  0.42600  Biso   1.000  H
  H30      1.0000 0.46280  0.48870  0.37020  Biso   1.000  H
  H31      1.0000 0.86670  0.10290  0.40370  Biso   1.000  H
  H32      1.0000 0.85290  0.80920  0.57330  Biso   1.000  H
  H33      1.0000 0.85520  0.93260  0.59980  Biso   1.000  H
  H34      1.0000 0.66950  0.77390  0.62670  Biso   1.000  H
  H35      1.0000 0.63940  0.73950  0.55610  Biso   1.000  H
  H36      1.0000 0.64120  0.86330  0.58170  Biso   1.000  H
  H37      1.0000 0.18800  0.96030  0.21330  Biso   1.000  H
  H38      1.0000 0.34440  0.75940  0.37640  Biso   1.000  H
  H39      1.0000 0.43790  0.81020  0.32040  Biso   1.000  H
  H40      1.0000 0.53550  0.90280  0.41120  Biso   1.000  H
  H41      1.0000 0.52080  0.00240  0.36800  Biso   1.000  H
  H42      1.0000 0.42950  0.94870  0.42460  Biso   1.000  H
  H43      1.0000 0.10310  0.38420  0.40480  Biso   1.000  H
  H44      1.0000 0.18260  0.57830  0.59740  Biso   1.000  H
  H45      1.0000 0.17070  0.69650  0.57250  Biso   1.000  H
  H46      1.0000 0.36610  0.74480  0.60990  Biso   1.000  H
  H47      1.0000 0.38500  0.65110  0.56400  Biso   1.000  H
  H48      1.0000 0.37340  0.76870  0.53760  Biso   1.000  H
  H49      1.0000 0.29540  0.53870  0.28710  Biso   1.000  H
  H50      1.0000 0.13540  0.73270  0.12320  Biso   1.000  H
  H51      1.0000 0.04070  0.67910  0.17840  Biso   1.000  H
  H52      1.0000 0.94740  0.58820  0.08690  Biso   1.000  H
  H53      1.0000 0.05550  0.54490  0.07400  Biso   1.000  H
  H54      1.0000 0.96280  0.48870  0.12980  Biso   1.000  H
  H55      1.0000 0.36670  0.10290  0.09630  Biso   1.000  H
  H56      1.0000 0.35290  0.80920  0.92670  Biso   1.000  H
  H57      1.0000 0.35520  0.93260  0.90020  Biso   1.000  H
  H58      1.0000 0.16950  0.77390  0.87330  Biso   1.000  H
  H59      1.0000 0.13940  0.73950  0.94390  Biso   1.000  H
  H60      1.0000 0.14120  0.86330  0.91830  Biso   1.000  H
  H61      1.0000 0.68800  0.96030  0.28670  Biso   1.000  H
  H62      1.0000 0.84440  0.75940  0.12360  Biso   1.000  H
  H63      1.0000 0.93790  0.81020  0.17960  Biso   1.000  H
  H64      1.0000 0.03550  0.90280  0.08880  Biso   1.000  H
  H65      1.0000 0.02080  0.00240  0.13200  Biso   1.000  H
  H66      1.0000 0.92950  0.94870  0.07540  Biso   1.000  H
  H67      1.0000 0.60310  0.38420  0.09520  Biso   1.000  H
  H68      1.0000 0.68260  0.57830  0.90260  Biso   1.000  H
  H69      1.0000 0.67070  0.69650  0.92750  Biso   1.000  H
  H70      1.0000 0.86610  0.74480  0.89010  Biso   1.000  H
  H71      1.0000 0.88500  0.65110  0.93600  Biso   1.000  H
  H72      1.0000 0.87340  0.76870  0.96240  Biso   1.000  H
  H73      1.0000 0.20460  0.46130  0.78710  Biso   1.000  H
  H74      1.0000 0.36460  0.26730  0.62320  Biso   1.000  H
  H75      1.0000 0.45930  0.32090  0.67840  Biso   1.000  H
  H76      1.0000 0.55260  0.41180  0.58690  Biso   1.000  H
  H77      1.0000 0.44450  0.45510  0.57400  Biso   1.000  H
  H78      1.0000 0.53720  0.51130  0.62980  Biso   1.000  H
  H79      1.0000 0.13330  0.89710  0.59630  Biso   1.000  H
  H80      1.0000 0.14710  0.19080  0.42670  Biso   1.000  H
  H81      1.0000 0.14480  0.06740  0.40020  Biso   1.000  H
  H82      1.0000 0.33050  0.22610  0.37330  Biso   1.000  H
  H83      1.0000 0.36060  0.26050  0.44390  Biso   1.000  H
  H84      1.0000 0.35880  0.13670  0.41830  Biso   1.000  H
  H85      1.0000 0.81200  0.03970  0.78670  Biso   1.000  H
  H86      1.0000 0.65560  0.24060  0.62360  Biso   1.000  H
  H87      1.0000 0.56210  0.18980  0.67960  Biso   1.000  H
  H88      1.0000 0.46450  0.09720  0.58880  Biso   1.000  H
  H89      1.0000 0.47920  0.99760  0.63200  Biso   1.000  H
  H90      1.0000 0.57050  0.05130  0.57540  Biso   1.000  H
  H91      1.0000 0.89690  0.61580  0.59520  Biso   1.000  H
  H92      1.0000 0.81740  0.42170  0.40260  Biso   1.000  H
  H93      1.0000 0.82930  0.30350  0.42750  Biso   1.000  H
  H94      1.0000 0.63390  0.25520  0.39010  Biso   1.000  H
  H95      1.0000 0.61500  0.34890  0.43600  Biso   1.000  H
  H96      1.0000 0.62660  0.23130  0.46240  Biso   1.000  H
  C1       1.0000 0.81470  0.37430  0.81855  Biso   1.000  C
  C2       1.0000 0.72320  0.43250  0.75034  Biso   1.000  C
  C3       1.0000 0.90880  0.34040  0.85220  Biso   1.000  C
  C4       1.0000 0.99320  0.43830  0.89410  Biso   1.000  C
  C5       1.0000 0.66220  0.07880  0.00518  Biso   1.000  C
  C6       1.0000 0.63950  0.96360  0.92830  Biso   1.000  C
  C7       1.0000 0.68510  0.13230  0.06967  Biso   1.000  C
  C8       1.0000 0.82070  0.19440  0.08490  Biso   1.000  C
  C9       1.0000 0.20390  0.13300  0.81814  Biso   1.000  C
  C10      1.0000 0.29430  0.07030  0.75038  Biso   1.000  C
  C11      1.0000 0.11090  0.16830  0.85123  Biso   1.000  C
  C12      1.0000 0.02340  0.06980  0.89240  Biso   1.000  C
  C13      1.0000 0.33390  0.42090  0.00318  Biso   1.000  C
  C14      1.0000 0.38090  0.54550  0.92832  Biso   1.000  C
  C15      1.0000 0.28990  0.35990  0.06490  Biso   1.000  C
  C16      1.0000 0.15490  0.29320  0.06950  Biso   1.000  C
  C17      1.0000 0.68530  0.62570  0.31855  Biso   1.000  C
  C18      1.0000 0.77680  0.56750  0.25034  Biso   1.000  C
  C19      1.0000 0.59120  0.65960  0.35220  Biso   1.000  C
  C20      1.0000 0.50680  0.56170  0.39410  Biso   1.000  C
  C21      1.0000 0.83780  0.92120  0.50518  Biso   1.000  C
  C22      1.0000 0.86050  0.03640  0.42830  Biso   1.000  C
  C23      1.0000 0.81490  0.86770  0.56967  Biso   1.000  C
  C24      1.0000 0.67930  0.80560  0.58490  Biso   1.000  C
  C25      1.0000 0.29610  0.86700  0.31814  Biso   1.000  C
  C26      1.0000 0.20570  0.92970  0.25038  Biso   1.000  C
  C27      1.0000 0.38910  0.83170  0.35123  Biso   1.000  C
  C28      1.0000 0.47660  0.93020  0.39240  Biso   1.000  C
  C29      1.0000 0.16610  0.57910  0.50318  Biso   1.000  C
  C30      1.0000 0.11910  0.45450  0.42832  Biso   1.000  C
  C31      1.0000 0.21010  0.64010  0.56490  Biso   1.000  C
  C32      1.0000 0.34510  0.70680  0.56950  Biso   1.000  C
  C33      1.0000 0.18530  0.62570  0.18145  Biso   1.000  C
  C34      1.0000 0.27680  0.56750  0.24966  Biso   1.000  C
  C35      1.0000 0.09120  0.65960  0.14780  Biso   1.000  C
  C36      1.0000 0.00680  0.56170  0.10590  Biso   1.000  C
  C37      1.0000 0.33780  0.92120  0.99482  Biso   1.000  C
  C38      1.0000 0.36050  0.03640  0.07170  Biso   1.000  C
  C39      1.0000 0.31490  0.86770  0.93033  Biso   1.000  C
  C40      1.0000 0.17930  0.80560  0.91510  Biso   1.000  C
  C41      1.0000 0.79610  0.86700  0.18186  Biso   1.000  C
  C42      1.0000 0.70570  0.92970  0.24962  Biso   1.000  C
  C43      1.0000 0.88910  0.83170  0.14877  Biso   1.000  C
  C44      1.0000 0.97660  0.93020  0.10760  Biso   1.000  C
  C45      1.0000 0.66610  0.57910  0.99682  Biso   1.000  C
  C46      1.0000 0.61910  0.45450  0.07168  Biso   1.000  C
  C47      1.0000 0.71010  0.64010  0.93510  Biso   1.000  C
  C48      1.0000 0.84510  0.70680  0.93050  Biso   1.000  C
  C49      1.0000 0.31470  0.37430  0.68145  Biso   1.000  C
  C50      1.0000 0.22320  0.43250  0.74966  Biso   1.000  C
  C51      1.0000 0.40880  0.34040  0.64780  Biso   1.000  C
  C52      1.0000 0.49320  0.43830  0.60590  Biso   1.000  C
  C53      1.0000 0.16220  0.07880  0.49482  Biso   1.000  C
  C54      1.0000 0.13950  0.96360  0.57170  Biso   1.000  C
  C55      1.0000 0.18510  0.13230  0.43033  Biso   1.000  C
  C56      1.0000 0.32070  0.19440  0.41510  Biso   1.000  C
  C57      1.0000 0.70390  0.13300  0.68186  Biso   1.000  C
  C58      1.0000 0.79430  0.07030  0.74962  Biso   1.000  C
  C59      1.0000 0.61090  0.16830  0.64877  Biso   1.000  C
  C60      1.0000 0.52340  0.06980  0.60760  Biso   1.000  C
  C61      1.0000 0.83390  0.42090  0.49682  Biso   1.000  C
  C62      1.0000 0.88090  0.54550  0.57168  Biso   1.000  C
  C63      1.0000 0.78990  0.35990  0.43510  Biso   1.000  C
  C64      1.0000 0.65490  0.29320  0.43050  Biso   1.000  C
  N1       1.0000 0.70850  0.36660  0.84431  Biso   1.000  N
  N2       1.0000 0.64860  0.40550  0.79928  Biso   1.000  N
  N3       1.0000 0.82880  0.41480  0.75936  Biso   1.000  N
  N4       1.0000 0.64600  0.13790  0.95628  Biso   1.000  N
  N5       1.0000 0.63040  0.06170  0.90557  Biso   1.000  N
  N6       1.0000 0.65860  0.96800  0.99025  Biso   1.000  N
  N7       1.0000 0.31040  0.14040  0.84373  Biso   1.000  N
  N8       1.0000 0.36940  0.09880  0.79892  Biso   1.000  N
  N9       1.0000 0.18910  0.08970  0.75909  Biso   1.000  N
  N10      1.0000 0.36060  0.36590  0.95502  Biso   1.000  N
  N11      1.0000 0.39160  0.44800  0.90615  Biso   1.000  N
  N12      1.0000 0.34430  0.53410  0.98867  Biso   1.000  N
  N13      1.0000 0.79150  0.63340  0.34431  Biso   1.000  N
  N14      1.0000 0.85140  0.59450  0.29928  Biso   1.000  N
  N15      1.0000 0.67120  0.58520  0.25936  Biso   1.000  N
  N16      1.0000 0.85400  0.86210  0.45628  Biso   1.000  N
  N17      1.0000 0.86960  0.93830  0.40557  Biso   1.000  N
  N18      1.0000 0.84140  0.03200  0.49025  Biso   1.000  N
  N19      1.0000 0.18960  0.85960  0.34373  Biso   1.000  N
  N20      1.0000 0.13060  0.90120  0.29892  Biso   1.000  N
  N21      1.0000 0.31090  0.91030  0.25909  Biso   1.000  N
  N22      1.0000 0.13940  0.63410  0.45502  Biso   1.000  N
  N23      1.0000 0.10840  0.55200  0.40615  Biso   1.000  N
  N24      1.0000 0.15570  0.46590  0.48867  Biso   1.000  N
  N25      1.0000 0.29150  0.63340  0.15569  Biso   1.000  N
  N26      1.0000 0.35140  0.59450  0.20072  Biso   1.000  N
  N27      1.0000 0.17120  0.58520  0.24064  Biso   1.000  N
  N28      1.0000 0.35400  0.86210  0.04372  Biso   1.000  N
  N29      1.0000 0.36960  0.93830  0.09443  Biso   1.000  N
  N30      1.0000 0.34140  0.03200  0.00975  Biso   1.000  N
  N31      1.0000 0.68960  0.85960  0.15627  Biso   1.000  N
  N32      1.0000 0.63060  0.90120  0.20108  Biso   1.000  N
  N33      1.0000 0.81090  0.91030  0.24091  Biso   1.000  N
  N34      1.0000 0.63940  0.63410  0.04498  Biso   1.000  N
  N35      1.0000 0.60840  0.55200  0.09385  Biso   1.000  N
  N36      1.0000 0.65570  0.46590  0.01133  Biso   1.000  N
  N37      1.0000 0.20850  0.36660  0.65569  Biso   1.000  N
  N38      1.0000 0.14860  0.40550  0.70072  Biso   1.000  N
  N39      1.0000 0.32880  0.41480  0.74064  Biso   1.000  N
  N40      1.0000 0.14600  0.13790  0.54372  Biso   1.000  N
  N41      1.0000 0.13040  0.06170  0.59443  Biso   1.000  N
  N42      1.0000 0.15860  0.96800  0.50975  Biso   1.000  N
  N43      1.0000 0.81040  0.14040  0.65627  Biso   1.000  N
  N44      1.0000 0.86940  0.09880  0.70108  Biso   1.000  N
  N45      1.0000 0.68910  0.08970  0.74091  Biso   1.000  N
  N46      1.0000 0.86060  0.36590  0.54498  Biso   1.000  N
  N47      1.0000 0.89160  0.44800  0.59385  Biso   1.000  N
  N48      1.0000 0.84430  0.53410  0.51133  Biso   1.000  N
