data_image0
_cell_length_a       11.7302
_cell_length_b       11.9026
_cell_length_c       12.5335
_cell_angle_alpha    106.769
_cell_angle_beta     106.195
_cell_angle_gamma    113.462

_symmetry_space_group_name_H-M    P 1
_symmetry_int_tables_number       1

loop_
  _symmetry_equiv_pos_as_xyz
  'x, y, z'

loop_
  _atom_site_label
  _atom_site_occupancy
  _atom_site_fract_x
  _atom_site_fract_y
  _atom_site_fract_z
  _atom_site_thermal_displace_type
  _atom_site_B_iso_or_equiv
  _atom_site_type_symbol
  Ag1      1.0000 0.40852  0.23169  0.60612  Biso   1.000  Ag
  Ag2      1.0000 0.73222  0.27957  0.87468  Biso   1.000  Ag
  Ag3      1.0000 0.69760  0.37443  0.60612  Biso   1.000  Ag
  Ag4      1.0000 0.64246  0.59511  0.87468  Biso   1.000  Ag
  Ag5      1.0000 0.59148  0.76831  0.39388  Biso   1.000  Ag
  Ag6      1.0000 0.26778  0.72043  0.12532  Biso   1.000  Ag
  Ag7      1.0000 0.30240  0.62557  0.39388  Biso   1.000  Ag
  Ag8      1.0000 0.35754  0.40489  0.12532  Biso   1.000  Ag
  H1       1.0000 0.59170  0.32610  0.07320  Biso   1.000  H
  H2       1.0000 0.26940  0.35620  0.74320  Biso   1.000  H
  H3       1.0000 0.23400  0.36590  0.85580  Biso   1.000  H
  H4       1.0000 0.04730  0.18010  0.67560  Biso   1.000  H
  H5       1.0000 0.13940  0.11840  0.65440  Biso   1.000  H
  H6       1.0000 0.10390  0.12810  0.76720  Biso   1.000  H
  H7       1.0000 0.47920  0.70700  0.69320  Biso   1.000  H
  H8       1.0000 0.23880  0.32860  0.30400  Biso   1.000  H
  H9       1.0000 0.27240  0.23470  0.35600  Biso   1.000  H
  H10      1.0000 0.03650  0.14570  0.26740  Biso   1.000  H
  H11      1.0000 0.05830  0.28270  0.35840  Biso   1.000  H
  H12      1.0000 0.09200  0.18890  0.41060  Biso   1.000  H
  H13      1.0000 0.98150  0.74710  0.07320  Biso   1.000  H
  H14      1.0000 0.97380  0.38700  0.74320  Biso   1.000  H
  H15      1.0000 0.12180  0.48990  0.85580  Biso   1.000  H
  H16      1.0000 0.12830  0.49550  0.67560  Biso   1.000  H
  H17      1.0000 0.01500  0.53600  0.65440  Biso   1.000  H
  H18      1.0000 0.16330  0.63910  0.76720  Biso   1.000  H
  H19      1.0000 0.71400  0.98620  0.69320  Biso   1.000  H
  H20      1.0000 0.56520  0.97540  0.30400  Biso   1.000  H
  H21      1.0000 0.58360  0.12130  0.35600  Biso   1.000  H
  H22      1.0000 0.73090  0.12170  0.26740  Biso   1.000  H
  H23      1.0000 0.80010  0.07570  0.35840  Biso   1.000  H
  H24      1.0000 0.81860  0.22170  0.41060  Biso   1.000  H
  H25      1.0000 0.40830  0.67390  0.92680  Biso   1.000  H
  H26      1.0000 0.73060  0.64380  0.25680  Biso   1.000  H
  H27      1.0000 0.76600  0.63410  0.14420  Biso   1.000  H
  H28      1.0000 0.95270  0.81990  0.32440  Biso   1.000  H
  H29      1.0000 0.86060  0.88160  0.34560  Biso   1.000  H
  H30      1.0000 0.89610  0.87190  0.23280  Biso   1.000  H
  H31      1.0000 0.52080  0.29300  0.30680  Biso   1.000  H
  H32      1.0000 0.76120  0.67140  0.69600  Biso   1.000  H
  H33      1.0000 0.72760  0.76530  0.64400  Biso   1.000  H
  H34      1.0000 0.96350  0.85430  0.73260  Biso   1.000  H
  H35      1.0000 0.94170  0.71730  0.64160  Biso   1.000  H
  H36      1.0000 0.90800  0.81110  0.58940  Biso   1.000  H
  H37      1.0000 0.01850  0.25290  0.92680  Biso   1.000  H
  H38      1.0000 0.02620  0.61300  0.25680  Biso   1.000  H
  H39      1.0000 0.87820  0.51010  0.14420  Biso   1.000  H
  H40      1.0000 0.87170  0.50450  0.32440  Biso   1.000  H
  H41      1.0000 0.98500  0.46400  0.34560  Biso   1.000  H
  H42      1.0000 0.83670  0.36090  0.23280  Biso   1.000  H
  H43      1.0000 0.28600  0.01380  0.30680  Biso   1.000  H
  H44      1.0000 0.43480  0.02460  0.69600  Biso   1.000  H
  H45      1.0000 0.41640  0.87870  0.64400  Biso   1.000  H
  H46      1.0000 0.26910  0.87830  0.73260  Biso   1.000  H
  H47      1.0000 0.19990  0.92430  0.64160  Biso   1.000  H
  H48      1.0000 0.18140  0.77830  0.58940  Biso   1.000  H
  C1       1.0000 0.37840  0.31220  0.86340  Biso   1.000  C
  C2       1.0000 0.53639  0.31849  0.99878  Biso   1.000  C
  C3       1.0000 0.25150  0.31180  0.79540  Biso   1.000  C
  C4       1.0000 0.12420  0.17220  0.71620  Biso   1.000  C
  C5       1.0000 0.33341  0.41761  0.49302  Biso   1.000  C
  C6       1.0000 0.44414  0.61434  0.64508  Biso   1.000  C
  C7       1.0000 0.23820  0.29710  0.36720  Biso   1.000  C
  C8       1.0000 0.09350  0.22200  0.34940  Biso   1.000  C
  C9       1.0000 0.98500  0.55120  0.86340  Biso   1.000  C
  C10      1.0000 0.96239  0.68029  0.99878  Biso   1.000  C
  C11      1.0000 0.04390  0.48360  0.79540  Biso   1.000  C
  C12      1.0000 0.09200  0.54400  0.71620  Biso   1.000  C
  C13      1.0000 0.65961  0.07541  0.49302  Biso   1.000  C
  C14      1.0000 0.70094  0.03074  0.64508  Biso   1.000  C
  C15      1.0000 0.62900  0.07010  0.36720  Biso   1.000  C
  C16      1.0000 0.75590  0.12740  0.34940  Biso   1.000  C
  C17      1.0000 0.62160  0.68780  0.13660  Biso   1.000  C
  C18      1.0000 0.46361  0.68151  0.00122  Biso   1.000  C
  C19      1.0000 0.74850  0.68820  0.20460  Biso   1.000  C
  C20      1.0000 0.87580  0.82780  0.28380  Biso   1.000  C
  C21      1.0000 0.66659  0.58239  0.50698  Biso   1.000  C
  C22      1.0000 0.55586  0.38566  0.35492  Biso   1.000  C
  C23      1.0000 0.76180  0.70290  0.63280  Biso   1.000  C
  C24      1.0000 0.90650  0.77800  0.65060  Biso   1.000  C
  C25      1.0000 0.01500  0.44880  0.13660  Biso   1.000  C
  C26      1.0000 0.03761  0.31971  0.00122  Biso   1.000  C
  C27      1.0000 0.95610  0.51640  0.20460  Biso   1.000  C
  C28      1.0000 0.90800  0.45600  0.28380  Biso   1.000  C
  C29      1.0000 0.34039  0.92459  0.50698  Biso   1.000  C
  C30      1.0000 0.29906  0.96926  0.35492  Biso   1.000  C
  C31      1.0000 0.37100  0.92990  0.63280  Biso   1.000  C
  C32      1.0000 0.24410  0.87260  0.65060  Biso   1.000  C
  N1       1.0000 0.45849  0.29299  0.81218  Biso   1.000  N
  N2       1.0000 0.56217  0.29747  0.90194  Biso   1.000  N
  N3       1.0000 0.42274  0.32834  0.98088  Biso   1.000  N
  N4       1.0000 0.40351  0.40971  0.59022  Biso   1.000  N
  N5       1.0000 0.47662  0.53872  0.68984  Biso   1.000  N
  N6       1.0000 0.35500  0.54490  0.52220  Biso   1.000  N
  N7       1.0000 0.85369  0.51919  0.81218  Biso   1.000  N
  N8       1.0000 0.83977  0.60447  0.90194  Biso   1.000  N
  N9       1.0000 0.05814  0.65254  0.98088  Biso   1.000  N
  N10      1.0000 0.68671  0.18051  0.59022  Biso   1.000  N
  N11      1.0000 0.71322  0.15112  0.68984  Biso   1.000  N
  N12      1.0000 0.66720  0.97730  0.52220  Biso   1.000  N
  N13      1.0000 0.54151  0.70701  0.18782  Biso   1.000  N
  N14      1.0000 0.43783  0.70253  0.09806  Biso   1.000  N
  N15      1.0000 0.57726  0.67166  0.01912  Biso   1.000  N
  N16      1.0000 0.59649  0.59029  0.40978  Biso   1.000  N
  N17      1.0000 0.52338  0.46128  0.31016  Biso   1.000  N
  N18      1.0000 0.64500  0.45510  0.47780  Biso   1.000  N
  N19      1.0000 0.14631  0.48081  0.18782  Biso   1.000  N
  N20      1.0000 0.16023  0.39553  0.09806  Biso   1.000  N
  N21      1.0000 0.94186  0.34746  0.01912  Biso   1.000  N
  N22      1.0000 0.31329  0.81949  0.40978  Biso   1.000  N
  N23      1.0000 0.28678  0.84888  0.31016  Biso   1.000  N
  N24      1.0000 0.33280  0.02270  0.47780  Biso   1.000  N
