data_image0
_cell_length_a       10.0546
_cell_length_b       17.7412
_cell_length_c       19.8116
_cell_angle_alpha    90
_cell_angle_beta     90
_cell_angle_gamma    90

_symmetry_space_group_name_H-M    P 1
_symmetry_int_tables_number       1

loop_
  _symmetry_equiv_pos_as_xyz
  'x, y, z'

loop_
  _atom_site_label
  _atom_site_occupancy
  _atom_site_fract_x
  _atom_site_fract_y
  _atom_site_fract_z
  _atom_site_thermal_displace_type
  _atom_site_B_iso_or_equiv
  _atom_site_type_symbol
  Eu1      1.0000 0.53159  0.75000  0.75000  Biso   1.000  Eu
  Eu2      1.0000 0.96841  0.25000  0.25000  Biso   1.000  Eu
  Eu3      1.0000 0.46841  0.25000  0.25000  Biso   1.000  Eu
  Eu4      1.0000 0.03159  0.75000  0.75000  Biso   1.000  Eu
  H1       1.0000 0.67160  0.88570  0.07210  Biso   1.000  H
  H2       1.0000 0.62520  0.86350  0.95890  Biso   1.000  H
  H3       1.0000 0.97330  0.75550  0.94110  Biso   1.000  H
  H4       1.0000 0.01200  0.77250  0.05490  Biso   1.000  H
  H5       1.0000 0.86430  0.84080  0.11920  Biso   1.000  H
  H6       1.0000 0.44870  0.93860  0.68490  Biso   1.000  H
  H7       1.0000 0.76180  0.87080  0.58250  Biso   1.000  H
  H8       1.0000 0.69510  0.93880  0.49080  Biso   1.000  H
  H9       1.0000 0.37510  0.00530  0.59320  Biso   1.000  H
  H10      1.0000 0.34200  0.86800  0.78610  Biso   1.000  H
  H11      1.0000 0.44700  0.89600  0.81570  Biso   1.000  H
  H12      1.0000 0.67160  0.61430  0.42790  Biso   1.000  H
  H13      1.0000 0.62520  0.63650  0.54110  Biso   1.000  H
  H14      1.0000 0.97330  0.74450  0.55890  Biso   1.000  H
  H15      1.0000 0.01200  0.72750  0.44510  Biso   1.000  H
  H16      1.0000 0.86430  0.65920  0.38080  Biso   1.000  H
  H17      1.0000 0.44870  0.56140  0.81510  Biso   1.000  H
  H18      1.0000 0.76180  0.62920  0.91750  Biso   1.000  H
  H19      1.0000 0.69510  0.56120  0.00920  Biso   1.000  H
  H20      1.0000 0.37510  0.49470  0.90680  Biso   1.000  H
  H21      1.0000 0.34200  0.63200  0.71390  Biso   1.000  H
  H22      1.0000 0.44700  0.60400  0.68430  Biso   1.000  H
  H23      1.0000 0.82840  0.11430  0.57210  Biso   1.000  H
  H24      1.0000 0.87480  0.13650  0.45890  Biso   1.000  H
  H25      1.0000 0.52670  0.24450  0.44110  Biso   1.000  H
  H26      1.0000 0.48800  0.22750  0.55490  Biso   1.000  H
  H27      1.0000 0.63570  0.15920  0.61920  Biso   1.000  H
  H28      1.0000 0.05130  0.06140  0.18490  Biso   1.000  H
  H29      1.0000 0.73820  0.12920  0.08250  Biso   1.000  H
  H30      1.0000 0.80490  0.06120  0.99080  Biso   1.000  H
  H31      1.0000 0.12490  0.99470  0.09320  Biso   1.000  H
  H32      1.0000 0.15800  0.13200  0.28610  Biso   1.000  H
  H33      1.0000 0.05300  0.10400  0.31570  Biso   1.000  H
  H34      1.0000 0.82840  0.38570  0.92790  Biso   1.000  H
  H35      1.0000 0.87480  0.36350  0.04110  Biso   1.000  H
  H36      1.0000 0.52670  0.25550  0.05890  Biso   1.000  H
  H37      1.0000 0.48800  0.27250  0.94510  Biso   1.000  H
  H38      1.0000 0.63570  0.34080  0.88080  Biso   1.000  H
  H39      1.0000 0.05130  0.43860  0.31510  Biso   1.000  H
  H40      1.0000 0.73820  0.37080  0.41750  Biso   1.000  H
  H41      1.0000 0.80490  0.43880  0.50920  Biso   1.000  H
  H42      1.0000 0.12490  0.50530  0.40680  Biso   1.000  H
  H43      1.0000 0.15800  0.36800  0.21390  Biso   1.000  H
  H44      1.0000 0.05300  0.39600  0.18430  Biso   1.000  H
  H45      1.0000 0.32840  0.11430  0.92790  Biso   1.000  H
  H46      1.0000 0.37480  0.13650  0.04110  Biso   1.000  H
  H47      1.0000 0.02670  0.24450  0.05890  Biso   1.000  H
  H48      1.0000 0.98800  0.22750  0.94510  Biso   1.000  H
  H49      1.0000 0.13570  0.15920  0.88080  Biso   1.000  H
  H50      1.0000 0.55130  0.06140  0.31510  Biso   1.000  H
  H51      1.0000 0.23820  0.12920  0.41750  Biso   1.000  H
  H52      1.0000 0.30490  0.06120  0.50920  Biso   1.000  H
  H53      1.0000 0.62490  0.99470  0.40680  Biso   1.000  H
  H54      1.0000 0.65800  0.13200  0.21390  Biso   1.000  H
  H55      1.0000 0.55300  0.10400  0.18430  Biso   1.000  H
  H56      1.0000 0.32840  0.38570  0.57210  Biso   1.000  H
  H57      1.0000 0.37480  0.36350  0.45890  Biso   1.000  H
  H58      1.0000 0.02670  0.25550  0.44110  Biso   1.000  H
  H59      1.0000 0.98800  0.27250  0.55490  Biso   1.000  H
  H60      1.0000 0.13570  0.34080  0.61920  Biso   1.000  H
  H61      1.0000 0.55130  0.43860  0.18490  Biso   1.000  H
  H62      1.0000 0.23820  0.37080  0.08250  Biso   1.000  H
  H63      1.0000 0.30490  0.43880  0.99080  Biso   1.000  H
  H64      1.0000 0.62490  0.50530  0.09320  Biso   1.000  H
  H65      1.0000 0.65800  0.36800  0.28610  Biso   1.000  H
  H66      1.0000 0.55300  0.39600  0.31570  Biso   1.000  H
  H67      1.0000 0.17160  0.88570  0.42790  Biso   1.000  H
  H68      1.0000 0.12520  0.86350  0.54110  Biso   1.000  H
  H69      1.0000 0.47330  0.75550  0.55890  Biso   1.000  H
  H70      1.0000 0.51200  0.77250  0.44510  Biso   1.000  H
  H71      1.0000 0.36430  0.84080  0.38080  Biso   1.000  H
  H72      1.0000 0.94870  0.93860  0.81510  Biso   1.000  H
  H73      1.0000 0.26180  0.87080  0.91750  Biso   1.000  H
  H74      1.0000 0.19510  0.93880  0.00920  Biso   1.000  H
  H75      1.0000 0.87510  0.00530  0.90680  Biso   1.000  H
  H76      1.0000 0.84200  0.86800  0.71390  Biso   1.000  H
  H77      1.0000 0.94700  0.89600  0.68430  Biso   1.000  H
  H78      1.0000 0.17160  0.61430  0.07210  Biso   1.000  H
  H79      1.0000 0.12520  0.63650  0.95890  Biso   1.000  H
  H80      1.0000 0.47330  0.74450  0.94110  Biso   1.000  H
  H81      1.0000 0.51200  0.72750  0.05490  Biso   1.000  H
  H82      1.0000 0.36430  0.65920  0.11920  Biso   1.000  H
  H83      1.0000 0.94870  0.56140  0.68490  Biso   1.000  H
  H84      1.0000 0.26180  0.62920  0.58250  Biso   1.000  H
  H85      1.0000 0.19510  0.56120  0.49080  Biso   1.000  H
  H86      1.0000 0.87510  0.49470  0.59320  Biso   1.000  H
  H87      1.0000 0.84200  0.63200  0.78610  Biso   1.000  H
  H88      1.0000 0.94700  0.60400  0.81570  Biso   1.000  H
  C1       1.0000 0.77200  0.79573  0.86410  Biso   1.000  C
  C2       1.0000 0.79360  0.80770  0.93820  Biso   1.000  C
  C3       1.0000 0.73170  0.85880  0.04570  Biso   1.000  C
  C4       1.0000 0.70420  0.84600  0.97759  Biso   1.000  C
  C5       1.0000 0.91120  0.78090  0.96745  Biso   1.000  C
  C6       1.0000 0.93540  0.79210  0.03530  Biso   1.000  C
  C7       1.0000 0.84640  0.83200  0.07380  Biso   1.000  C
  C8       1.0000 0.52390  0.97897  0.52980  Biso   1.000  C
  C9       1.0000 0.49710  0.93760  0.64488  Biso   1.000  C
  C10      1.0000 0.68260  0.89790  0.58429  Biso   1.000  C
  C11      1.0000 0.64230  0.93840  0.52931  Biso   1.000  C
  C12      1.0000 0.45380  0.97790  0.58992  Biso   1.000  C
  C13      1.0000 0.77200  0.70427  0.63590  Biso   1.000  C
  C14      1.0000 0.79360  0.69230  0.56180  Biso   1.000  C
  C15      1.0000 0.73170  0.64120  0.45430  Biso   1.000  C
  C16      1.0000 0.70420  0.65400  0.52241  Biso   1.000  C
  C17      1.0000 0.91120  0.71910  0.53255  Biso   1.000  C
  C18      1.0000 0.93540  0.70790  0.46470  Biso   1.000  C
  C19      1.0000 0.84640  0.66800  0.42620  Biso   1.000  C
  C20      1.0000 0.52390  0.52103  0.97020  Biso   1.000  C
  C21      1.0000 0.49710  0.56240  0.85512  Biso   1.000  C
  C22      1.0000 0.68260  0.60210  0.91571  Biso   1.000  C
  C23      1.0000 0.64230  0.56160  0.97069  Biso   1.000  C
  C24      1.0000 0.45380  0.52210  0.91008  Biso   1.000  C
  C25      1.0000 0.72800  0.20427  0.36410  Biso   1.000  C
  C26      1.0000 0.70640  0.19230  0.43820  Biso   1.000  C
  C27      1.0000 0.76830  0.14120  0.54570  Biso   1.000  C
  C28      1.0000 0.79580  0.15400  0.47759  Biso   1.000  C
  C29      1.0000 0.58880  0.21910  0.46745  Biso   1.000  C
  C30      1.0000 0.56460  0.20790  0.53530  Biso   1.000  C
  C31      1.0000 0.65360  0.16800  0.57380  Biso   1.000  C
  C32      1.0000 0.97610  0.02103  0.02980  Biso   1.000  C
  C33      1.0000 0.00290  0.06240  0.14488  Biso   1.000  C
  C34      1.0000 0.81740  0.10210  0.08429  Biso   1.000  C
  C35      1.0000 0.85770  0.06160  0.02931  Biso   1.000  C
  C36      1.0000 0.04620  0.02210  0.08992  Biso   1.000  C
  C37      1.0000 0.72800  0.29573  0.13590  Biso   1.000  C
  C38      1.0000 0.70640  0.30770  0.06180  Biso   1.000  C
  C39      1.0000 0.76830  0.35880  0.95430  Biso   1.000  C
  C40      1.0000 0.79580  0.34600  0.02241  Biso   1.000  C
  C41      1.0000 0.58880  0.28090  0.03255  Biso   1.000  C
  C42      1.0000 0.56460  0.29210  0.96470  Biso   1.000  C
  C43      1.0000 0.65360  0.33200  0.92620  Biso   1.000  C
  C44      1.0000 0.97610  0.47897  0.47020  Biso   1.000  C
  C45      1.0000 0.00290  0.43760  0.35512  Biso   1.000  C
  C46      1.0000 0.81740  0.39790  0.41571  Biso   1.000  C
  C47      1.0000 0.85770  0.43840  0.47069  Biso   1.000  C
  C48      1.0000 0.04620  0.47790  0.41008  Biso   1.000  C
  C49      1.0000 0.22800  0.20427  0.13590  Biso   1.000  C
  C50      1.0000 0.20640  0.19230  0.06180  Biso   1.000  C
  C51      1.0000 0.26830  0.14120  0.95430  Biso   1.000  C
  C52      1.0000 0.29580  0.15400  0.02241  Biso   1.000  C
  C53      1.0000 0.08880  0.21910  0.03255  Biso   1.000  C
  C54      1.0000 0.06460  0.20790  0.96470  Biso   1.000  C
  C55      1.0000 0.15360  0.16800  0.92620  Biso   1.000  C
  C56      1.0000 0.47610  0.02103  0.47020  Biso   1.000  C
  C57      1.0000 0.50290  0.06240  0.35512  Biso   1.000  C
  C58      1.0000 0.31740  0.10210  0.41571  Biso   1.000  C
  C59      1.0000 0.35770  0.06160  0.47069  Biso   1.000  C
  C60      1.0000 0.54620  0.02210  0.41008  Biso   1.000  C
  C61      1.0000 0.22800  0.29573  0.36410  Biso   1.000  C
  C62      1.0000 0.20640  0.30770  0.43820  Biso   1.000  C
  C63      1.0000 0.26830  0.35880  0.54570  Biso   1.000  C
  C64      1.0000 0.29580  0.34600  0.47759  Biso   1.000  C
  C65      1.0000 0.08880  0.28090  0.46745  Biso   1.000  C
  C66      1.0000 0.06460  0.29210  0.53530  Biso   1.000  C
  C67      1.0000 0.15360  0.33200  0.57380  Biso   1.000  C
  C68      1.0000 0.47610  0.47897  0.02980  Biso   1.000  C
  C69      1.0000 0.50290  0.43760  0.14488  Biso   1.000  C
  C70      1.0000 0.31740  0.39790  0.08429  Biso   1.000  C
  C71      1.0000 0.35770  0.43840  0.02931  Biso   1.000  C
  C72      1.0000 0.54620  0.47790  0.08992  Biso   1.000  C
  C73      1.0000 0.27200  0.79573  0.63590  Biso   1.000  C
  C74      1.0000 0.29360  0.80770  0.56180  Biso   1.000  C
  C75      1.0000 0.23170  0.85880  0.45430  Biso   1.000  C
  C76      1.0000 0.20420  0.84600  0.52241  Biso   1.000  C
  C77      1.0000 0.41120  0.78090  0.53255  Biso   1.000  C
  C78      1.0000 0.43540  0.79210  0.46470  Biso   1.000  C
  C79      1.0000 0.34640  0.83200  0.42620  Biso   1.000  C
  C80      1.0000 0.02390  0.97897  0.97020  Biso   1.000  C
  C81      1.0000 0.99710  0.93760  0.85512  Biso   1.000  C
  C82      1.0000 0.18260  0.89790  0.91571  Biso   1.000  C
  C83      1.0000 0.14230  0.93840  0.97069  Biso   1.000  C
  C84      1.0000 0.95380  0.97790  0.91008  Biso   1.000  C
  C85      1.0000 0.27200  0.70427  0.86410  Biso   1.000  C
  C86      1.0000 0.29360  0.69230  0.93820  Biso   1.000  C
  C87      1.0000 0.23170  0.64120  0.04570  Biso   1.000  C
  C88      1.0000 0.20420  0.65400  0.97759  Biso   1.000  C
  C89      1.0000 0.41120  0.71910  0.96745  Biso   1.000  C
  C90      1.0000 0.43540  0.70790  0.03530  Biso   1.000  C
  C91      1.0000 0.34640  0.66800  0.07380  Biso   1.000  C
  C92      1.0000 0.02390  0.52103  0.52980  Biso   1.000  C
  C93      1.0000 0.99710  0.56240  0.64488  Biso   1.000  C
  C94      1.0000 0.18260  0.60210  0.58429  Biso   1.000  C
  C95      1.0000 0.14230  0.56160  0.52931  Biso   1.000  C
  C96      1.0000 0.95380  0.52210  0.58992  Biso   1.000  C
  N1       1.0000 0.60930  0.89658  0.64085  Biso   1.000  N
  N2       1.0000 0.60930  0.60342  0.85915  Biso   1.000  N
  N3       1.0000 0.89070  0.10342  0.14085  Biso   1.000  N
  N4       1.0000 0.89070  0.39658  0.35915  Biso   1.000  N
  N5       1.0000 0.39070  0.10342  0.35915  Biso   1.000  N
  N6       1.0000 0.39070  0.39658  0.14085  Biso   1.000  N
  N7       1.0000 0.10930  0.89658  0.85915  Biso   1.000  N
  N8       1.0000 0.10930  0.60342  0.64085  Biso   1.000  N
  O1       1.0000 0.65710  0.80246  0.84042  Biso   1.000  O
  O2       1.0000 0.64920  0.85614  0.69403  Biso   1.000  O
  O3       1.0000 0.42010  0.86758  0.78434  Biso   1.000  O
  O4       1.0000 0.87190  0.78030  0.82973  Biso   1.000  O
  O5       1.0000 0.65710  0.69754  0.65958  Biso   1.000  O
  O6       1.0000 0.64920  0.64386  0.80597  Biso   1.000  O
  O7       1.0000 0.42010  0.63242  0.71566  Biso   1.000  O
  O8       1.0000 0.87190  0.71970  0.67027  Biso   1.000  O
  O9       1.0000 0.84290  0.19754  0.34042  Biso   1.000  O
  O10      1.0000 0.85080  0.14386  0.19403  Biso   1.000  O
  O11      1.0000 0.07990  0.13242  0.28434  Biso   1.000  O
  O12      1.0000 0.62810  0.21970  0.32973  Biso   1.000  O
  O13      1.0000 0.84290  0.30246  0.15958  Biso   1.000  O
  O14      1.0000 0.85080  0.35614  0.30597  Biso   1.000  O
  O15      1.0000 0.07990  0.36758  0.21566  Biso   1.000  O
  O16      1.0000 0.62810  0.28030  0.17027  Biso   1.000  O
  O17      1.0000 0.34290  0.19754  0.15958  Biso   1.000  O
  O18      1.0000 0.35080  0.14386  0.30597  Biso   1.000  O
  O19      1.0000 0.57990  0.13242  0.21566  Biso   1.000  O
  O20      1.0000 0.12810  0.21970  0.17027  Biso   1.000  O
  O21      1.0000 0.34290  0.30246  0.34042  Biso   1.000  O
  O22      1.0000 0.35080  0.35614  0.19403  Biso   1.000  O
  O23      1.0000 0.57990  0.36758  0.28434  Biso   1.000  O
  O24      1.0000 0.12810  0.28030  0.32973  Biso   1.000  O
  O25      1.0000 0.15710  0.80246  0.65958  Biso   1.000  O
  O26      1.0000 0.14920  0.85614  0.80597  Biso   1.000  O
  O27      1.0000 0.92010  0.86758  0.71566  Biso   1.000  O
  O28      1.0000 0.37190  0.78030  0.67027  Biso   1.000  O
  O29      1.0000 0.15710  0.69754  0.84042  Biso   1.000  O
  O30      1.0000 0.14920  0.64386  0.69403  Biso   1.000  O
  O31      1.0000 0.92010  0.63242  0.78434  Biso   1.000  O
  O32      1.0000 0.37190  0.71970  0.82973  Biso   1.000  O
