data_image0
_cell_length_a       10.139
_cell_length_b       17.804
_cell_length_c       20.01
_cell_angle_alpha    90
_cell_angle_beta     90
_cell_angle_gamma    90

_symmetry_space_group_name_H-M    P 1
_symmetry_int_tables_number       1

loop_
  _symmetry_equiv_pos_as_xyz
  'x, y, z'

loop_
  _atom_site_label
  _atom_site_occupancy
  _atom_site_fract_x
  _atom_site_fract_y
  _atom_site_fract_z
  _atom_site_thermal_displace_type
  _atom_site_B_iso_or_equiv
  _atom_site_type_symbol
  La1      1.0000 0.96939  0.75000  0.75000  Biso   1.000  La
  La2      1.0000 0.53061  0.25000  0.25000  Biso   1.000  La
  La3      1.0000 0.03061  0.25000  0.25000  Biso   1.000  La
  La4      1.0000 0.46939  0.75000  0.75000  Biso   1.000  La
  H1       1.0000 0.04980  0.94020  0.68340  Biso   1.000  H
  H2       1.0000 0.37440  0.86510  0.53710  Biso   1.000  H
  H3       1.0000 0.80610  0.94070  0.49200  Biso   1.000  H
  H4       1.0000 0.12650  0.00490  0.59070  Biso   1.000  H
  H5       1.0000 0.02860  0.75390  0.55860  Biso   1.000  H
  H6       1.0000 0.31880  0.88560  0.42540  Biso   1.000  H
  H7       1.0000 0.73830  0.87330  0.58230  Biso   1.000  H
  H8       1.0000 0.12470  0.83920  0.38270  Biso   1.000  H
  H9       1.0000 0.98330  0.77420  0.44700  Biso   1.000  H
  H10      1.0000 0.16590  0.87190  0.78120  Biso   1.000  H
  H11      1.0000 0.05690  0.88690  0.81970  Biso   1.000  H
  H12      1.0000 0.04980  0.55980  0.81660  Biso   1.000  H
  H13      1.0000 0.37440  0.63490  0.96290  Biso   1.000  H
  H14      1.0000 0.80610  0.55930  0.00800  Biso   1.000  H
  H15      1.0000 0.12650  0.49510  0.90930  Biso   1.000  H
  H16      1.0000 0.02860  0.74610  0.94140  Biso   1.000  H
  H17      1.0000 0.31880  0.61440  0.07460  Biso   1.000  H
  H18      1.0000 0.73830  0.62670  0.91770  Biso   1.000  H
  H19      1.0000 0.12470  0.66080  0.11730  Biso   1.000  H
  H20      1.0000 0.98330  0.72580  0.05300  Biso   1.000  H
  H21      1.0000 0.16590  0.62810  0.71880  Biso   1.000  H
  H22      1.0000 0.05690  0.61310  0.68030  Biso   1.000  H
  H23      1.0000 0.45020  0.05980  0.18340  Biso   1.000  H
  H24      1.0000 0.12560  0.13490  0.03710  Biso   1.000  H
  H25      1.0000 0.69390  0.05930  0.99200  Biso   1.000  H
  H26      1.0000 0.37350  0.99510  0.09070  Biso   1.000  H
  H27      1.0000 0.47140  0.24610  0.05860  Biso   1.000  H
  H28      1.0000 0.18120  0.11440  0.92540  Biso   1.000  H
  H29      1.0000 0.76170  0.12670  0.08230  Biso   1.000  H
  H30      1.0000 0.37530  0.16080  0.88270  Biso   1.000  H
  H31      1.0000 0.51670  0.22580  0.94700  Biso   1.000  H
  H32      1.0000 0.33410  0.12810  0.28120  Biso   1.000  H
  H33      1.0000 0.44310  0.11310  0.31970  Biso   1.000  H
  H34      1.0000 0.45020  0.44020  0.31660  Biso   1.000  H
  H35      1.0000 0.12560  0.36510  0.46290  Biso   1.000  H
  H36      1.0000 0.69390  0.44070  0.50800  Biso   1.000  H
  H37      1.0000 0.37350  0.50490  0.40930  Biso   1.000  H
  H38      1.0000 0.47140  0.25390  0.44140  Biso   1.000  H
  H39      1.0000 0.18120  0.38560  0.57460  Biso   1.000  H
  H40      1.0000 0.76170  0.37330  0.41770  Biso   1.000  H
  H41      1.0000 0.37530  0.33920  0.61730  Biso   1.000  H
  H42      1.0000 0.51670  0.27420  0.55300  Biso   1.000  H
  H43      1.0000 0.33410  0.37190  0.21880  Biso   1.000  H
  H44      1.0000 0.44310  0.38690  0.18030  Biso   1.000  H
  H45      1.0000 0.95020  0.05980  0.31660  Biso   1.000  H
  H46      1.0000 0.62560  0.13490  0.46290  Biso   1.000  H
  H47      1.0000 0.19390  0.05930  0.50800  Biso   1.000  H
  H48      1.0000 0.87350  0.99510  0.40930  Biso   1.000  H
  H49      1.0000 0.97140  0.24610  0.44140  Biso   1.000  H
  H50      1.0000 0.68120  0.11440  0.57460  Biso   1.000  H
  H51      1.0000 0.26170  0.12670  0.41770  Biso   1.000  H
  H52      1.0000 0.87530  0.16080  0.61730  Biso   1.000  H
  H53      1.0000 0.01670  0.22580  0.55300  Biso   1.000  H
  H54      1.0000 0.83410  0.12810  0.21880  Biso   1.000  H
  H55      1.0000 0.94310  0.11310  0.18030  Biso   1.000  H
  H56      1.0000 0.95020  0.44020  0.18340  Biso   1.000  H
  H57      1.0000 0.62560  0.36510  0.03710  Biso   1.000  H
  H58      1.0000 0.19390  0.44070  0.99200  Biso   1.000  H
  H59      1.0000 0.87350  0.50490  0.09070  Biso   1.000  H
  H60      1.0000 0.97140  0.25390  0.05860  Biso   1.000  H
  H61      1.0000 0.68120  0.38560  0.92540  Biso   1.000  H
  H62      1.0000 0.26170  0.37330  0.08230  Biso   1.000  H
  H63      1.0000 0.87530  0.33920  0.88270  Biso   1.000  H
  H64      1.0000 0.01670  0.27420  0.94700  Biso   1.000  H
  H65      1.0000 0.83410  0.37190  0.28120  Biso   1.000  H
  H66      1.0000 0.94310  0.38690  0.31970  Biso   1.000  H
  H67      1.0000 0.54980  0.94020  0.81660  Biso   1.000  H
  H68      1.0000 0.87440  0.86510  0.96290  Biso   1.000  H
  H69      1.0000 0.30610  0.94070  0.00800  Biso   1.000  H
  H70      1.0000 0.62650  0.00490  0.90930  Biso   1.000  H
  H71      1.0000 0.52860  0.75390  0.94140  Biso   1.000  H
  H72      1.0000 0.81880  0.88560  0.07460  Biso   1.000  H
  H73      1.0000 0.23830  0.87330  0.91770  Biso   1.000  H
  H74      1.0000 0.62470  0.83920  0.11730  Biso   1.000  H
  H75      1.0000 0.48330  0.77420  0.05300  Biso   1.000  H
  H76      1.0000 0.66590  0.87190  0.71880  Biso   1.000  H
  H77      1.0000 0.55690  0.88690  0.68030  Biso   1.000  H
  H78      1.0000 0.54980  0.55980  0.68340  Biso   1.000  H
  H79      1.0000 0.87440  0.63490  0.53710  Biso   1.000  H
  H80      1.0000 0.30610  0.55930  0.49200  Biso   1.000  H
  H81      1.0000 0.62650  0.49510  0.59070  Biso   1.000  H
  H82      1.0000 0.52860  0.74610  0.55860  Biso   1.000  H
  H83      1.0000 0.81880  0.61440  0.42540  Biso   1.000  H
  H84      1.0000 0.23830  0.62670  0.58230  Biso   1.000  H
  H85      1.0000 0.62470  0.66080  0.38270  Biso   1.000  H
  H86      1.0000 0.48330  0.72580  0.44700  Biso   1.000  H
  H87      1.0000 0.66590  0.62810  0.78120  Biso   1.000  H
  H88      1.0000 0.55690  0.61310  0.81970  Biso   1.000  H
  C1       1.0000 0.20750  0.80770  0.55940  Biso   1.000  C
  C2       1.0000 0.00190  0.93930  0.64380  Biso   1.000  C
  C3       1.0000 0.29540  0.84710  0.51970  Biso   1.000  C
  C4       1.0000 0.97590  0.97890  0.52930  Biso   1.000  C
  C5       1.0000 0.85870  0.93990  0.53010  Biso   1.000  C
  C6       1.0000 0.04740  0.97860  0.58820  Biso   1.000  C
  C7       1.0000 0.08800  0.78020  0.53200  Biso   1.000  C
  C8       1.0000 0.26200  0.85880  0.45300  Biso   1.000  C
  C9       1.0000 0.81670  0.90030  0.58410  Biso   1.000  C
  C10      1.0000 0.14510  0.83100  0.42740  Biso   1.000  C
  C11      1.0000 0.06100  0.79260  0.46550  Biso   1.000  C
  C12      1.0000 0.23560  0.79720  0.63280  Biso   1.000  C
  C13      1.0000 0.20750  0.69230  0.94060  Biso   1.000  C
  C14      1.0000 0.00190  0.56070  0.85620  Biso   1.000  C
  C15      1.0000 0.29540  0.65290  0.98030  Biso   1.000  C
  C16      1.0000 0.97590  0.52110  0.97070  Biso   1.000  C
  C17      1.0000 0.85870  0.56010  0.96990  Biso   1.000  C
  C18      1.0000 0.04740  0.52140  0.91180  Biso   1.000  C
  C19      1.0000 0.08800  0.71980  0.96800  Biso   1.000  C
  C20      1.0000 0.26200  0.64120  0.04700  Biso   1.000  C
  C21      1.0000 0.81670  0.59970  0.91590  Biso   1.000  C
  C22      1.0000 0.14510  0.66900  0.07260  Biso   1.000  C
  C23      1.0000 0.06100  0.70740  0.03450  Biso   1.000  C
  C24      1.0000 0.23560  0.70280  0.86720  Biso   1.000  C
  C25      1.0000 0.29250  0.19230  0.05940  Biso   1.000  C
  C26      1.0000 0.49810  0.06070  0.14380  Biso   1.000  C
  C27      1.0000 0.20460  0.15290  0.01970  Biso   1.000  C
  C28      1.0000 0.52410  0.02110  0.02930  Biso   1.000  C
  C29      1.0000 0.64130  0.06010  0.03010  Biso   1.000  C
  C30      1.0000 0.45260  0.02140  0.08820  Biso   1.000  C
  C31      1.0000 0.41200  0.21980  0.03200  Biso   1.000  C
  C32      1.0000 0.23800  0.14120  0.95300  Biso   1.000  C
  C33      1.0000 0.68330  0.09970  0.08410  Biso   1.000  C
  C34      1.0000 0.35490  0.16900  0.92740  Biso   1.000  C
  C35      1.0000 0.43900  0.20740  0.96550  Biso   1.000  C
  C36      1.0000 0.26440  0.20280  0.13280  Biso   1.000  C
  C37      1.0000 0.29250  0.30770  0.44060  Biso   1.000  C
  C38      1.0000 0.49810  0.43930  0.35620  Biso   1.000  C
  C39      1.0000 0.20460  0.34710  0.48030  Biso   1.000  C
  C40      1.0000 0.52410  0.47890  0.47070  Biso   1.000  C
  C41      1.0000 0.64130  0.43990  0.46990  Biso   1.000  C
  C42      1.0000 0.45260  0.47860  0.41180  Biso   1.000  C
  C43      1.0000 0.41200  0.28020  0.46800  Biso   1.000  C
  C44      1.0000 0.23800  0.35880  0.54700  Biso   1.000  C
  C45      1.0000 0.68330  0.40030  0.41590  Biso   1.000  C
  C46      1.0000 0.35490  0.33100  0.57260  Biso   1.000  C
  C47      1.0000 0.43900  0.29260  0.53450  Biso   1.000  C
  C48      1.0000 0.26440  0.29720  0.36720  Biso   1.000  C
  C49      1.0000 0.79250  0.19230  0.44060  Biso   1.000  C
  C50      1.0000 0.99810  0.06070  0.35620  Biso   1.000  C
  C51      1.0000 0.70460  0.15290  0.48030  Biso   1.000  C
  C52      1.0000 0.02410  0.02110  0.47070  Biso   1.000  C
  C53      1.0000 0.14130  0.06010  0.46990  Biso   1.000  C
  C54      1.0000 0.95260  0.02140  0.41180  Biso   1.000  C
  C55      1.0000 0.91200  0.21980  0.46800  Biso   1.000  C
  C56      1.0000 0.73800  0.14120  0.54700  Biso   1.000  C
  C57      1.0000 0.18330  0.09970  0.41590  Biso   1.000  C
  C58      1.0000 0.85490  0.16900  0.57260  Biso   1.000  C
  C59      1.0000 0.93900  0.20740  0.53450  Biso   1.000  C
  C60      1.0000 0.76440  0.20280  0.36720  Biso   1.000  C
  C61      1.0000 0.79250  0.30770  0.05940  Biso   1.000  C
  C62      1.0000 0.99810  0.43930  0.14380  Biso   1.000  C
  C63      1.0000 0.70460  0.34710  0.01970  Biso   1.000  C
  C64      1.0000 0.02410  0.47890  0.02930  Biso   1.000  C
  C65      1.0000 0.14130  0.43990  0.03010  Biso   1.000  C
  C66      1.0000 0.95260  0.47860  0.08820  Biso   1.000  C
  C67      1.0000 0.91200  0.28020  0.03200  Biso   1.000  C
  C68      1.0000 0.73800  0.35880  0.95300  Biso   1.000  C
  C69      1.0000 0.18330  0.40030  0.08410  Biso   1.000  C
  C70      1.0000 0.85490  0.33100  0.92740  Biso   1.000  C
  C71      1.0000 0.93900  0.29260  0.96550  Biso   1.000  C
  C72      1.0000 0.76440  0.29720  0.13280  Biso   1.000  C
  C73      1.0000 0.70750  0.80770  0.94060  Biso   1.000  C
  C74      1.0000 0.50190  0.93930  0.85620  Biso   1.000  C
  C75      1.0000 0.79540  0.84710  0.98030  Biso   1.000  C
  C76      1.0000 0.47590  0.97890  0.97070  Biso   1.000  C
  C77      1.0000 0.35870  0.93990  0.96990  Biso   1.000  C
  C78      1.0000 0.54740  0.97860  0.91180  Biso   1.000  C
  C79      1.0000 0.58800  0.78020  0.96800  Biso   1.000  C
  C80      1.0000 0.76200  0.85880  0.04700  Biso   1.000  C
  C81      1.0000 0.31670  0.90030  0.91590  Biso   1.000  C
  C82      1.0000 0.64510  0.83100  0.07260  Biso   1.000  C
  C83      1.0000 0.56100  0.79260  0.03450  Biso   1.000  C
  C84      1.0000 0.73560  0.79720  0.86720  Biso   1.000  C
  C85      1.0000 0.70750  0.69230  0.55940  Biso   1.000  C
  C86      1.0000 0.50190  0.56070  0.64380  Biso   1.000  C
  C87      1.0000 0.79540  0.65290  0.51970  Biso   1.000  C
  C88      1.0000 0.47590  0.52110  0.52930  Biso   1.000  C
  C89      1.0000 0.35870  0.56010  0.53010  Biso   1.000  C
  C90      1.0000 0.54740  0.52140  0.58820  Biso   1.000  C
  C91      1.0000 0.58800  0.71980  0.53200  Biso   1.000  C
  C92      1.0000 0.76200  0.64120  0.45300  Biso   1.000  C
  C93      1.0000 0.31670  0.59970  0.58410  Biso   1.000  C
  C94      1.0000 0.64510  0.66900  0.42740  Biso   1.000  C
  C95      1.0000 0.56100  0.70740  0.46550  Biso   1.000  C
  C96      1.0000 0.73560  0.70280  0.63280  Biso   1.000  C
  N1       1.0000 0.89020  0.90060  0.64030  Biso   1.000  N
  N2       1.0000 0.89020  0.59940  0.85970  Biso   1.000  N
  N3       1.0000 0.60980  0.09940  0.14030  Biso   1.000  N
  N4       1.0000 0.60980  0.40060  0.35970  Biso   1.000  N
  N5       1.0000 0.10980  0.09940  0.35970  Biso   1.000  N
  N6       1.0000 0.10980  0.40060  0.14030  Biso   1.000  N
  N7       1.0000 0.39020  0.90060  0.85970  Biso   1.000  N
  N8       1.0000 0.39020  0.59940  0.64030  Biso   1.000  N
  O1       1.0000 0.85170  0.85970  0.69310  Biso   1.000  O
  O2       1.0000 0.13730  0.78160  0.66980  Biso   1.000  O
  O3       1.0000 0.35160  0.80440  0.65190  Biso   1.000  O
  O4       1.0000 0.08490  0.87230  0.78410  Biso   1.000  O
  O5       1.0000 0.85170  0.64030  0.80690  Biso   1.000  O
  O6       1.0000 0.13730  0.71840  0.83020  Biso   1.000  O
  O7       1.0000 0.35160  0.69560  0.84810  Biso   1.000  O
  O8       1.0000 0.08490  0.62770  0.71590  Biso   1.000  O
  O9       1.0000 0.64830  0.14030  0.19310  Biso   1.000  O
  O10      1.0000 0.36270  0.21840  0.16980  Biso   1.000  O
  O11      1.0000 0.14840  0.19560  0.15190  Biso   1.000  O
  O12      1.0000 0.41510  0.12770  0.28410  Biso   1.000  O
  O13      1.0000 0.64830  0.35970  0.30690  Biso   1.000  O
  O14      1.0000 0.36270  0.28160  0.33020  Biso   1.000  O
  O15      1.0000 0.14840  0.30440  0.34810  Biso   1.000  O
  O16      1.0000 0.41510  0.37230  0.21590  Biso   1.000  O
  O17      1.0000 0.14830  0.14030  0.30690  Biso   1.000  O
  O18      1.0000 0.86270  0.21840  0.33020  Biso   1.000  O
  O19      1.0000 0.64840  0.19560  0.34810  Biso   1.000  O
  O20      1.0000 0.91510  0.12770  0.21590  Biso   1.000  O
  O21      1.0000 0.14830  0.35970  0.19310  Biso   1.000  O
  O22      1.0000 0.86270  0.28160  0.16980  Biso   1.000  O
  O23      1.0000 0.64840  0.30440  0.15190  Biso   1.000  O
  O24      1.0000 0.91510  0.37230  0.28410  Biso   1.000  O
  O25      1.0000 0.35170  0.85970  0.80690  Biso   1.000  O
  O26      1.0000 0.63730  0.78160  0.83020  Biso   1.000  O
  O27      1.0000 0.85160  0.80440  0.84810  Biso   1.000  O
  O28      1.0000 0.58490  0.87230  0.71590  Biso   1.000  O
  O29      1.0000 0.35170  0.64030  0.69310  Biso   1.000  O
  O30      1.0000 0.63730  0.71840  0.66980  Biso   1.000  O
  O31      1.0000 0.85160  0.69560  0.65190  Biso   1.000  O
  O32      1.0000 0.58490  0.62770  0.78410  Biso   1.000  O
