data_image0
_cell_length_a       15.352
_cell_length_b       15.352
_cell_length_c       12.226
_cell_angle_alpha    90
_cell_angle_beta     90
_cell_angle_gamma    90

_symmetry_space_group_name_H-M    "P 1"
_symmetry_int_tables_number       1

loop_
  _symmetry_equiv_pos_as_xyz
  'x, y, z'

loop_
  _atom_site_label
  _atom_site_occupancy
  _atom_site_fract_x
  _atom_site_fract_y
  _atom_site_fract_z
  _atom_site_thermal_displace_type
  _atom_site_B_iso_or_equiv
  _atom_site_type_symbol
  O1       1.0000 0.90710  0.20950  0.75640  Biso   1.000  O
  O2       1.0000 0.88870  0.11690  0.61420  Biso   1.000  O
  C1       1.0000 0.96060  0.06730  0.76880  Biso   1.000  C
  C2       1.0000 0.96280  0.06900  0.88150  Biso   1.000  C
  H1       1.0000 0.93890  0.11730  0.91970  Biso   1.000  H
  C3       1.0000 0.91490  0.13650  0.70660  Biso   1.000  C
  O3       1.0000 0.40710  0.70950  0.25640  Biso   1.000  O
  O4       1.0000 0.38870  0.61690  0.11420  Biso   1.000  O
  C4       1.0000 0.46060  0.56730  0.26880  Biso   1.000  C
  C5       1.0000 0.46280  0.56900  0.38150  Biso   1.000  C
  H2       1.0000 0.43890  0.61730  0.41970  Biso   1.000  H
  C6       1.0000 0.41490  0.63650  0.20660  Biso   1.000  C
  O5       1.0000 0.59290  0.29050  0.25640  Biso   1.000  O
  O6       1.0000 0.61130  0.38310  0.11420  Biso   1.000  O
  C7       1.0000 0.53940  0.43270  0.26880  Biso   1.000  C
  C8       1.0000 0.53720  0.43100  0.38150  Biso   1.000  C
  H3       1.0000 0.56110  0.38270  0.41970  Biso   1.000  H
  C9       1.0000 0.58510  0.36350  0.20660  Biso   1.000  C
  O7       1.0000 0.09290  0.79050  0.75640  Biso   1.000  O
  O8       1.0000 0.11130  0.88310  0.61420  Biso   1.000  O
  C10      1.0000 0.03940  0.93270  0.76880  Biso   1.000  C
  C11      1.0000 0.03720  0.93100  0.88150  Biso   1.000  C
  H4       1.0000 0.06110  0.88270  0.91970  Biso   1.000  H
  C12      1.0000 0.08510  0.86350  0.70660  Biso   1.000  C
  O9       1.0000 0.79050  0.40710  0.00640  Biso   1.000  O
  O10      1.0000 0.88310  0.38870  0.86420  Biso   1.000  O
  C13      1.0000 0.93270  0.46060  0.01880  Biso   1.000  C
  C14      1.0000 0.93100  0.46280  0.13150  Biso   1.000  C
  H5       1.0000 0.88270  0.43890  0.16970  Biso   1.000  H
  C15      1.0000 0.86350  0.41490  0.95660  Biso   1.000  C
  O11      1.0000 0.29050  0.90710  0.50640  Biso   1.000  O
  O12      1.0000 0.38310  0.88870  0.36420  Biso   1.000  O
  C16      1.0000 0.43270  0.96060  0.51880  Biso   1.000  C
  C17      1.0000 0.43100  0.96280  0.63150  Biso   1.000  C
  H6       1.0000 0.38270  0.93890  0.66970  Biso   1.000  H
  C18      1.0000 0.36350  0.91490  0.45660  Biso   1.000  C
  O13      1.0000 0.70950  0.09290  0.50640  Biso   1.000  O
  O14      1.0000 0.61690  0.11130  0.36420  Biso   1.000  O
  C19      1.0000 0.56730  0.03940  0.51880  Biso   1.000  C
  C20      1.0000 0.56900  0.03720  0.63150  Biso   1.000  C
  H7       1.0000 0.61730  0.06110  0.66970  Biso   1.000  H
  C21      1.0000 0.63650  0.08510  0.45660  Biso   1.000  C
  O15      1.0000 0.20950  0.59290  0.00640  Biso   1.000  O
  O16      1.0000 0.11690  0.61130  0.86420  Biso   1.000  O
  C22      1.0000 0.06730  0.53940  0.01880  Biso   1.000  C
  C23      1.0000 0.06900  0.53720  0.13150  Biso   1.000  C
  H8       1.0000 0.11730  0.56110  0.16970  Biso   1.000  H
  C24      1.0000 0.13650  0.58510  0.95660  Biso   1.000  C
  O17      1.0000 0.59290  0.20950  0.99360  Biso   1.000  O
  O18      1.0000 0.61130  0.11690  0.13580  Biso   1.000  O
  C25      1.0000 0.53940  0.06730  0.98120  Biso   1.000  C
  C26      1.0000 0.53720  0.06900  0.86850  Biso   1.000  C
  H9       1.0000 0.56110  0.11730  0.83030  Biso   1.000  H
  C27      1.0000 0.58510  0.13650  0.04340  Biso   1.000  C
  O19      1.0000 0.09290  0.70950  0.49360  Biso   1.000  O
  O20      1.0000 0.11130  0.61690  0.63580  Biso   1.000  O
  C28      1.0000 0.03940  0.56730  0.48120  Biso   1.000  C
  C29      1.0000 0.03720  0.56900  0.36850  Biso   1.000  C
  H10      1.0000 0.06110  0.61730  0.33030  Biso   1.000  H
  C30      1.0000 0.08510  0.63650  0.54340  Biso   1.000  C
  O21      1.0000 0.90710  0.29050  0.49360  Biso   1.000  O
  O22      1.0000 0.88870  0.38310  0.63580  Biso   1.000  O
  C31      1.0000 0.96060  0.43270  0.48120  Biso   1.000  C
  C32      1.0000 0.96280  0.43100  0.36850  Biso   1.000  C
  H11      1.0000 0.93890  0.38270  0.33030  Biso   1.000  H
  C33      1.0000 0.91490  0.36350  0.54340  Biso   1.000  C
  O23      1.0000 0.40710  0.79050  0.99360  Biso   1.000  O
  O24      1.0000 0.38870  0.88310  0.13580  Biso   1.000  O
  C34      1.0000 0.46060  0.93270  0.98120  Biso   1.000  C
  C35      1.0000 0.46280  0.93100  0.86850  Biso   1.000  C
  H12      1.0000 0.43890  0.88270  0.83030  Biso   1.000  H
  C36      1.0000 0.41490  0.86350  0.04340  Biso   1.000  C
  O25      1.0000 0.70950  0.40710  0.74360  Biso   1.000  O
  O26      1.0000 0.61690  0.38870  0.88580  Biso   1.000  O
  C37      1.0000 0.56730  0.46060  0.73120  Biso   1.000  C
  C38      1.0000 0.56900  0.46280  0.61850  Biso   1.000  C
  H13      1.0000 0.61730  0.43890  0.58030  Biso   1.000  H
  C39      1.0000 0.63650  0.41490  0.79340  Biso   1.000  C
  O27      1.0000 0.20950  0.90710  0.24360  Biso   1.000  O
  O28      1.0000 0.11690  0.88870  0.38580  Biso   1.000  O
  C40      1.0000 0.06730  0.96060  0.23120  Biso   1.000  C
  C41      1.0000 0.06900  0.96280  0.11850  Biso   1.000  C
  H14      1.0000 0.11730  0.93890  0.08030  Biso   1.000  H
  C42      1.0000 0.13650  0.91490  0.29340  Biso   1.000  C
  O29      1.0000 0.79050  0.09290  0.24360  Biso   1.000  O
  O30      1.0000 0.88310  0.11130  0.38580  Biso   1.000  O
  C43      1.0000 0.93270  0.03940  0.23120  Biso   1.000  C
  C44      1.0000 0.93100  0.03720  0.11850  Biso   1.000  C
  H15      1.0000 0.88270  0.06110  0.08030  Biso   1.000  H
  C45      1.0000 0.86350  0.08510  0.29340  Biso   1.000  C
  O31      1.0000 0.29050  0.59290  0.74360  Biso   1.000  O
  O32      1.0000 0.38310  0.61130  0.88580  Biso   1.000  O
  C46      1.0000 0.43270  0.53940  0.73120  Biso   1.000  C
  C47      1.0000 0.43100  0.53720  0.61850  Biso   1.000  C
  H16      1.0000 0.38270  0.56110  0.58030  Biso   1.000  H
  C48      1.0000 0.36350  0.58510  0.79340  Biso   1.000  C
  In1      1.0000 0.81240  0.31240  0.75000  Biso   1.000  In
  In2      1.0000 0.31240  0.81240  0.25000  Biso   1.000  In
  In3      1.0000 0.68760  0.18760  0.25000  Biso   1.000  In
  In4      1.0000 0.18760  0.68760  0.75000  Biso   1.000  In
  In5      1.0000 0.68760  0.31240  0.00000  Biso   1.000  In
  In6      1.0000 0.18760  0.81240  0.50000  Biso   1.000  In
  In7      1.0000 0.81240  0.18760  0.50000  Biso   1.000  In
  In8      1.0000 0.31240  0.68760  0.00000  Biso   1.000  In
  O33      1.0000 0.75000  0.24500  0.87500  Biso   1.000  O
  H17      1.0000 0.75000  0.18310  0.87500  Biso   1.000  H
  O34      1.0000 0.25000  0.74500  0.37500  Biso   1.000  O
  H18      1.0000 0.25000  0.68310  0.37500  Biso   1.000  H
  O35      1.0000 0.75000  0.25500  0.37500  Biso   1.000  O
  H19      1.0000 0.75000  0.31690  0.37500  Biso   1.000  H
  O36      1.0000 0.25000  0.75500  0.87500  Biso   1.000  O
  H20      1.0000 0.25000  0.81690  0.87500  Biso   1.000  H
  O37      1.0000 0.75500  0.25000  0.12500  Biso   1.000  O
  H21      1.0000 0.81690  0.25000  0.12500  Biso   1.000  H
  O38      1.0000 0.25500  0.75000  0.62500  Biso   1.000  O
  H22      1.0000 0.31690  0.75000  0.62500  Biso   1.000  H
  O39      1.0000 0.74500  0.25000  0.62500  Biso   1.000  O
  H23      1.0000 0.68310  0.25000  0.62500  Biso   1.000  H
  O40      1.0000 0.24500  0.75000  0.12500  Biso   1.000  O
  H24      1.0000 0.18310  0.75000  0.12500  Biso   1.000  H
  C49      1.0000 0.00000  0.00000  0.71110  Biso   1.000  C
  H25      1.0000 0.00000  0.00000  0.63340  Biso   1.000  H
  C50      1.0000 0.00000  0.00000  0.94040  Biso   1.000  C
  C51      1.0000 0.50000  0.50000  0.21110  Biso   1.000  C
  H26      1.0000 0.50000  0.50000  0.13340  Biso   1.000  H
  C52      1.0000 0.50000  0.50000  0.44040  Biso   1.000  C
  C53      1.0000 0.00000  0.50000  0.96110  Biso   1.000  C
  H27      1.0000 0.00000  0.50000  0.88340  Biso   1.000  H
  C54      1.0000 0.00000  0.50000  0.19040  Biso   1.000  C
  C55      1.0000 0.50000  0.00000  0.46110  Biso   1.000  C
  H28      1.0000 0.50000  0.00000  0.38340  Biso   1.000  H
  C56      1.0000 0.50000  0.00000  0.69040  Biso   1.000  C
  C57      1.0000 0.50000  0.00000  0.03890  Biso   1.000  C
  H29      1.0000 0.50000  0.00000  0.11660  Biso   1.000  H
  C58      1.0000 0.50000  0.00000  0.80960  Biso   1.000  C
  C59      1.0000 0.00000  0.50000  0.53890  Biso   1.000  C
  H30      1.0000 0.00000  0.50000  0.61660  Biso   1.000  H
  C60      1.0000 0.00000  0.50000  0.30960  Biso   1.000  C
  C61      1.0000 0.50000  0.50000  0.78890  Biso   1.000  C
  H31      1.0000 0.50000  0.50000  0.86660  Biso   1.000  H
  C62      1.0000 0.50000  0.50000  0.55960  Biso   1.000  C
  C63      1.0000 0.00000  0.00000  0.28890  Biso   1.000  C
  H32      1.0000 0.00000  0.00000  0.36660  Biso   1.000  H
  C64      1.0000 0.00000  0.00000  0.05960  Biso   1.000  C
