data_image0
_cell_length_a       31.978
_cell_length_b       6.5812
_cell_length_c       16.862
_cell_angle_alpha    90
_cell_angle_beta     90
_cell_angle_gamma    90

_symmetry_space_group_name_H-M    "P 1"
_symmetry_int_tables_number       1

loop_
  _symmetry_equiv_pos_as_xyz
  'x, y, z'

loop_
  _atom_site_label
  _atom_site_occupancy
  _atom_site_fract_x
  _atom_site_fract_y
  _atom_site_fract_z
  _atom_site_thermal_displace_type
  _atom_site_B_iso_or_equiv
  _atom_site_type_symbol
  O1       1.0000 0.77950  0.15880  0.91820  Biso   1.000  O
  C1       1.0000 0.84790  0.18040  0.78840  Biso   1.000  C
  C2       1.0000 0.87823  0.18040  0.73090  Biso   1.000  C
  H1       1.0000 0.83690  0.31200  0.80940  Biso   1.000  H
  H2       1.0000 0.88929  0.31200  0.71000  Biso   1.000  H
  O2       1.0000 0.27950  0.65880  0.91820  Biso   1.000  O
  C3       1.0000 0.34790  0.68040  0.78840  Biso   1.000  C
  C4       1.0000 0.37823  0.68040  0.73090  Biso   1.000  C
  H3       1.0000 0.33690  0.81200  0.80940  Biso   1.000  H
  H4       1.0000 0.38929  0.81200  0.71000  Biso   1.000  H
  O3       1.0000 0.22050  0.84120  0.91820  Biso   1.000  O
  C5       1.0000 0.15210  0.81960  0.78840  Biso   1.000  C
  C6       1.0000 0.12177  0.81960  0.73090  Biso   1.000  C
  H5       1.0000 0.16310  0.68800  0.80940  Biso   1.000  H
  H6       1.0000 0.11071  0.68800  0.71000  Biso   1.000  H
  O4       1.0000 0.72050  0.34120  0.91820  Biso   1.000  O
  C7       1.0000 0.65210  0.31960  0.78840  Biso   1.000  C
  C8       1.0000 0.62177  0.31960  0.73090  Biso   1.000  C
  H7       1.0000 0.66310  0.18800  0.80940  Biso   1.000  H
  H8       1.0000 0.61071  0.18800  0.71000  Biso   1.000  H
  O5       1.0000 0.22050  0.15880  0.08180  Biso   1.000  O
  C9       1.0000 0.15210  0.18040  0.21160  Biso   1.000  C
  C10      1.0000 0.12177  0.18040  0.26910  Biso   1.000  C
  H9       1.0000 0.16310  0.31200  0.19060  Biso   1.000  H
  H10      1.0000 0.11071  0.31200  0.29000  Biso   1.000  H
  O6       1.0000 0.72050  0.65880  0.08180  Biso   1.000  O
  C11      1.0000 0.65210  0.68040  0.21160  Biso   1.000  C
  C12      1.0000 0.62177  0.68040  0.26910  Biso   1.000  C
  H11      1.0000 0.66310  0.81200  0.19060  Biso   1.000  H
  H12      1.0000 0.61071  0.81200  0.29000  Biso   1.000  H
  O7       1.0000 0.77950  0.84120  0.08180  Biso   1.000  O
  C13      1.0000 0.84790  0.81960  0.21160  Biso   1.000  C
  C14      1.0000 0.87823  0.81960  0.26910  Biso   1.000  C
  H13      1.0000 0.83690  0.68800  0.19060  Biso   1.000  H
  H14      1.0000 0.88929  0.68800  0.29000  Biso   1.000  H
  O8       1.0000 0.27950  0.34120  0.08180  Biso   1.000  O
  C15      1.0000 0.34790  0.31960  0.21160  Biso   1.000  C
  C16      1.0000 0.37823  0.31960  0.26910  Biso   1.000  C
  H15      1.0000 0.33690  0.18800  0.19060  Biso   1.000  H
  H16      1.0000 0.38929  0.18800  0.29000  Biso   1.000  H
  O9       1.0000 0.22050  0.84120  0.08180  Biso   1.000  O
  C17      1.0000 0.15210  0.81960  0.21160  Biso   1.000  C
  C18      1.0000 0.12177  0.81960  0.26910  Biso   1.000  C
  H17      1.0000 0.16310  0.68800  0.19060  Biso   1.000  H
  H18      1.0000 0.11071  0.68800  0.29000  Biso   1.000  H
  O10      1.0000 0.72050  0.34120  0.08180  Biso   1.000  O
  C19      1.0000 0.65210  0.31960  0.21160  Biso   1.000  C
  C20      1.0000 0.62177  0.31960  0.26910  Biso   1.000  C
  H19      1.0000 0.66310  0.18800  0.19060  Biso   1.000  H
  H20      1.0000 0.61071  0.18800  0.29000  Biso   1.000  H
  O11      1.0000 0.77950  0.15880  0.08180  Biso   1.000  O
  C21      1.0000 0.84790  0.18040  0.21160  Biso   1.000  C
  C22      1.0000 0.87823  0.18040  0.26910  Biso   1.000  C
  H21      1.0000 0.83690  0.31200  0.19060  Biso   1.000  H
  H22      1.0000 0.88929  0.31200  0.29000  Biso   1.000  H
  O12      1.0000 0.27950  0.65880  0.08180  Biso   1.000  O
  C23      1.0000 0.34790  0.68040  0.21160  Biso   1.000  C
  C24      1.0000 0.37823  0.68040  0.26910  Biso   1.000  C
  H23      1.0000 0.33690  0.81200  0.19060  Biso   1.000  H
  H24      1.0000 0.38929  0.81200  0.29000  Biso   1.000  H
  O13      1.0000 0.77950  0.84120  0.91820  Biso   1.000  O
  C25      1.0000 0.84790  0.81960  0.78840  Biso   1.000  C
  C26      1.0000 0.87823  0.81960  0.73090  Biso   1.000  C
  H25      1.0000 0.83690  0.68800  0.80940  Biso   1.000  H
  H26      1.0000 0.88929  0.68800  0.71000  Biso   1.000  H
  O14      1.0000 0.27950  0.34120  0.91820  Biso   1.000  O
  C27      1.0000 0.34790  0.31960  0.78840  Biso   1.000  C
  C28      1.0000 0.37823  0.31960  0.73090  Biso   1.000  C
  H27      1.0000 0.33690  0.18800  0.80940  Biso   1.000  H
  H28      1.0000 0.38929  0.18800  0.71000  Biso   1.000  H
  O15      1.0000 0.22050  0.15880  0.91820  Biso   1.000  O
  C29      1.0000 0.15210  0.18040  0.78840  Biso   1.000  C
  C30      1.0000 0.12177  0.18040  0.73090  Biso   1.000  C
  H29      1.0000 0.16310  0.31200  0.80940  Biso   1.000  H
  H30      1.0000 0.11071  0.31200  0.71000  Biso   1.000  H
  O16      1.0000 0.72050  0.65880  0.91820  Biso   1.000  O
  C31      1.0000 0.65210  0.68040  0.78840  Biso   1.000  C
  C32      1.0000 0.62177  0.68040  0.73090  Biso   1.000  C
  H31      1.0000 0.66310  0.81200  0.80940  Biso   1.000  H
  H32      1.0000 0.61071  0.81200  0.71000  Biso   1.000  H
  Al1      1.0000 0.75000  0.25000  0.00000  Biso   1.000  Al
  Al2      1.0000 0.25000  0.75000  0.00000  Biso   1.000  Al
  Al3      1.0000 0.25000  0.25000  0.00000  Biso   1.000  Al
  Al4      1.0000 0.75000  0.75000  0.00000  Biso   1.000  Al
  O17      1.0000 0.72510  0.00000  0.00000  Biso   1.000  O
  H33      1.0000 0.69380  0.00000  0.00000  Biso   1.000  H
  O18      1.0000 0.22510  0.50000  0.00000  Biso   1.000  O
  H34      1.0000 0.19380  0.50000  0.00000  Biso   1.000  H
  O19      1.0000 0.27490  0.00000  0.00000  Biso   1.000  O
  H35      1.0000 0.30620  0.00000  0.00000  Biso   1.000  H
  O20      1.0000 0.77490  0.50000  0.00000  Biso   1.000  O
  H36      1.0000 0.80620  0.50000  0.00000  Biso   1.000  H
  C33      1.0000 0.80620  0.00000  0.86750  Biso   1.000  C
  C34      1.0000 0.83280  0.00000  0.81710  Biso   1.000  C
  C35      1.0000 0.89338  0.00000  0.70220  Biso   1.000  C
  C36      1.0000 0.92369  0.00000  0.64470  Biso   1.000  C
  C37      1.0000 0.96660  0.00000  0.67140  Biso   1.000  C
  C38      1.0000 0.90959  0.00000  0.56330  Biso   1.000  C
  C39      1.0000 0.97940  0.00000  0.74580  Biso   1.000  C
  C40      1.0000 0.87040  0.00000  0.53910  Biso   1.000  C
  H37      1.0000 0.96100  0.00000  0.79380  Biso   1.000  H
  H38      1.0000 0.84510  0.00000  0.57400  Biso   1.000  H
  C41      1.0000 0.30620  0.50000  0.86750  Biso   1.000  C
  C42      1.0000 0.33280  0.50000  0.81710  Biso   1.000  C
  C43      1.0000 0.39338  0.50000  0.70220  Biso   1.000  C
  C44      1.0000 0.42369  0.50000  0.64470  Biso   1.000  C
  C45      1.0000 0.46660  0.50000  0.67140  Biso   1.000  C
  C46      1.0000 0.40959  0.50000  0.56330  Biso   1.000  C
  C47      1.0000 0.47940  0.50000  0.74580  Biso   1.000  C
  C48      1.0000 0.37040  0.50000  0.53910  Biso   1.000  C
  H39      1.0000 0.46100  0.50000  0.79380  Biso   1.000  H
  H40      1.0000 0.34510  0.50000  0.57400  Biso   1.000  H
  C49      1.0000 0.19380  0.00000  0.86750  Biso   1.000  C
  C50      1.0000 0.16720  0.00000  0.81710  Biso   1.000  C
  C51      1.0000 0.10662  0.00000  0.70220  Biso   1.000  C
  C52      1.0000 0.07631  0.00000  0.64470  Biso   1.000  C
  C53      1.0000 0.03340  0.00000  0.67140  Biso   1.000  C
  C54      1.0000 0.09041  0.00000  0.56330  Biso   1.000  C
  C55      1.0000 0.02060  0.00000  0.74580  Biso   1.000  C
  C56      1.0000 0.12960  0.00000  0.53910  Biso   1.000  C
  H41      1.0000 0.03900  0.00000  0.79380  Biso   1.000  H
  H42      1.0000 0.15490  0.00000  0.57400  Biso   1.000  H
  C57      1.0000 0.69380  0.50000  0.86750  Biso   1.000  C
  C58      1.0000 0.66720  0.50000  0.81710  Biso   1.000  C
  C59      1.0000 0.60662  0.50000  0.70220  Biso   1.000  C
  C60      1.0000 0.57631  0.50000  0.64470  Biso   1.000  C
  C61      1.0000 0.53340  0.50000  0.67140  Biso   1.000  C
  C62      1.0000 0.59041  0.50000  0.56330  Biso   1.000  C
  C63      1.0000 0.52060  0.50000  0.74580  Biso   1.000  C
  C64      1.0000 0.62960  0.50000  0.53910  Biso   1.000  C
  H43      1.0000 0.53900  0.50000  0.79380  Biso   1.000  H
  H44      1.0000 0.65490  0.50000  0.57400  Biso   1.000  H
  C65      1.0000 0.19380  0.00000  0.13250  Biso   1.000  C
  C66      1.0000 0.16720  0.00000  0.18290  Biso   1.000  C
  C67      1.0000 0.10662  0.00000  0.29780  Biso   1.000  C
  C68      1.0000 0.07631  0.00000  0.35530  Biso   1.000  C
  C69      1.0000 0.03340  0.00000  0.32860  Biso   1.000  C
  C70      1.0000 0.09041  0.00000  0.43670  Biso   1.000  C
  C71      1.0000 0.02060  0.00000  0.25420  Biso   1.000  C
  C72      1.0000 0.12960  0.00000  0.46090  Biso   1.000  C
  H45      1.0000 0.03900  0.00000  0.20620  Biso   1.000  H
  H46      1.0000 0.15490  0.00000  0.42600  Biso   1.000  H
  C73      1.0000 0.69380  0.50000  0.13250  Biso   1.000  C
  C74      1.0000 0.66720  0.50000  0.18290  Biso   1.000  C
  C75      1.0000 0.60662  0.50000  0.29780  Biso   1.000  C
  C76      1.0000 0.57631  0.50000  0.35530  Biso   1.000  C
  C77      1.0000 0.53340  0.50000  0.32860  Biso   1.000  C
  C78      1.0000 0.59041  0.50000  0.43670  Biso   1.000  C
  C79      1.0000 0.52060  0.50000  0.25420  Biso   1.000  C
  C80      1.0000 0.62960  0.50000  0.46090  Biso   1.000  C
  H47      1.0000 0.53900  0.50000  0.20620  Biso   1.000  H
  H48      1.0000 0.65490  0.50000  0.42600  Biso   1.000  H
  C81      1.0000 0.80620  0.00000  0.13250  Biso   1.000  C
  C82      1.0000 0.83280  0.00000  0.18290  Biso   1.000  C
  C83      1.0000 0.89338  0.00000  0.29780  Biso   1.000  C
  C84      1.0000 0.92369  0.00000  0.35530  Biso   1.000  C
  C85      1.0000 0.96660  0.00000  0.32860  Biso   1.000  C
  C86      1.0000 0.90959  0.00000  0.43670  Biso   1.000  C
  C87      1.0000 0.97940  0.00000  0.25420  Biso   1.000  C
  C88      1.0000 0.87040  0.00000  0.46090  Biso   1.000  C
  H49      1.0000 0.96100  0.00000  0.20620  Biso   1.000  H
  H50      1.0000 0.84510  0.00000  0.42600  Biso   1.000  H
  C89      1.0000 0.30620  0.50000  0.13250  Biso   1.000  C
  C90      1.0000 0.33280  0.50000  0.18290  Biso   1.000  C
  C91      1.0000 0.39338  0.50000  0.29780  Biso   1.000  C
  C92      1.0000 0.42369  0.50000  0.35530  Biso   1.000  C
  C93      1.0000 0.46660  0.50000  0.32860  Biso   1.000  C
  C94      1.0000 0.40959  0.50000  0.43670  Biso   1.000  C
  C95      1.0000 0.47940  0.50000  0.25420  Biso   1.000  C
  C96      1.0000 0.37040  0.50000  0.46090  Biso   1.000  C
  H51      1.0000 0.46100  0.50000  0.20620  Biso   1.000  H
  H52      1.0000 0.34510  0.50000  0.42600  Biso   1.000  H
  N1       1.0000 0.00000  0.00000  0.62550  Biso   1.000  N
  H53      1.0000 0.00000  0.00000  0.56620  Biso   1.000  H
  N2       1.0000 0.50000  0.50000  0.62550  Biso   1.000  N
  H54      1.0000 0.50000  0.50000  0.56620  Biso   1.000  H
  N3       1.0000 0.00000  0.00000  0.37450  Biso   1.000  N
  H55      1.0000 0.00000  0.00000  0.43380  Biso   1.000  H
  N4       1.0000 0.50000  0.50000  0.37450  Biso   1.000  N
  H56      1.0000 0.50000  0.50000  0.43380  Biso   1.000  H
  N5       1.0000 0.93380  0.00000  0.50000  Biso   1.000  N
  H57      1.0000 0.96510  0.00000  0.50000  Biso   1.000  H
  N6       1.0000 0.43380  0.50000  0.50000  Biso   1.000  N
  H58      1.0000 0.46510  0.50000  0.50000  Biso   1.000  H
  N7       1.0000 0.06620  0.00000  0.50000  Biso   1.000  N
  H59      1.0000 0.03490  0.00000  0.50000  Biso   1.000  H
  N8       1.0000 0.56620  0.50000  0.50000  Biso   1.000  N
  H60      1.0000 0.53490  0.50000  0.50000  Biso   1.000  H
