data_image0
_cell_length_a       9.9545
_cell_length_b       13.1364
_cell_length_c       11.0094
_cell_angle_alpha    90
_cell_angle_beta     101.703
_cell_angle_gamma    90

_symmetry_space_group_name_H-M    "P 1"
_symmetry_int_tables_number       1

loop_
  _symmetry_equiv_pos_as_xyz
  'x, y, z'

loop_
  _atom_site_label
  _atom_site_occupancy
  _atom_site_fract_x
  _atom_site_fract_y
  _atom_site_fract_z
  _atom_site_thermal_displace_type
  _atom_site_B_iso_or_equiv
  _atom_site_type_symbol
  C1       1.0000 0.40150  0.50470  0.98830  Biso   1.000  C
  C2       1.0000 0.15060  0.38250  0.48100  Biso   1.000  C
  C3       1.0000 0.16420  0.47870  0.43600  Biso   1.000  C
  H1       1.0000 0.17890  0.48800  0.35600  Biso   1.000  H
  C4       1.0000 0.13060  0.37210  0.60020  Biso   1.000  C
  H2       1.0000 0.11780  0.30810  0.63200  Biso   1.000  H
  C5       1.0000 0.12980  0.45690  0.67130  Biso   1.000  C
  H3       1.0000 0.12020  0.44860  0.75300  Biso   1.000  H
  C6       1.0000 0.46550  0.90020  0.46510  Biso   1.000  C
  H4       1.0000 0.54280  0.85930  0.48750  Biso   1.000  H
  C7       1.0000 0.15580  0.56140  0.51160  Biso   1.000  C
  H5       1.0000 0.15980  0.62660  0.47960  Biso   1.000  H
  C8       1.0000 0.50880  0.36270  0.10760  Biso   1.000  C
  H6       1.0000 0.58780  0.32520  0.13790  Biso   1.000  H
  C9       1.0000 0.46720  0.98390  0.38930  Biso   1.000  C
  H7       1.0000 0.54740  0.99860  0.36170  Biso   1.000  H
  C10      1.0000 0.15570  0.29090  0.39720  Biso   1.000  C
  C11      1.0000 0.23460  0.94010  0.47010  Biso   1.000  C
  H8       1.0000 0.15320  0.92710  0.49640  Biso   1.000  H
  C12      1.0000 0.24360  0.02230  0.39280  Biso   1.000  C
  H9       1.0000 0.16670  0.06310  0.36730  Biso   1.000  H
  C13      1.0000 0.28160  0.47710  0.02530  Biso   1.000  C
  H10      1.0000 0.20230  0.51560  0.00050  Biso   1.000  H
  C14      1.0000 0.51740  0.44610  0.03210  Biso   1.000  C
  H11      1.0000 0.60050  0.46270  0.01090  Biso   1.000  H
  C15      1.0000 0.28040  0.39300  0.09850  Biso   1.000  C
  H12      1.0000 0.19860  0.37570  0.12170  Biso   1.000  H
  C16      1.0000 0.40980  0.59590  0.90700  Biso   1.000  C
  C17      1.0000 0.09000  0.09650  0.09690  Biso   1.000  C
  C18      1.0000 0.10140  0.00410  0.01930  Biso   1.000  C
  C19      1.0000 0.09900  0.90540  0.06310  Biso   1.000  C
  H13      1.0000 0.09280  0.89420  0.14520  Biso   1.000  H
  C20      1.0000 0.11170  0.92780  0.82290  Biso   1.000  C
  H14      1.0000 0.11460  0.93680  0.73970  Biso   1.000  H
  C21      1.0000 0.10790  0.01360  0.89570  Biso   1.000  C
  H15      1.0000 0.10970  0.07800  0.86100  Biso   1.000  H
  C22      1.0000 0.34600  0.87820  0.50740  Biso   1.000  C
  C23      1.0000 0.10580  0.82310  0.98570  Biso   1.000  C
  H16      1.0000 0.10630  0.75790  0.01870  Biso   1.000  H
  C24      1.0000 0.34240  0.79070  0.59880  Biso   1.000  C
  Mn1      1.0000 0.87371  0.19264  0.25222  Biso   1.000  Mn
  Mn2      1.0000 0.37558  0.19159  0.24664  Biso   1.000  Mn
  N1       1.0000 0.14190  0.55070  0.63010  Biso   1.000  N
  N2       1.0000 0.39030  0.33410  0.13850  Biso   1.000  N
  N3       1.0000 0.35810  0.04480  0.35400  Biso   1.000  N
  N4       1.0000 0.11150  0.83280  0.86650  Biso   1.000  N
  O1       1.0000 0.26140  0.28380  0.35590  Biso   1.000  O
  O2       1.0000 0.05810  0.22850  0.38890  Biso   1.000  O
  O3       1.0000 0.18410  0.15900  0.11470  Biso   1.000  O
  O4       1.0000 0.98590  0.09900  0.14570  Biso   1.000  O
  O5       1.0000 0.51830  0.60690  0.86900  Biso   1.000  O
  O6       1.0000 0.44040  0.72980  0.61570  Biso   1.000  O
  O7       1.0000 0.23350  0.78650  0.63790  Biso   1.000  O
  O8       1.0000 0.30550  0.65000  0.87780  Biso   1.000  O
  C25      1.0000 0.59850  0.00470  0.01170  Biso   1.000  C
  C26      1.0000 0.84940  0.88250  0.51900  Biso   1.000  C
  C27      1.0000 0.83580  0.97870  0.56400  Biso   1.000  C
  H17      1.0000 0.82110  0.98800  0.64400  Biso   1.000  H
  C28      1.0000 0.86940  0.87210  0.39980  Biso   1.000  C
  H18      1.0000 0.88220  0.80810  0.36800  Biso   1.000  H
  C29      1.0000 0.87020  0.95690  0.32870  Biso   1.000  C
  H19      1.0000 0.87980  0.94860  0.24700  Biso   1.000  H
  C30      1.0000 0.53450  0.40020  0.53490  Biso   1.000  C
  H20      1.0000 0.45720  0.35930  0.51250  Biso   1.000  H
  C31      1.0000 0.84420  0.06140  0.48840  Biso   1.000  C
  H21      1.0000 0.84020  0.12660  0.52040  Biso   1.000  H
  C32      1.0000 0.49120  0.86270  0.89240  Biso   1.000  C
  H22      1.0000 0.41220  0.82520  0.86210  Biso   1.000  H
  C33      1.0000 0.53280  0.48390  0.61070  Biso   1.000  C
  H23      1.0000 0.45260  0.49860  0.63830  Biso   1.000  H
  C34      1.0000 0.84430  0.79090  0.60280  Biso   1.000  C
  C35      1.0000 0.76540  0.44010  0.52990  Biso   1.000  C
  H24      1.0000 0.84680  0.42710  0.50360  Biso   1.000  H
  C36      1.0000 0.75640  0.52230  0.60720  Biso   1.000  C
  H25      1.0000 0.83330  0.56310  0.63270  Biso   1.000  H
  C37      1.0000 0.71840  0.97710  0.97470  Biso   1.000  C
  H26      1.0000 0.79770  0.01560  0.99950  Biso   1.000  H
  C38      1.0000 0.48260  0.94610  0.96790  Biso   1.000  C
  H27      1.0000 0.39950  0.96270  0.98910  Biso   1.000  H
  C39      1.0000 0.71960  0.89300  0.90150  Biso   1.000  C
  H28      1.0000 0.80140  0.87570  0.87830  Biso   1.000  H
  C40      1.0000 0.59020  0.09590  0.09300  Biso   1.000  C
  C41      1.0000 0.91000  0.59650  0.90310  Biso   1.000  C
  C42      1.0000 0.89860  0.50410  0.98070  Biso   1.000  C
  C43      1.0000 0.90100  0.40540  0.93690  Biso   1.000  C
  H29      1.0000 0.90720  0.39420  0.85480  Biso   1.000  H
  C44      1.0000 0.88830  0.42780  0.17710  Biso   1.000  C
  H30      1.0000 0.88540  0.43680  0.26030  Biso   1.000  H
  C45      1.0000 0.89210  0.51360  0.10430  Biso   1.000  C
  H31      1.0000 0.89030  0.57800  0.13900  Biso   1.000  H
  C46      1.0000 0.65400  0.37820  0.49260  Biso   1.000  C
  C47      1.0000 0.89420  0.32310  0.01430  Biso   1.000  C
  H32      1.0000 0.89370  0.25790  0.98130  Biso   1.000  H
  C48      1.0000 0.65760  0.29070  0.40120  Biso   1.000  C
  Mn3      1.0000 0.12629  0.69264  0.74778  Biso   1.000  Mn
  Mn4      1.0000 0.62442  0.69159  0.75336  Biso   1.000  Mn
  N5       1.0000 0.85810  0.05070  0.36990  Biso   1.000  N
  N6       1.0000 0.60970  0.83410  0.86150  Biso   1.000  N
  N7       1.0000 0.64190  0.54480  0.64600  Biso   1.000  N
  N8       1.0000 0.88850  0.33280  0.13350  Biso   1.000  N
  O9       1.0000 0.73860  0.78380  0.64410  Biso   1.000  O
  O10      1.0000 0.94190  0.72850  0.61110  Biso   1.000  O
  O11      1.0000 0.81590  0.65900  0.88530  Biso   1.000  O
  O12      1.0000 0.01410  0.59900  0.85430  Biso   1.000  O
  O13      1.0000 0.48170  0.10690  0.13100  Biso   1.000  O
  O14      1.0000 0.55960  0.22980  0.38430  Biso   1.000  O
  O15      1.0000 0.76650  0.28650  0.36210  Biso   1.000  O
  O16      1.0000 0.69450  0.15000  0.12220  Biso   1.000  O
