data_image0
_cell_length_a       10.0269
_cell_length_b       16.4397
_cell_length_c       12.7548
_cell_angle_alpha    90
_cell_angle_beta     90.645
_cell_angle_gamma    90

_symmetry_space_group_name_H-M    "P 1"
_symmetry_int_tables_number       1

loop_
  _symmetry_equiv_pos_as_xyz
  'x, y, z'

loop_
  _atom_site_label
  _atom_site_occupancy
  _atom_site_fract_x
  _atom_site_fract_y
  _atom_site_fract_z
  _atom_site_thermal_displace_type
  _atom_site_B_iso_or_equiv
  _atom_site_type_symbol
  Mn1      1.0000 0.75160  0.00013  0.49823  Biso   1.000  Mn
  C1       1.0000 0.76050  0.80600  0.45160  Biso   1.000  C
  H1       1.0000 0.72700  0.80300  0.51920  Biso   1.000  H
  C2       1.0000 0.58880  0.13410  0.61930  Biso   1.000  C
  H2       1.0000 0.51960  0.09880  0.60150  Biso   1.000  H
  C3       1.0000 0.56050  0.20050  0.68040  Biso   1.000  C
  H3       1.0000 0.47410  0.20900  0.70360  Biso   1.000  H
  O1       1.0000 0.37920  0.43302  0.90240  Biso   1.000  O
  O2       1.0000 0.59160  0.47215  0.88830  Biso   1.000  O
  C4       1.0000 0.78310  0.73430  0.39800  Biso   1.000  C
  H4       1.0000 0.76470  0.68470  0.42960  Biso   1.000  H
  O3       1.0000 0.91320  0.51831  0.10970  Biso   1.000  O
  C5       1.0000 0.86440  0.66020  0.24030  Biso   1.000  C
  H5       1.0000 0.81530  0.61400  0.25650  Biso   1.000  H
  O4       1.0000 0.11970  0.56881  0.10140  Biso   1.000  O
  C6       1.0000 0.95680  0.65350  0.16830  Biso   1.000  C
  H6       1.0000 0.99900  0.70060  0.14540  Biso   1.000  H
  C7       1.0000 0.52040  0.34890  0.80910  Biso   1.000  C
  H7       1.0000 0.44800  0.31510  0.79510  Biso   1.000  H
  C8       1.0000 0.78720  0.23870  0.66940  Biso   1.000  C
  H8       1.0000 0.85760  0.27390  0.68430  Biso   1.000  H
  C9       1.0000 0.80820  0.16990  0.60930  Biso   1.000  C
  H9       1.0000 0.89380  0.15970  0.58530  Biso   1.000  H
  C10      1.0000 0.85500  0.81270  0.25470  Biso   1.000  C
  H10      1.0000 0.88660  0.81760  0.18670  Biso   1.000  H
  C11      1.0000 0.83310  0.73620  0.29740  Biso   1.000  C
  N1       1.0000 0.78460  0.87959  0.41090  Biso   1.000  N
  C12      1.0000 0.82990  0.88120  0.31290  Biso   1.000  C
  H11      1.0000 0.84540  0.93160  0.28230  Biso   1.000  H
  N2       1.0000 0.71190  0.11752  0.58420  Biso   1.000  N
  C13      1.0000 0.66080  0.25510  0.70740  Biso   1.000  C
  C14      1.0000 0.63750  0.32770  0.77170  Biso   1.000  C
  H12      1.0000 0.71020  0.36100  0.78710  Biso   1.000  H
  C15      1.0000 0.99750  0.57360  0.12150  Biso   1.000  C
  C16      1.0000 0.49680  0.42380  0.87280  Biso   1.000  C
  Mn2      1.0000 0.24840  0.50013  0.00177  Biso   1.000  Mn
  C17      1.0000 0.23950  0.30600  0.04840  Biso   1.000  C
  H13      1.0000 0.27300  0.30300  0.98080  Biso   1.000  H
  C18      1.0000 0.41120  0.63410  0.88070  Biso   1.000  C
  H14      1.0000 0.48040  0.59880  0.89850  Biso   1.000  H
  C19      1.0000 0.43950  0.70050  0.81960  Biso   1.000  C
  H15      1.0000 0.52590  0.70900  0.79640  Biso   1.000  H
  O5       1.0000 0.62080  0.93302  0.59760  Biso   1.000  O
  O6       1.0000 0.40840  0.97215  0.61170  Biso   1.000  O
  C20      1.0000 0.21690  0.23430  0.10200  Biso   1.000  C
  H16      1.0000 0.23530  0.18470  0.07040  Biso   1.000  H
  O7       1.0000 0.08680  0.01831  0.39030  Biso   1.000  O
  C21      1.0000 0.13560  0.16020  0.25970  Biso   1.000  C
  H17      1.0000 0.18470  0.11400  0.24350  Biso   1.000  H
  O8       1.0000 0.88030  0.06881  0.39860  Biso   1.000  O
  C22      1.0000 0.04320  0.15350  0.33170  Biso   1.000  C
  H18      1.0000 0.00100  0.20060  0.35460  Biso   1.000  H
  C23      1.0000 0.47960  0.84890  0.69090  Biso   1.000  C
  H19      1.0000 0.55200  0.81510  0.70490  Biso   1.000  H
  C24      1.0000 0.21280  0.73870  0.83060  Biso   1.000  C
  H20      1.0000 0.14240  0.77390  0.81570  Biso   1.000  H
  C25      1.0000 0.19180  0.66990  0.89070  Biso   1.000  C
  H21      1.0000 0.10620  0.65970  0.91470  Biso   1.000  H
  C26      1.0000 0.14500  0.31270  0.24530  Biso   1.000  C
  H22      1.0000 0.11340  0.31760  0.31330  Biso   1.000  H
  C27      1.0000 0.16690  0.23620  0.20260  Biso   1.000  C
  N3       1.0000 0.21540  0.37959  0.08910  Biso   1.000  N
  C28      1.0000 0.17010  0.38120  0.18710  Biso   1.000  C
  H23      1.0000 0.15460  0.43160  0.21770  Biso   1.000  H
  N4       1.0000 0.28810  0.61752  0.91580  Biso   1.000  N
  C29      1.0000 0.33920  0.75510  0.79260  Biso   1.000  C
  C30      1.0000 0.36250  0.82770  0.72830  Biso   1.000  C
  H24      1.0000 0.28980  0.86100  0.71290  Biso   1.000  H
  C31      1.0000 0.00250  0.07360  0.37850  Biso   1.000  C
  C32      1.0000 0.50320  0.92380  0.62720  Biso   1.000  C
  Mn3      1.0000 0.24840  0.99987  0.50177  Biso   1.000  Mn
  C33      1.0000 0.23950  0.19400  0.54840  Biso   1.000  C
  H25      1.0000 0.27300  0.19700  0.48080  Biso   1.000  H
  C34      1.0000 0.41120  0.86590  0.38070  Biso   1.000  C
  H26      1.0000 0.48040  0.90120  0.39850  Biso   1.000  H
  C35      1.0000 0.43950  0.79950  0.31960  Biso   1.000  C
  H27      1.0000 0.52590  0.79100  0.29640  Biso   1.000  H
  O9       1.0000 0.62080  0.56698  0.09760  Biso   1.000  O
  O10      1.0000 0.40840  0.52785  0.11170  Biso   1.000  O
  C36      1.0000 0.21690  0.26570  0.60200  Biso   1.000  C
  H28      1.0000 0.23530  0.31530  0.57040  Biso   1.000  H
  O11      1.0000 0.08680  0.48169  0.89030  Biso   1.000  O
  C37      1.0000 0.13560  0.33980  0.75970  Biso   1.000  C
  H29      1.0000 0.18470  0.38600  0.74350  Biso   1.000  H
  O12      1.0000 0.88030  0.43119  0.89860  Biso   1.000  O
  C38      1.0000 0.04320  0.34650  0.83170  Biso   1.000  C
  H30      1.0000 0.00100  0.29940  0.85460  Biso   1.000  H
  C39      1.0000 0.47960  0.65110  0.19090  Biso   1.000  C
  H31      1.0000 0.55200  0.68490  0.20490  Biso   1.000  H
  C40      1.0000 0.21280  0.76130  0.33060  Biso   1.000  C
  H32      1.0000 0.14240  0.72610  0.31570  Biso   1.000  H
  C41      1.0000 0.19180  0.83010  0.39070  Biso   1.000  C
  H33      1.0000 0.10620  0.84030  0.41470  Biso   1.000  H
  C42      1.0000 0.14500  0.18730  0.74530  Biso   1.000  C
  H34      1.0000 0.11340  0.18240  0.81330  Biso   1.000  H
  C43      1.0000 0.16690  0.26380  0.70260  Biso   1.000  C
  N5       1.0000 0.21540  0.12041  0.58910  Biso   1.000  N
  C44      1.0000 0.17010  0.11880  0.68710  Biso   1.000  C
  H35      1.0000 0.15460  0.06840  0.71770  Biso   1.000  H
  N6       1.0000 0.28810  0.88248  0.41580  Biso   1.000  N
  C45      1.0000 0.33920  0.74490  0.29260  Biso   1.000  C
  C46      1.0000 0.36250  0.67230  0.22830  Biso   1.000  C
  H36      1.0000 0.28980  0.63900  0.21290  Biso   1.000  H
  C47      1.0000 0.00250  0.42640  0.87850  Biso   1.000  C
  C48      1.0000 0.50320  0.57620  0.12720  Biso   1.000  C
  Mn4      1.0000 0.75160  0.49987  0.99823  Biso   1.000  Mn
  C49      1.0000 0.76050  0.69400  0.95160  Biso   1.000  C
  H37      1.0000 0.72700  0.69700  0.01920  Biso   1.000  H
  C50      1.0000 0.58880  0.36590  0.11930  Biso   1.000  C
  H38      1.0000 0.51960  0.40120  0.10150  Biso   1.000  H
  C51      1.0000 0.56050  0.29950  0.18040  Biso   1.000  C
  H39      1.0000 0.47410  0.29100  0.20360  Biso   1.000  H
  O13      1.0000 0.37920  0.06698  0.40240  Biso   1.000  O
  O14      1.0000 0.59160  0.02785  0.38830  Biso   1.000  O
  C52      1.0000 0.78310  0.76570  0.89800  Biso   1.000  C
  H40      1.0000 0.76470  0.81530  0.92960  Biso   1.000  H
  O15      1.0000 0.91320  0.98169  0.60970  Biso   1.000  O
  C53      1.0000 0.86440  0.83980  0.74030  Biso   1.000  C
  H41      1.0000 0.81530  0.88600  0.75650  Biso   1.000  H
  O16      1.0000 0.11970  0.93119  0.60140  Biso   1.000  O
  C54      1.0000 0.95680  0.84650  0.66830  Biso   1.000  C
  H42      1.0000 0.99900  0.79940  0.64540  Biso   1.000  H
  C55      1.0000 0.52040  0.15110  0.30910  Biso   1.000  C
  H43      1.0000 0.44800  0.18490  0.29510  Biso   1.000  H
  C56      1.0000 0.78720  0.26130  0.16940  Biso   1.000  C
  H44      1.0000 0.85760  0.22610  0.18430  Biso   1.000  H
  C57      1.0000 0.80820  0.33010  0.10930  Biso   1.000  C
  H45      1.0000 0.89380  0.34030  0.08530  Biso   1.000  H
  C58      1.0000 0.85500  0.68730  0.75470  Biso   1.000  C
  H46      1.0000 0.88660  0.68240  0.68670  Biso   1.000  H
  C59      1.0000 0.83310  0.76380  0.79740  Biso   1.000  C
  N7       1.0000 0.78460  0.62041  0.91090  Biso   1.000  N
  C60      1.0000 0.82990  0.61880  0.81290  Biso   1.000  C
  H47      1.0000 0.84540  0.56840  0.78230  Biso   1.000  H
  N8       1.0000 0.71190  0.38248  0.08420  Biso   1.000  N
  C61      1.0000 0.66080  0.24490  0.20740  Biso   1.000  C
  C62      1.0000 0.63750  0.17230  0.27170  Biso   1.000  C
  H48      1.0000 0.71020  0.13900  0.28710  Biso   1.000  H
  C63      1.0000 0.99750  0.92640  0.62150  Biso   1.000  C
  C64      1.0000 0.49680  0.07620  0.37280  Biso   1.000  C
