data_image0
_cell_length_a       10.6945
_cell_length_b       18.576
_cell_length_c       14.9208
_cell_angle_alpha    90
_cell_angle_beta     107.758
_cell_angle_gamma    90

_symmetry_space_group_name_H-M    "P 1"
_symmetry_int_tables_number       1

loop_
  _symmetry_equiv_pos_as_xyz
  'x, y, z'

loop_
  _atom_site_label
  _atom_site_occupancy
  _atom_site_fract_x
  _atom_site_fract_y
  _atom_site_fract_z
  _atom_site_thermal_displace_type
  _atom_site_B_iso_or_equiv
  _atom_site_type_symbol
  Cd1      1.0000 0.67055  0.01133  0.67012  Biso   1.000  Cd
  O1       1.0000 0.67870  0.00245  0.82530  Biso   1.000  O
  O2       1.0000 0.66470  0.47467  0.01360  Biso   1.000  O
  O3       1.0000 0.98060  0.01926  0.84500  Biso   1.000  O
  F1       1.0000 0.03880  0.29147  0.09460  Biso   1.000  F
  C1       1.0000 0.70460  0.94950  0.88110  Biso   1.000  C
  O4       1.0000 0.85550  0.07884  0.71990  Biso   1.000  O
  C2       1.0000 0.07410  0.27110  0.80530  Biso   1.000  C
  C3       1.0000 0.61170  0.43130  0.94830  Biso   1.000  C
  F2       1.0000 0.38500  0.79970  0.76000  Biso   1.000  F
  N1       1.0000 0.91760  0.11650  0.01150  Biso   1.000  N
  O5       1.0000 0.79550  0.94681  0.95760  Biso   1.000  O
  C4       1.0000 0.56930  0.75560  0.87980  Biso   1.000  C
  C5       1.0000 0.94940  0.07490  0.79420  Biso   1.000  C
  C6       1.0000 0.64000  0.82420  0.90250  Biso   1.000  C
  H1       1.0000 0.70790  0.82570  0.95900  Biso   1.000  H
  N2       1.0000 0.44300  0.62010  0.84590  Biso   1.000  N
  C7       1.0000 0.95070  0.23980  0.05370  Biso   1.000  C
  C8       1.0000 0.03360  0.13990  0.82410  Biso   1.000  C
  H2       1.0000 0.11510  0.13530  0.86940  Biso   1.000  H
  C9       1.0000 0.61860  0.88460  0.85160  Biso   1.000  C
  H3       1.0000 0.54850  0.88650  0.79650  Biso   1.000  H
  C10      1.0000 0.99440  0.20480  0.78690  Biso   1.000  C
  H4       1.0000 0.90940  0.20840  0.74600  Biso   1.000  H
  C11      1.0000 0.66310  0.35630  0.95250  Biso   1.000  C
  H5       1.0000 0.61440  0.32370  0.90810  Biso   1.000  H
  C12      1.0000 0.99670  0.17010  0.05380  Biso   1.000  C
  H6       1.0000 0.08490  0.16040  0.08400  Biso   1.000  H
  C13      1.0000 0.77200  0.33210  0.01390  Biso   1.000  C
  H7       1.0000 0.82040  0.36340  0.06020  Biso   1.000  H
  C14      1.0000 0.62440  0.69350  0.92930  Biso   1.000  C
  C15      1.0000 0.73990  0.20060  0.97070  Biso   1.000  C
  H8       1.0000 0.65060  0.20830  0.94250  Biso   1.000  H
  C16      1.0000 0.82050  0.25790  0.01260  Biso   1.000  C
  C17      1.0000 0.20960  0.27270  0.82190  Biso   1.000  C
  H9       1.0000 0.25560  0.22970  0.82620  Biso   1.000  H
  C18      1.0000 0.44780  0.74570  0.81380  Biso   1.000  C
  C19      1.0000 0.79120  0.13230  0.97040  Biso   1.000  C
  H10      1.0000 0.73500  0.09560  0.94020  Biso   1.000  H
  N3       1.0000 0.21660  0.40150  0.82540  Biso   1.000  N
  C20      1.0000 0.27600  0.33730  0.83210  Biso   1.000  C
  H11      1.0000 0.36660  0.33630  0.84430  Biso   1.000  H
  C21      1.0000 0.55900  0.62790  0.91060  Biso   1.000  C
  H12      1.0000 0.59820  0.58770  0.94490  Biso   1.000  H
  C22      1.0000 0.38810  0.67840  0.79620  Biso   1.000  C
  H13      1.0000 0.30840  0.67370  0.74890  Biso   1.000  H
  C23      1.0000 0.01720  0.33850  0.80090  Biso   1.000  C
  O6       1.0000 0.51750  0.44485  0.87600  Biso   1.000  O
  F3       1.0000 0.88560  0.34230  0.78480  Biso   1.000  F
  C24      1.0000 0.08660  0.40130  0.81040  Biso   1.000  C
  H14      1.0000 0.04260  0.44490  0.80630  Biso   1.000  H
  F4       1.0000 0.74310  0.69430  0.98030  Biso   1.000  F
  Cd2      1.0000 0.32945  0.51133  0.82988  Biso   1.000  Cd
  O7       1.0000 0.32130  0.50245  0.67470  Biso   1.000  O
  O8       1.0000 0.33530  0.97467  0.48640  Biso   1.000  O
  O9       1.0000 0.01940  0.51926  0.65500  Biso   1.000  O
  F5       1.0000 0.96120  0.79147  0.40540  Biso   1.000  F
  C25      1.0000 0.29540  0.44950  0.61890  Biso   1.000  C
  O10      1.0000 0.14450  0.57884  0.78010  Biso   1.000  O
  C26      1.0000 0.92590  0.77110  0.69470  Biso   1.000  C
  C27      1.0000 0.38830  0.93130  0.55170  Biso   1.000  C
  F6       1.0000 0.61500  0.29970  0.74000  Biso   1.000  F
  N4       1.0000 0.08240  0.61650  0.48850  Biso   1.000  N
  O11      1.0000 0.20450  0.44681  0.54240  Biso   1.000  O
  C28      1.0000 0.43070  0.25560  0.62020  Biso   1.000  C
  C29      1.0000 0.05060  0.57490  0.70580  Biso   1.000  C
  C30      1.0000 0.36000  0.32420  0.59750  Biso   1.000  C
  H15      1.0000 0.29210  0.32570  0.54100  Biso   1.000  H
  N5       1.0000 0.55700  0.12010  0.65410  Biso   1.000  N
  C31      1.0000 0.04930  0.73980  0.44630  Biso   1.000  C
  C32      1.0000 0.96640  0.63990  0.67590  Biso   1.000  C
  H16      1.0000 0.88490  0.63530  0.63060  Biso   1.000  H
  C33      1.0000 0.38140  0.38460  0.64840  Biso   1.000  C
  H17      1.0000 0.45150  0.38650  0.70350  Biso   1.000  H
  C34      1.0000 0.00560  0.70480  0.71310  Biso   1.000  C
  H18      1.0000 0.09060  0.70840  0.75400  Biso   1.000  H
  C35      1.0000 0.33690  0.85630  0.54750  Biso   1.000  C
  H19      1.0000 0.38560  0.82370  0.59190  Biso   1.000  H
  C36      1.0000 0.00330  0.67010  0.44620  Biso   1.000  C
  H20      1.0000 0.91510  0.66040  0.41600  Biso   1.000  H
  C37      1.0000 0.22800  0.83210  0.48610  Biso   1.000  C
  H21      1.0000 0.17960  0.86340  0.43980  Biso   1.000  H
  C38      1.0000 0.37560  0.19350  0.57070  Biso   1.000  C
  C39      1.0000 0.26010  0.70060  0.52930  Biso   1.000  C
  H22      1.0000 0.34940  0.70830  0.55750  Biso   1.000  H
  C40      1.0000 0.17950  0.75790  0.48740  Biso   1.000  C
  C41      1.0000 0.79040  0.77270  0.67810  Biso   1.000  C
  H23      1.0000 0.74440  0.72970  0.67380  Biso   1.000  H
  C42      1.0000 0.55220  0.24570  0.68620  Biso   1.000  C
  C43      1.0000 0.20880  0.63230  0.52960  Biso   1.000  C
  H24      1.0000 0.26500  0.59560  0.55980  Biso   1.000  H
  N6       1.0000 0.78340  0.90150  0.67460  Biso   1.000  N
  C44      1.0000 0.72400  0.83730  0.66790  Biso   1.000  C
  H25      1.0000 0.63340  0.83630  0.65570  Biso   1.000  H
  C45      1.0000 0.44100  0.12790  0.58940  Biso   1.000  C
  H26      1.0000 0.40180  0.08770  0.55510  Biso   1.000  H
  C46      1.0000 0.61190  0.17840  0.70380  Biso   1.000  C
  H27      1.0000 0.69160  0.17370  0.75110  Biso   1.000  H
  C47      1.0000 0.98280  0.83850  0.69910  Biso   1.000  C
  O12      1.0000 0.48250  0.94485  0.62400  Biso   1.000  O
  F7       1.0000 0.11440  0.84230  0.71520  Biso   1.000  F
  C48      1.0000 0.91340  0.90130  0.68960  Biso   1.000  C
  H28      1.0000 0.95740  0.94490  0.69370  Biso   1.000  H
  F8       1.0000 0.25690  0.19430  0.51970  Biso   1.000  F
  Cd3      1.0000 0.32945  0.98867  0.32988  Biso   1.000  Cd
  O13      1.0000 0.32130  0.99755  0.17470  Biso   1.000  O
  O14      1.0000 0.33530  0.52533  0.98640  Biso   1.000  O
  O15      1.0000 0.01940  0.98074  0.15500  Biso   1.000  O
  F9       1.0000 0.96120  0.70853  0.90540  Biso   1.000  F
  C49      1.0000 0.29540  0.05050  0.11890  Biso   1.000  C
  O16      1.0000 0.14450  0.92116  0.28010  Biso   1.000  O
  C50      1.0000 0.92590  0.72890  0.19470  Biso   1.000  C
  C51      1.0000 0.38830  0.56870  0.05170  Biso   1.000  C
  F10      1.0000 0.61500  0.20030  0.24000  Biso   1.000  F
  N7       1.0000 0.08240  0.88350  0.98850  Biso   1.000  N
  O17      1.0000 0.20450  0.05319  0.04240  Biso   1.000  O
  C52      1.0000 0.43070  0.24440  0.12020  Biso   1.000  C
  C53      1.0000 0.05060  0.92510  0.20580  Biso   1.000  C
  C54      1.0000 0.36000  0.17580  0.09750  Biso   1.000  C
  H29      1.0000 0.29210  0.17430  0.04100  Biso   1.000  H
  N8       1.0000 0.55700  0.37990  0.15410  Biso   1.000  N
  C55      1.0000 0.04930  0.76020  0.94630  Biso   1.000  C
  C56      1.0000 0.96640  0.86010  0.17590  Biso   1.000  C
  H30      1.0000 0.88490  0.86470  0.13060  Biso   1.000  H
  C57      1.0000 0.38140  0.11540  0.14840  Biso   1.000  C
  H31      1.0000 0.45150  0.11350  0.20350  Biso   1.000  H
  C58      1.0000 0.00560  0.79520  0.21310  Biso   1.000  C
  H32      1.0000 0.09060  0.79160  0.25400  Biso   1.000  H
  C59      1.0000 0.33690  0.64370  0.04750  Biso   1.000  C
  H33      1.0000 0.38560  0.67630  0.09190  Biso   1.000  H
  C60      1.0000 0.00330  0.82990  0.94620  Biso   1.000  C
  H34      1.0000 0.91510  0.83960  0.91600  Biso   1.000  H
  C61      1.0000 0.22800  0.66790  0.98610  Biso   1.000  C
  H35      1.0000 0.17960  0.63660  0.93980  Biso   1.000  H
  C62      1.0000 0.37560  0.30650  0.07070  Biso   1.000  C
  C63      1.0000 0.26010  0.79940  0.02930  Biso   1.000  C
  H36      1.0000 0.34940  0.79170  0.05750  Biso   1.000  H
  C64      1.0000 0.17950  0.74210  0.98740  Biso   1.000  C
  C65      1.0000 0.79040  0.72730  0.17810  Biso   1.000  C
  H37      1.0000 0.74440  0.77030  0.17380  Biso   1.000  H
  C66      1.0000 0.55220  0.25430  0.18620  Biso   1.000  C
  C67      1.0000 0.20880  0.86770  0.02960  Biso   1.000  C
  H38      1.0000 0.26500  0.90440  0.05980  Biso   1.000  H
  N9       1.0000 0.78340  0.59850  0.17460  Biso   1.000  N
  C68      1.0000 0.72400  0.66270  0.16790  Biso   1.000  C
  H39      1.0000 0.63340  0.66370  0.15570  Biso   1.000  H
  C69      1.0000 0.44100  0.37210  0.08940  Biso   1.000  C
  H40      1.0000 0.40180  0.41230  0.05510  Biso   1.000  H
  C70      1.0000 0.61190  0.32160  0.20380  Biso   1.000  C
  H41      1.0000 0.69160  0.32630  0.25110  Biso   1.000  H
  C71      1.0000 0.98280  0.66150  0.19910  Biso   1.000  C
  O18      1.0000 0.48250  0.55515  0.12400  Biso   1.000  O
  F11      1.0000 0.11440  0.65770  0.21520  Biso   1.000  F
  C72      1.0000 0.91340  0.59870  0.18960  Biso   1.000  C
  H42      1.0000 0.95740  0.55510  0.19370  Biso   1.000  H
  F12      1.0000 0.25690  0.30570  0.01970  Biso   1.000  F
  Cd4      1.0000 0.67055  0.48867  0.17012  Biso   1.000  Cd
  O19      1.0000 0.67870  0.49755  0.32530  Biso   1.000  O
  O20      1.0000 0.66470  0.02533  0.51360  Biso   1.000  O
  O21      1.0000 0.98060  0.48074  0.34500  Biso   1.000  O
  F13      1.0000 0.03880  0.20853  0.59460  Biso   1.000  F
  C73      1.0000 0.70460  0.55050  0.38110  Biso   1.000  C
  O22      1.0000 0.85550  0.42116  0.21990  Biso   1.000  O
  C74      1.0000 0.07410  0.22890  0.30530  Biso   1.000  C
  C75      1.0000 0.61170  0.06870  0.44830  Biso   1.000  C
  F14      1.0000 0.38500  0.70030  0.26000  Biso   1.000  F
  N10      1.0000 0.91760  0.38350  0.51150  Biso   1.000  N
  O23      1.0000 0.79550  0.55319  0.45760  Biso   1.000  O
  C76      1.0000 0.56930  0.74440  0.37980  Biso   1.000  C
  C77      1.0000 0.94940  0.42510  0.29420  Biso   1.000  C
  C78      1.0000 0.64000  0.67580  0.40250  Biso   1.000  C
  H43      1.0000 0.70790  0.67430  0.45900  Biso   1.000  H
  N11      1.0000 0.44300  0.87990  0.34590  Biso   1.000  N
  C79      1.0000 0.95070  0.26020  0.55370  Biso   1.000  C
  C80      1.0000 0.03360  0.36010  0.32410  Biso   1.000  C
  H44      1.0000 0.11510  0.36470  0.36940  Biso   1.000  H
  C81      1.0000 0.61860  0.61540  0.35160  Biso   1.000  C
  H45      1.0000 0.54850  0.61350  0.29650  Biso   1.000  H
  C82      1.0000 0.99440  0.29520  0.28690  Biso   1.000  C
  H46      1.0000 0.90940  0.29160  0.24600  Biso   1.000  H
  C83      1.0000 0.66310  0.14370  0.45250  Biso   1.000  C
  H47      1.0000 0.61440  0.17630  0.40810  Biso   1.000  H
  C84      1.0000 0.99670  0.32990  0.55380  Biso   1.000  C
  H48      1.0000 0.08490  0.33960  0.58400  Biso   1.000  H
  C85      1.0000 0.77200  0.16790  0.51390  Biso   1.000  C
  H49      1.0000 0.82040  0.13660  0.56020  Biso   1.000  H
  C86      1.0000 0.62440  0.80650  0.42930  Biso   1.000  C
  C87      1.0000 0.73990  0.29940  0.47070  Biso   1.000  C
  H50      1.0000 0.65060  0.29170  0.44250  Biso   1.000  H
  C88      1.0000 0.82050  0.24210  0.51260  Biso   1.000  C
  C89      1.0000 0.20960  0.22730  0.32190  Biso   1.000  C
  H51      1.0000 0.25560  0.27030  0.32620  Biso   1.000  H
  C90      1.0000 0.44780  0.75430  0.31380  Biso   1.000  C
  C91      1.0000 0.79120  0.36770  0.47040  Biso   1.000  C
  H52      1.0000 0.73500  0.40440  0.44020  Biso   1.000  H
  N12      1.0000 0.21660  0.09850  0.32540  Biso   1.000  N
  C92      1.0000 0.27600  0.16270  0.33210  Biso   1.000  C
  H53      1.0000 0.36660  0.16370  0.34430  Biso   1.000  H
  C93      1.0000 0.55900  0.87210  0.41060  Biso   1.000  C
  H54      1.0000 0.59820  0.91230  0.44490  Biso   1.000  H
  C94      1.0000 0.38810  0.82160  0.29620  Biso   1.000  C
  H55      1.0000 0.30840  0.82630  0.24890  Biso   1.000  H
  C95      1.0000 0.01720  0.16150  0.30090  Biso   1.000  C
  O24      1.0000 0.51750  0.05515  0.37600  Biso   1.000  O
  F15      1.0000 0.88560  0.15770  0.28480  Biso   1.000  F
  C96      1.0000 0.08660  0.09870  0.31040  Biso   1.000  C
  H56      1.0000 0.04260  0.05510  0.30630  Biso   1.000  H
  F16      1.0000 0.74310  0.80570  0.48030  Biso   1.000  F
  Cd5      1.0000 0.00000  0.00000  0.00000  Biso   1.000  Cd
  Cd6      1.0000 0.00000  0.50000  0.50000  Biso   1.000  Cd
