data_image0
_cell_length_a       14.802
_cell_length_b       14.78
_cell_length_c       20.801
_cell_angle_alpha    90
_cell_angle_beta     90.36
_cell_angle_gamma    90

_symmetry_space_group_name_H-M    "P 1"
_symmetry_int_tables_number       1

loop_
  _symmetry_equiv_pos_as_xyz
  'x, y, z'

loop_
  _atom_site_label
  _atom_site_occupancy
  _atom_site_fract_x
  _atom_site_fract_y
  _atom_site_fract_z
  _atom_site_thermal_displace_type
  _atom_site_B_iso_or_equiv
  _atom_site_type_symbol
  As1      1.0000 0.54589  0.02503  0.37157  Biso   1.000  As
  As2      1.0000 0.38037  0.77363  0.12329  Biso   1.000  As
  As3      1.0000 0.33590  0.23164  0.12136  Biso   1.000  As
  As4      1.0000 0.09077  0.97933  0.32931  Biso   1.000  As
  Mn1      1.0000 0.47288  0.88906  0.24993  Biso   1.000  Mn
  Mn2      1.0000 0.44835  0.13526  0.24599  Biso   1.000  Mn
  Mn3      1.0000 0.31677  0.00072  0.36021  Biso   1.000  Mn
  Mn4      1.0000 0.22698  0.86539  0.22448  Biso   1.000  Mn
  Mn5      1.0000 0.35999  0.00260  0.11497  Biso   1.000  Mn
  Mn6      1.0000 0.20532  0.11259  0.22583  Biso   1.000  Mn
  S1       1.0000 0.33850  0.00040  0.23712  Biso   1.000  S
  S2       1.0000 0.58380  0.02580  0.26670  Biso   1.000  S
  S3       1.0000 0.46150  0.89890  0.37383  Biso   1.000  S
  S4       1.0000 0.36200  0.75360  0.22943  Biso   1.000  S
  S5       1.0000 0.48840  0.88130  0.12509  Biso   1.000  S
  S6       1.0000 0.43660  0.12980  0.37156  Biso   1.000  S
  S7       1.0000 0.46180  0.14740  0.12129  Biso   1.000  S
  S8       1.0000 0.31630  0.24920  0.22787  Biso   1.000  S
  S9       1.0000 0.23300  0.12340  0.10169  Biso   1.000  S
  S10      1.0000 0.19660  0.87270  0.34842  Biso   1.000  S
  S11      1.0000 0.25680  0.85640  0.10105  Biso   1.000  S
  S12      1.0000 0.09150  0.97880  0.22129  Biso   1.000  S
  S13      1.0000 0.17170  0.10450  0.34981  Biso   1.000  S
  N1       1.0000 0.58780  0.78800  0.25950  Biso   1.000  N
  H1       1.0000 0.63980  0.81850  0.25390  Biso   1.000  H
  H2       1.0000 0.58800  0.76770  0.30030  Biso   1.000  H
  N2       1.0000 0.59020  0.71170  0.21880  Biso   1.000  N
  H3       1.0000 0.58830  0.73210  0.17810  Biso   1.000  H
  H4       1.0000 0.53880  0.68050  0.22520  Biso   1.000  H
  N3       1.0000 0.54650  0.25120  0.25230  Biso   1.000  N
  H5       1.0000 0.51680  0.30200  0.24110  Biso   1.000  H
  H6       1.0000 0.56300  0.25740  0.29380  Biso   1.000  H
  N4       1.0000 0.62660  0.24660  0.21500  Biso   1.000  N
  H7       1.0000 0.61030  0.24190  0.17340  Biso   1.000  H
  H8       1.0000 0.65600  0.19540  0.22570  Biso   1.000  H
  N5       1.0000 0.29750  0.00240  0.46910  Biso   1.000  N
  H9       1.0000 0.26680  0.05280  0.47950  Biso   1.000  H
  H10      1.0000 0.26290  0.95470  0.47990  Biso   1.000  H
  N6       1.0000 0.37740  0.99950  0.50730  Biso   1.000  N
  H11      1.0000 0.41130  0.04790  0.49720  Biso   1.000  H
  H12      1.0000 0.40880  0.94990  0.49600  Biso   1.000  H
  As5      1.0000 0.04589  0.52503  0.37157  Biso   1.000  As
  As6      1.0000 0.88037  0.27363  0.12329  Biso   1.000  As
  As7      1.0000 0.83590  0.73164  0.12136  Biso   1.000  As
  As8      1.0000 0.59077  0.47933  0.32931  Biso   1.000  As
  Mn7      1.0000 0.97288  0.38906  0.24993  Biso   1.000  Mn
  Mn8      1.0000 0.94835  0.63526  0.24599  Biso   1.000  Mn
  Mn9      1.0000 0.81677  0.50072  0.36021  Biso   1.000  Mn
  Mn10     1.0000 0.72698  0.36539  0.22448  Biso   1.000  Mn
  Mn11     1.0000 0.85999  0.50260  0.11497  Biso   1.000  Mn
  Mn12     1.0000 0.70532  0.61259  0.22583  Biso   1.000  Mn
  S14      1.0000 0.83850  0.50040  0.23712  Biso   1.000  S
  S15      1.0000 0.08380  0.52580  0.26670  Biso   1.000  S
  S16      1.0000 0.96150  0.39890  0.37383  Biso   1.000  S
  S17      1.0000 0.86200  0.25360  0.22943  Biso   1.000  S
  S18      1.0000 0.98840  0.38130  0.12509  Biso   1.000  S
  S19      1.0000 0.93660  0.62980  0.37156  Biso   1.000  S
  S20      1.0000 0.96180  0.64740  0.12129  Biso   1.000  S
  S21      1.0000 0.81630  0.74920  0.22787  Biso   1.000  S
  S22      1.0000 0.73300  0.62340  0.10169  Biso   1.000  S
  S23      1.0000 0.69660  0.37270  0.34842  Biso   1.000  S
  S24      1.0000 0.75680  0.35640  0.10105  Biso   1.000  S
  S25      1.0000 0.59150  0.47880  0.22129  Biso   1.000  S
  S26      1.0000 0.67170  0.60450  0.34981  Biso   1.000  S
  N7       1.0000 0.08780  0.28800  0.25950  Biso   1.000  N
  H13      1.0000 0.13980  0.31850  0.25390  Biso   1.000  H
  H14      1.0000 0.08800  0.26770  0.30030  Biso   1.000  H
  N8       1.0000 0.09020  0.21170  0.21880  Biso   1.000  N
  H15      1.0000 0.08830  0.23210  0.17810  Biso   1.000  H
  H16      1.0000 0.03880  0.18050  0.22520  Biso   1.000  H
  N9       1.0000 0.04650  0.75120  0.25230  Biso   1.000  N
  H17      1.0000 0.01680  0.80200  0.24110  Biso   1.000  H
  H18      1.0000 0.06300  0.75740  0.29380  Biso   1.000  H
  N10      1.0000 0.12660  0.74660  0.21500  Biso   1.000  N
  H19      1.0000 0.11030  0.74190  0.17340  Biso   1.000  H
  H20      1.0000 0.15600  0.69540  0.22570  Biso   1.000  H
  N11      1.0000 0.79750  0.50240  0.46910  Biso   1.000  N
  H21      1.0000 0.76680  0.55280  0.47950  Biso   1.000  H
  H22      1.0000 0.76290  0.45470  0.47990  Biso   1.000  H
  N12      1.0000 0.87740  0.49950  0.50730  Biso   1.000  N
  H23      1.0000 0.91130  0.54790  0.49720  Biso   1.000  H
  H24      1.0000 0.90880  0.44990  0.49600  Biso   1.000  H
  As9      1.0000 0.54589  0.97497  0.87157  Biso   1.000  As
  As10     1.0000 0.38037  0.22637  0.62329  Biso   1.000  As
  As11     1.0000 0.33590  0.76836  0.62136  Biso   1.000  As
  As12     1.0000 0.09077  0.02067  0.82931  Biso   1.000  As
  Mn13     1.0000 0.47288  0.11094  0.74993  Biso   1.000  Mn
  Mn14     1.0000 0.44835  0.86474  0.74599  Biso   1.000  Mn
  Mn15     1.0000 0.31677  0.99928  0.86021  Biso   1.000  Mn
  Mn16     1.0000 0.22698  0.13461  0.72448  Biso   1.000  Mn
  Mn17     1.0000 0.35999  0.99740  0.61497  Biso   1.000  Mn
  Mn18     1.0000 0.20532  0.88741  0.72583  Biso   1.000  Mn
  S27      1.0000 0.33850  0.99960  0.73712  Biso   1.000  S
  S28      1.0000 0.58380  0.97420  0.76670  Biso   1.000  S
  S29      1.0000 0.46150  0.10110  0.87383  Biso   1.000  S
  S30      1.0000 0.36200  0.24640  0.72943  Biso   1.000  S
  S31      1.0000 0.48840  0.11870  0.62509  Biso   1.000  S
  S32      1.0000 0.43660  0.87020  0.87156  Biso   1.000  S
  S33      1.0000 0.46180  0.85260  0.62129  Biso   1.000  S
  S34      1.0000 0.31630  0.75080  0.72787  Biso   1.000  S
  S35      1.0000 0.23300  0.87660  0.60169  Biso   1.000  S
  S36      1.0000 0.19660  0.12730  0.84842  Biso   1.000  S
  S37      1.0000 0.25680  0.14360  0.60105  Biso   1.000  S
  S38      1.0000 0.09150  0.02120  0.72129  Biso   1.000  S
  S39      1.0000 0.17170  0.89550  0.84981  Biso   1.000  S
  N13      1.0000 0.58780  0.21200  0.75950  Biso   1.000  N
  H25      1.0000 0.63980  0.18150  0.75390  Biso   1.000  H
  H26      1.0000 0.58800  0.23230  0.80030  Biso   1.000  H
  N14      1.0000 0.59020  0.28830  0.71880  Biso   1.000  N
  H27      1.0000 0.58830  0.26790  0.67810  Biso   1.000  H
  H28      1.0000 0.53880  0.31950  0.72520  Biso   1.000  H
  N15      1.0000 0.54650  0.74880  0.75230  Biso   1.000  N
  H29      1.0000 0.51680  0.69800  0.74110  Biso   1.000  H
  H30      1.0000 0.56300  0.74260  0.79380  Biso   1.000  H
  N16      1.0000 0.62660  0.75340  0.71500  Biso   1.000  N
  H31      1.0000 0.61030  0.75810  0.67340  Biso   1.000  H
  H32      1.0000 0.65600  0.80460  0.72570  Biso   1.000  H
  N17      1.0000 0.29750  0.99760  0.96910  Biso   1.000  N
  H33      1.0000 0.26680  0.94720  0.97950  Biso   1.000  H
  H34      1.0000 0.26290  0.04530  0.97990  Biso   1.000  H
  N18      1.0000 0.37740  0.00050  0.00730  Biso   1.000  N
  H35      1.0000 0.41130  0.95210  0.99720  Biso   1.000  H
  H36      1.0000 0.40880  0.05010  0.99600  Biso   1.000  H
  As13     1.0000 0.04589  0.47497  0.87157  Biso   1.000  As
  As14     1.0000 0.88037  0.72637  0.62329  Biso   1.000  As
  As15     1.0000 0.83590  0.26836  0.62136  Biso   1.000  As
  As16     1.0000 0.59077  0.52067  0.82931  Biso   1.000  As
  Mn19     1.0000 0.97288  0.61094  0.74993  Biso   1.000  Mn
  Mn20     1.0000 0.94835  0.36474  0.74599  Biso   1.000  Mn
  Mn21     1.0000 0.81677  0.49928  0.86021  Biso   1.000  Mn
  Mn22     1.0000 0.72698  0.63461  0.72448  Biso   1.000  Mn
  Mn23     1.0000 0.85999  0.49740  0.61497  Biso   1.000  Mn
  Mn24     1.0000 0.70532  0.38741  0.72583  Biso   1.000  Mn
  S40      1.0000 0.83850  0.49960  0.73712  Biso   1.000  S
  S41      1.0000 0.08380  0.47420  0.76670  Biso   1.000  S
  S42      1.0000 0.96150  0.60110  0.87383  Biso   1.000  S
  S43      1.0000 0.86200  0.74640  0.72943  Biso   1.000  S
  S44      1.0000 0.98840  0.61870  0.62509  Biso   1.000  S
  S45      1.0000 0.93660  0.37020  0.87156  Biso   1.000  S
  S46      1.0000 0.96180  0.35260  0.62129  Biso   1.000  S
  S47      1.0000 0.81630  0.25080  0.72787  Biso   1.000  S
  S48      1.0000 0.73300  0.37660  0.60169  Biso   1.000  S
  S49      1.0000 0.69660  0.62730  0.84842  Biso   1.000  S
  S50      1.0000 0.75680  0.64360  0.60105  Biso   1.000  S
  S51      1.0000 0.59150  0.52120  0.72129  Biso   1.000  S
  S52      1.0000 0.67170  0.39550  0.84981  Biso   1.000  S
  N19      1.0000 0.08780  0.71200  0.75950  Biso   1.000  N
  H37      1.0000 0.13980  0.68150  0.75390  Biso   1.000  H
  H38      1.0000 0.08800  0.73230  0.80030  Biso   1.000  H
  N20      1.0000 0.09020  0.78830  0.71880  Biso   1.000  N
  H39      1.0000 0.08830  0.76790  0.67810  Biso   1.000  H
  H40      1.0000 0.03880  0.81950  0.72520  Biso   1.000  H
  N21      1.0000 0.04650  0.24880  0.75230  Biso   1.000  N
  H41      1.0000 0.01680  0.19800  0.74110  Biso   1.000  H
  H42      1.0000 0.06300  0.24260  0.79380  Biso   1.000  H
  N22      1.0000 0.12660  0.25340  0.71500  Biso   1.000  N
  H43      1.0000 0.11030  0.25810  0.67340  Biso   1.000  H
  H44      1.0000 0.15600  0.30460  0.72570  Biso   1.000  H
  N23      1.0000 0.79750  0.49760  0.96910  Biso   1.000  N
  H45      1.0000 0.76680  0.44720  0.97950  Biso   1.000  H
  H46      1.0000 0.76290  0.54530  0.97990  Biso   1.000  H
  N24      1.0000 0.87740  0.50050  0.00730  Biso   1.000  N
  H47      1.0000 0.91130  0.45210  0.99720  Biso   1.000  H
  H48      1.0000 0.90880  0.55010  0.99600  Biso   1.000  H
