data_image0
_cell_length_a       20.4604
_cell_length_b       20.4604
_cell_length_c       21.9231
_cell_angle_alpha    82.5133
_cell_angle_beta     62.2277
_cell_angle_gamma    111.169

_symmetry_space_group_name_H-M    P 1
_symmetry_int_tables_number       1

loop_
  _symmetry_equiv_pos_as_xyz
  'x, y, z'

loop_
  _atom_site_label
  _atom_site_occupancy
  _atom_site_fract_x
  _atom_site_fract_y
  _atom_site_fract_z
  _atom_site_thermal_displace_type
  _atom_site_B_iso_or_equiv
  _atom_site_type_symbol
  Mn1      1.0000 0.28072  0.20942  0.60390  Biso   1.000  Mn
  Mn2      1.0000 0.15323  0.27857  0.58824  Biso   1.000  Mn
  Mn3      1.0000 0.33717  0.33451  0.42090  Biso   1.000  Mn
  Mn4      1.0000 0.66848  0.38776  0.94080  Biso   1.000  Mn
  Mn5      1.0000 0.31332  0.88462  0.89610  Biso   1.000  Mn
  Mn6      1.0000 0.36681  0.74147  0.91176  Biso   1.000  Mn
  Mn7      1.0000 0.25541  0.75807  0.07910  Biso   1.000  Mn
  Mn8      1.0000 0.82856  0.60928  0.55920  Biso   1.000  Mn
  Mn9      1.0000 0.71928  0.79058  0.39610  Biso   1.000  Mn
  Mn10     1.0000 0.84677  0.72143  0.41176  Biso   1.000  Mn
  Mn11     1.0000 0.66283  0.66549  0.57910  Biso   1.000  Mn
  Mn12     1.0000 0.33152  0.61224  0.05920  Biso   1.000  Mn
  Mn13     1.0000 0.68668  0.11538  0.10390  Biso   1.000  Mn
  Mn14     1.0000 0.63319  0.25853  0.08824  Biso   1.000  Mn
  Mn15     1.0000 0.74459  0.24193  0.92090  Biso   1.000  Mn
  Mn16     1.0000 0.17144  0.39072  0.44080  Biso   1.000  Mn
  Mn17     1.0000 0.26069  0.01069  0.75000  Biso   1.000  Mn
  Mn18     1.0000 0.73931  0.98931  0.25000  Biso   1.000  Mn
  H1       1.0000 0.47850  0.16230  0.48780  Biso   1.000  H
  H2       1.0000 0.55930  0.32010  0.30180  Biso   1.000  H
  H3       1.0000 0.67520  0.30210  0.23650  Biso   1.000  H
  H4       1.0000 0.69170  0.21430  0.29560  Biso   1.000  H
  H5       1.0000 0.49360  0.97500  0.64500  Biso   1.000  H
  H6       1.0000 0.58660  0.85130  0.69890  Biso   1.000  H
  H7       1.0000 0.70280  0.90570  0.57750  Biso   1.000  H
  H8       1.0000 0.71100  0.98940  0.48940  Biso   1.000  H
  H9       1.0000 0.35010  0.34240  0.64430  Biso   1.000  H
  H10      1.0000 0.40230  0.53360  0.51050  Biso   1.000  H
  H11      1.0000 0.44130  0.59860  0.57670  Biso   1.000  H
  H12      1.0000 0.44130  0.53830  0.67300  Biso   1.000  H
  H13      1.0000 0.33600  0.17440  0.80940  Biso   1.000  H
  H14      1.0000 0.41910  0.08420  0.91310  Biso   1.000  H
  H15      1.0000 0.48230  0.19850  0.92220  Biso   1.000  H
  H16      1.0000 0.47780  0.30160  0.87220  Biso   1.000  H
  H17      1.0000 0.06460  0.97250  0.68910  Biso   1.000  H
  H18      1.0000 0.06150  0.11530  0.54780  Biso   1.000  H
  H19      1.0000 0.93460  0.01930  0.57630  Biso   1.000  H
  H20      1.0000 0.87250  0.90170  0.66240  Biso   1.000  H
  H21      1.0000 0.84440  0.60790  0.83530  Biso   1.000  H
  H22      1.0000 0.91150  0.54990  0.97060  Biso   1.000  H
  H23      1.0000 0.95540  0.67000  0.97500  Biso   1.000  H
  H24      1.0000 0.94820  0.76060  0.90700  Biso   1.000  H
  H25      1.0000 0.91630  0.28120  0.53650  Biso   1.000  H
  H26      1.0000 0.88290  0.10630  0.67740  Biso   1.000  H
  H27      1.0000 0.75460  0.03220  0.69500  Biso   1.000  H
  H28      1.0000 0.70560  0.08190  0.63530  Biso   1.000  H
  H29      1.0000 0.79820  0.42300  0.48800  Biso   1.000  H
  H30      1.0000 0.78830  0.53460  0.33030  Biso   1.000  H
  H31      1.0000 0.75130  0.42730  0.30020  Biso   1.000  H
  H32      1.0000 0.73710  0.31830  0.36480  Biso   1.000  H
  H33      1.0000 0.55800  0.14600  0.55400  Biso   1.000  H
  H34      1.0000 0.47900  0.08900  0.58000  Biso   1.000  H
  H35      1.0000 0.26260  0.24100  0.82440  Biso   1.000  H
  H36      1.0000 0.30400  0.24800  0.75000  Biso   1.000  H
  H37      1.0000 0.91330  0.37150  0.42320  Biso   1.000  H
  H38      1.0000 0.88800  0.38100  0.49100  Biso   1.000  H
  H39      1.0000 0.01900  0.89400  0.79700  Biso   1.000  H
  H40      1.0000 0.07090  0.88060  0.73570  Biso   1.000  H
  H41      1.0000 0.15010  0.96630  0.01220  Biso   1.000  H
  H42      1.0000 0.12190  0.86110  0.19820  Biso   1.000  H
  H43      1.0000 0.03860  0.91170  0.26350  Biso   1.000  H
  H44      1.0000 0.00990  0.98730  0.20440  Biso   1.000  H
  H45      1.0000 0.12000  0.13860  0.85500  Biso   1.000  H
  H46      1.0000 0.05020  0.28550  0.80110  Biso   1.000  H
  H47      1.0000 0.98320  0.28030  0.92250  Biso   1.000  H
  H48      1.0000 0.97880  0.20040  0.01060  Biso   1.000  H
  H49      1.0000 0.48670  0.99440  0.85570  Biso   1.000  H
  H50      1.0000 0.54410  0.91280  0.98950  Biso   1.000  H
  H51      1.0000 0.67530  0.01800  0.92330  Biso   1.000  H
  H52      1.0000 0.71130  0.11430  0.82700  Biso   1.000  H
  H53      1.0000 0.48380  0.14540  0.69060  Biso   1.000  H
  H54      1.0000 0.49730  0.33220  0.58690  Biso   1.000  H
  H55      1.0000 0.62070  0.40450  0.57780  Biso   1.000  H
  H56      1.0000 0.67380  0.35000  0.62780  Biso   1.000  H
  H57      1.0000 0.16160  0.75370  0.81090  Biso   1.000  H
  H58      1.0000 0.16310  0.60930  0.95220  Biso   1.000  H
  H59      1.0000 0.09560  0.51090  0.92370  Biso   1.000  H
  H60      1.0000 0.06410  0.53490  0.83760  Biso   1.000  H
  H61      1.0000 0.94320  0.67970  0.66470  Biso   1.000  H
  H62      1.0000 0.02050  0.88210  0.52940  Biso   1.000  H
  H63      1.0000 0.14500  0.93040  0.52500  Biso   1.000  H
  H64      1.0000 0.16760  0.85520  0.59300  Biso   1.000  H
  H65      1.0000 0.31770  0.45280  0.96350  Biso   1.000  H
  H66      1.0000 0.28370  0.56030  0.82260  Biso   1.000  H
  H67      1.0000 0.22720  0.44960  0.80500  Biso   1.000  H
  H68      1.0000 0.21720  0.34090  0.86470  Biso   1.000  H
  H69      1.0000 0.41100  0.28620  0.01200  Biso   1.000  H
  H70      1.0000 0.36490  0.11860  0.16970  Biso   1.000  H
  H71      1.0000 0.22750  0.05150  0.19980  Biso   1.000  H
  H72      1.0000 0.18310  0.10190  0.13520  Biso   1.000  H
  H73      1.0000 0.20000  0.11200  0.94600  Biso   1.000  H
  H74      1.0000 0.16900  0.05900  0.92000  Biso   1.000  H
  H75      1.0000 0.56540  0.08700  0.67560  Biso   1.000  H
  H76      1.0000 0.49800  0.05400  0.75000  Biso   1.000  H
  H77      1.0000 0.29470  0.33650  0.07680  Biso   1.000  H
  H78      1.0000 0.37200  0.37900  0.00900  Biso   1.000  H
  H79      1.0000 0.19100  0.81600  0.70300  Biso   1.000  H
  H80      1.0000 0.11630  0.80660  0.76430  Biso   1.000  H
  H81      1.0000 0.52150  0.83770  0.51220  Biso   1.000  H
  H82      1.0000 0.44070  0.67990  0.69820  Biso   1.000  H
  H83      1.0000 0.32480  0.69790  0.76350  Biso   1.000  H
  H84      1.0000 0.30830  0.78570  0.70440  Biso   1.000  H
  H85      1.0000 0.50640  0.02500  0.35500  Biso   1.000  H
  H86      1.0000 0.41340  0.14870  0.30110  Biso   1.000  H
  H87      1.0000 0.29720  0.09430  0.42250  Biso   1.000  H
  H88      1.0000 0.28900  0.01060  0.51060  Biso   1.000  H
  H89      1.0000 0.64990  0.65760  0.35570  Biso   1.000  H
  H90      1.0000 0.59770  0.46640  0.48950  Biso   1.000  H
  H91      1.0000 0.55870  0.40140  0.42330  Biso   1.000  H
  H92      1.0000 0.55870  0.46170  0.32700  Biso   1.000  H
  H93      1.0000 0.66400  0.82560  0.19060  Biso   1.000  H
  H94      1.0000 0.58090  0.91580  0.08690  Biso   1.000  H
  H95      1.0000 0.51770  0.80150  0.07780  Biso   1.000  H
  H96      1.0000 0.52220  0.69840  0.12780  Biso   1.000  H
  H97      1.0000 0.93540  0.02750  0.31090  Biso   1.000  H
  H98      1.0000 0.93850  0.88470  0.45220  Biso   1.000  H
  H99      1.0000 0.06540  0.98070  0.42370  Biso   1.000  H
  H100     1.0000 0.12750  0.09830  0.33760  Biso   1.000  H
  H101     1.0000 0.15560  0.39210  0.16470  Biso   1.000  H
  H102     1.0000 0.08850  0.45010  0.02940  Biso   1.000  H
  H103     1.0000 0.04460  0.33000  0.02500  Biso   1.000  H
  H104     1.0000 0.05180  0.23940  0.09300  Biso   1.000  H
  H105     1.0000 0.08370  0.71880  0.46350  Biso   1.000  H
  H106     1.0000 0.11710  0.89370  0.32260  Biso   1.000  H
  H107     1.0000 0.24540  0.96780  0.30500  Biso   1.000  H
  H108     1.0000 0.29440  0.91810  0.36470  Biso   1.000  H
  H109     1.0000 0.20180  0.57700  0.51200  Biso   1.000  H
  H110     1.0000 0.21170  0.46540  0.66970  Biso   1.000  H
  H111     1.0000 0.24870  0.57270  0.69980  Biso   1.000  H
  H112     1.0000 0.26290  0.68170  0.63520  Biso   1.000  H
  H113     1.0000 0.44200  0.85400  0.44600  Biso   1.000  H
  H114     1.0000 0.52100  0.91100  0.42000  Biso   1.000  H
  H115     1.0000 0.73740  0.75900  0.17560  Biso   1.000  H
  H116     1.0000 0.69600  0.75200  0.25000  Biso   1.000  H
  H117     1.0000 0.08670  0.62850  0.57680  Biso   1.000  H
  H118     1.0000 0.11200  0.61900  0.50900  Biso   1.000  H
  H119     1.0000 0.98100  0.10600  0.20300  Biso   1.000  H
  H120     1.0000 0.92910  0.11940  0.26430  Biso   1.000  H
  H121     1.0000 0.84990  0.03370  0.98780  Biso   1.000  H
  H122     1.0000 0.87810  0.13890  0.80180  Biso   1.000  H
  H123     1.0000 0.96140  0.08830  0.73650  Biso   1.000  H
  H124     1.0000 0.99010  0.01270  0.79560  Biso   1.000  H
  H125     1.0000 0.88000  0.86140  0.14500  Biso   1.000  H
  H126     1.0000 0.94980  0.71450  0.19890  Biso   1.000  H
  H127     1.0000 0.01680  0.71970  0.07750  Biso   1.000  H
  H128     1.0000 0.02120  0.79960  0.98940  Biso   1.000  H
  H129     1.0000 0.51330  0.00560  0.14430  Biso   1.000  H
  H130     1.0000 0.45590  0.08720  0.01050  Biso   1.000  H
  H131     1.0000 0.32470  0.98200  0.07670  Biso   1.000  H
  H132     1.0000 0.28870  0.88570  0.17300  Biso   1.000  H
  H133     1.0000 0.51620  0.85460  0.30940  Biso   1.000  H
  H134     1.0000 0.50270  0.66780  0.41310  Biso   1.000  H
  H135     1.0000 0.37930  0.59550  0.42220  Biso   1.000  H
  H136     1.0000 0.32620  0.65000  0.37220  Biso   1.000  H
  H137     1.0000 0.83840  0.24630  0.18910  Biso   1.000  H
  H138     1.0000 0.83690  0.39070  0.04780  Biso   1.000  H
  H139     1.0000 0.90440  0.48910  0.07630  Biso   1.000  H
  H140     1.0000 0.93590  0.46510  0.16240  Biso   1.000  H
  H141     1.0000 0.05680  0.32030  0.33530  Biso   1.000  H
  H142     1.0000 0.97950  0.11790  0.47060  Biso   1.000  H
  H143     1.0000 0.85500  0.06960  0.47500  Biso   1.000  H
  H144     1.0000 0.83240  0.14480  0.40700  Biso   1.000  H
  H145     1.0000 0.68230  0.54720  0.03650  Biso   1.000  H
  H146     1.0000 0.71630  0.43970  0.17740  Biso   1.000  H
  H147     1.0000 0.77280  0.55040  0.19500  Biso   1.000  H
  H148     1.0000 0.78280  0.65910  0.13530  Biso   1.000  H
  H149     1.0000 0.58900  0.71380  0.98800  Biso   1.000  H
  H150     1.0000 0.63510  0.88140  0.83030  Biso   1.000  H
  H151     1.0000 0.77250  0.94850  0.80020  Biso   1.000  H
  H152     1.0000 0.81690  0.89810  0.86480  Biso   1.000  H
  H153     1.0000 0.80000  0.88800  0.05400  Biso   1.000  H
  H154     1.0000 0.83100  0.94100  0.08000  Biso   1.000  H
  H155     1.0000 0.43460  0.91300  0.32440  Biso   1.000  H
  H156     1.0000 0.50200  0.94600  0.25000  Biso   1.000  H
  H157     1.0000 0.70530  0.66350  0.92320  Biso   1.000  H
  H158     1.0000 0.62800  0.62100  0.99100  Biso   1.000  H
  H159     1.0000 0.80900  0.18400  0.29700  Biso   1.000  H
  H160     1.0000 0.88370  0.19340  0.23570  Biso   1.000  H
  C1       1.0000 0.60259  0.12221  0.42940  Biso   1.000  C
  C2       1.0000 0.61070  0.04100  0.49790  Biso   1.000  C
  C3       1.0000 0.58737  0.17873  0.39850  Biso   1.000  C
  C4       1.0000 0.51799  0.19029  0.43760  Biso   1.000  C
  C5       1.0000 0.50823  0.24327  0.40150  Biso   1.000  C
  C6       1.0000 0.56664  0.28516  0.32580  Biso   1.000  C
  C7       1.0000 0.63572  0.27398  0.28670  Biso   1.000  C
  C8       1.0000 0.64561  0.22169  0.32230  Biso   1.000  C
  C9       1.0000 0.43186  0.25384  0.44270  Biso   1.000  C
  C10      1.0000 0.60350  0.99120  0.55790  Biso   1.000  C
  C11      1.0000 0.53510  0.96056  0.63140  Biso   1.000  C
  C12      1.0000 0.52895  0.90865  0.68420  Biso   1.000  C
  C13      1.0000 0.59117  0.88693  0.66390  Biso   1.000  C
  C14      1.0000 0.66019  0.91871  0.59090  Biso   1.000  C
  C15      1.0000 0.66557  0.96953  0.53830  Biso   1.000  C
  C16      1.0000 0.45426  0.87234  0.76260  Biso   1.000  C
  C17      1.0000 0.41251  0.39999  0.72050  Biso   1.000  C
  C18      1.0000 0.41670  0.31900  0.79270  Biso   1.000  C
  C19      1.0000 0.39848  0.43396  0.66720  Biso   1.000  C
  C20      1.0000 0.37019  0.39411  0.62970  Biso   1.000  C
  C21      1.0000 0.37222  0.43128  0.57050  Biso   1.000  C
  C22      1.0000 0.40005  0.50825  0.55050  Biso   1.000  C
  C23      1.0000 0.42455  0.54745  0.58960  Biso   1.000  C
  C24      1.0000 0.42436  0.51154  0.64730  Biso   1.000  C
  C25      1.0000 0.34757  0.39043  0.52700  Biso   1.000  C
  C26      1.0000 0.40832  0.24978  0.83290  Biso   1.000  C
  C27      1.0000 0.36706  0.17994  0.83040  Biso   1.000  C
  C28      1.0000 0.37233  0.11867  0.85920  Biso   1.000  C
  C29      1.0000 0.41583  0.12527  0.89370  Biso   1.000  C
  C30      1.0000 0.45413  0.19397  0.89850  Biso   1.000  C
  C31      1.0000 0.45137  0.25593  0.86870  Biso   1.000  C
  C32      1.0000 0.33490  0.04670  0.84840  Biso   1.000  C
  C33      1.0000 0.92039  0.84901  0.73960  Biso   1.000  C
  C34      1.0000 0.89154  0.74886  0.81700  Biso   1.000  C
  C35      1.0000 0.96102  0.92468  0.68630  Biso   1.000  C
  C36      1.0000 0.03765  0.98185  0.66730  Biso   1.000  C
  C37      1.0000 0.07422  0.05238  0.61620  Biso   1.000  C
  C38      1.0000 0.03661  0.06769  0.58190  Biso   1.000  C
  C39      1.0000 0.96030  0.01010  0.59940  Biso   1.000  C
  C40      1.0000 0.92310  0.93960  0.65110  Biso   1.000  C
  C41      1.0000 0.15390  0.11310  0.60240  Biso   1.000  C
  C42      1.0000 0.89782  0.69428  0.86230  Biso   1.000  C
  C43      1.0000 0.86846  0.62084  0.86190  Biso   1.000  C
  C44      1.0000 0.87521  0.56829  0.90090  Biso   1.000  C
  C45      1.0000 0.90776  0.58604  0.94380  Biso   1.000  C
  C46      1.0000 0.93440  0.65820  0.94600  Biso   1.000  C
  C47      1.0000 0.93000  0.71250  0.90550  Biso   1.000  C
  C48      1.0000 0.84377  0.48983  0.89980  Biso   1.000  C
  C49      1.0000 0.77315  0.21705  0.54240  Biso   1.000  C
  C50      1.0000 0.75558  0.29092  0.47590  Biso   1.000  C
  C51      1.0000 0.80609  0.18721  0.57930  Biso   1.000  C
  C52      1.0000 0.88381  0.23109  0.56790  Biso   1.000  C
  C53      1.0000 0.91370  0.20020  0.60350  Biso   1.000  C
  C54      1.0000 0.86432  0.12628  0.65220  Biso   1.000  C
  C55      1.0000 0.78716  0.08224  0.66320  Biso   1.000  C
  C56      1.0000 0.75751  0.11189  0.62740  Biso   1.000  C
  C57      1.0000 0.00082  0.24898  0.58400  Biso   1.000  C
  C58      1.0000 0.76731  0.35929  0.43240  Biso   1.000  C
  C59      1.0000 0.78853  0.42377  0.45050  Biso   1.000  C
  C60      1.0000 0.79543  0.48827  0.41350  Biso   1.000  C
  C61      1.0000 0.78244  0.49086  0.35610  Biso   1.000  C
  C62      1.0000 0.76050  0.42650  0.33800  Biso   1.000  C
  C63      1.0000 0.75247  0.36103  0.37650  Biso   1.000  C
  C64      1.0000 0.81162  0.55348  0.43930  Biso   1.000  C
  C65      1.0000 0.05161  0.03199  0.07060  Biso   1.000  C
  C66      1.0000 0.03890  0.10860  0.00210  Biso   1.000  C
  C67      1.0000 0.07723  0.98587  0.10150  Biso   1.000  C
  C68      1.0000 0.12789  0.95559  0.06240  Biso   1.000  C
  C69      1.0000 0.14477  0.90973  0.09850  Biso   1.000  C
  C70      1.0000 0.11096  0.89244  0.17420  Biso   1.000  C
  C71      1.0000 0.06068  0.92242  0.21330  Biso   1.000  C
  C72      1.0000 0.04399  0.96791  0.17770  Biso   1.000  C
  C73      1.0000 0.19654  0.87456  0.05730  Biso   1.000  C
  C74      1.0000 0.04910  0.16140  0.94210  Biso   1.000  C
  C75      1.0000 0.09196  0.16650  0.86860  Biso   1.000  C
  C76      1.0000 0.09285  0.21315  0.81580  Biso   1.000  C
  C77      1.0000 0.05083  0.25507  0.83610  Biso   1.000  C
  C78      1.0000 0.00961  0.25109  0.90910  Biso   1.000  C
  C79      1.0000 0.00783  0.20387  0.96170  Biso   1.000  C
  C80      1.0000 0.13494  0.21686  0.73740  Biso   1.000  C
  C81      1.0000 0.62049  0.13301  0.77950  Biso   1.000  C
  C82      1.0000 0.61170  0.20940  0.70730  Biso   1.000  C
  C83      1.0000 0.60116  0.06568  0.83280  Biso   1.000  C
  C84      1.0000 0.52381  0.99989  0.87030  Biso   1.000  C
  C85      1.0000 0.50178  0.94272  0.92950  Biso   1.000  C
  C86      1.0000 0.55875  0.95055  0.94950  Biso   1.000  C
  C87      1.0000 0.63705  0.01415  0.91040  Biso   1.000  C
  C88      1.0000 0.65884  0.07166  0.85270  Biso   1.000  C
  C89      1.0000 0.41743  0.87457  0.97300  Biso   1.000  C
  C90      1.0000 0.58268  0.24122  0.66710  Biso   1.000  C
  C91      1.0000 0.51034  0.19746  0.66960  Biso   1.000  C
  C92      1.0000 0.47787  0.23153  0.64080  Biso   1.000  C
  C93      1.0000 0.51897  0.30953  0.60630  Biso   1.000  C
  C94      1.0000 0.59247  0.35263  0.60150  Biso   1.000  C
  C95      1.0000 0.62463  0.32007  0.63130  Biso   1.000  C
  C96      1.0000 0.39510  0.18330  0.65160  Biso   1.000  C
  C97      1.0000 0.08861  0.65999  0.76040  Biso   1.000  C
  C98      1.0000 0.06586  0.70854  0.68300  Biso   1.000  C
  C99      1.0000 0.11098  0.64732  0.81370  Biso   1.000  C
  C100     1.0000 0.14915  0.70495  0.83270  Biso   1.000  C
  C101     1.0000 0.16858  0.69042  0.88380  Biso   1.000  C
  C102     1.0000 0.14959  0.61851  0.91810  Biso   1.000  C
  C103     1.0000 0.10950  0.55970  0.90060  Biso   1.000  C
  C104     1.0000 0.09070  0.57420  0.84890  Biso   1.000  C
  C105     1.0000 0.21550  0.75630  0.89760  Biso   1.000  C
  C106     1.0000 0.05658  0.76012  0.63770  Biso   1.000  C
  C107     1.0000 0.98274  0.73036  0.63810  Biso   1.000  C
  C108     1.0000 0.96919  0.77611  0.59910  Biso   1.000  C
  C109     1.0000 0.02984  0.85156  0.55620  Biso   1.000  C
  C110     1.0000 0.10420  0.88040  0.55400  Biso   1.000  C
  C111     1.0000 0.11800  0.83550  0.59450  Biso   1.000  C
  C112     1.0000 0.88963  0.74357  0.60020  Biso   1.000  C
  C113     1.0000 0.25945  0.31555  0.95760  Biso   1.000  C
  C114     1.0000 0.26682  0.23148  0.02410  Biso   1.000  C
  C115     1.0000 0.26651  0.38539  0.92070  Biso   1.000  C
  C116     1.0000 0.29899  0.45171  0.93210  Biso   1.000  C
  C117     1.0000 0.30370  0.51720  0.89650  Biso   1.000  C
  C118     1.0000 0.27848  0.51652  0.84780  Biso   1.000  C
  C119     1.0000 0.24544  0.45036  0.83680  Biso   1.000  C
  C120     1.0000 0.23929  0.38491  0.87260  Biso   1.000  C
  C121     1.0000 0.33298  0.58482  0.91600  Biso   1.000  C
  C122     1.0000 0.29169  0.19971  0.06760  Biso   1.000  C
  C123     1.0000 0.37427  0.23903  0.04950  Biso   1.000  C
  C124     1.0000 0.40177  0.20893  0.08650  Biso   1.000  C
  C125     1.0000 0.34696  0.13854  0.14390  Biso   1.000  C
  C126     1.0000 0.26450  0.09850  0.16200  Biso   1.000  C
  C127     1.0000 0.23753  0.12897  0.12350  Biso   1.000  C
  C128     1.0000 0.49278  0.25092  0.06070  Biso   1.000  C
  C129     1.0000 0.39741  0.87779  0.57060  Biso   1.000  C
  C130     1.0000 0.38930  0.95900  0.50210  Biso   1.000  C
  C131     1.0000 0.41263  0.82127  0.60150  Biso   1.000  C
  C132     1.0000 0.48201  0.80971  0.56240  Biso   1.000  C
  C133     1.0000 0.49177  0.75673  0.59850  Biso   1.000  C
  C134     1.0000 0.43336  0.71484  0.67420  Biso   1.000  C
  C135     1.0000 0.36428  0.72602  0.71330  Biso   1.000  C
  C136     1.0000 0.35439  0.77831  0.67770  Biso   1.000  C
  C137     1.0000 0.56814  0.74616  0.55730  Biso   1.000  C
  C138     1.0000 0.39650  0.00880  0.44210  Biso   1.000  C
  C139     1.0000 0.46490  0.03944  0.36860  Biso   1.000  C
  C140     1.0000 0.47105  0.09135  0.31580  Biso   1.000  C
  C141     1.0000 0.40883  0.11307  0.33610  Biso   1.000  C
  C142     1.0000 0.33981  0.08129  0.40910  Biso   1.000  C
  C143     1.0000 0.33443  0.03047  0.46170  Biso   1.000  C
  C144     1.0000 0.54574  0.12766  0.23740  Biso   1.000  C
  C145     1.0000 0.58749  0.60001  0.27950  Biso   1.000  C
  C146     1.0000 0.58330  0.68100  0.20730  Biso   1.000  C
  C147     1.0000 0.60152  0.56604  0.33280  Biso   1.000  C
  C148     1.0000 0.62981  0.60589  0.37030  Biso   1.000  C
  C149     1.0000 0.62778  0.56872  0.42950  Biso   1.000  C
  C150     1.0000 0.59995  0.49175  0.44950  Biso   1.000  C
  C151     1.0000 0.57545  0.45255  0.41040  Biso   1.000  C
  C152     1.0000 0.57564  0.48846  0.35270  Biso   1.000  C
  C153     1.0000 0.65243  0.60957  0.47300  Biso   1.000  C
  C154     1.0000 0.59168  0.75022  0.16710  Biso   1.000  C
  C155     1.0000 0.63294  0.82006  0.16960  Biso   1.000  C
  C156     1.0000 0.62767  0.88133  0.14080  Biso   1.000  C
  C157     1.0000 0.58417  0.87473  0.10630  Biso   1.000  C
  C158     1.0000 0.54587  0.80603  0.10150  Biso   1.000  C
  C159     1.0000 0.54863  0.74407  0.13130  Biso   1.000  C
  C160     1.0000 0.66510  0.95330  0.15160  Biso   1.000  C
  C161     1.0000 0.07961  0.15099  0.26040  Biso   1.000  C
  C162     1.0000 0.10846  0.25114  0.18300  Biso   1.000  C
  C163     1.0000 0.03898  0.07532  0.31370  Biso   1.000  C
  C164     1.0000 0.96235  0.01815  0.33270  Biso   1.000  C
  C165     1.0000 0.92578  0.94762  0.38380  Biso   1.000  C
  C166     1.0000 0.96339  0.93231  0.41810  Biso   1.000  C
  C167     1.0000 0.03970  0.98990  0.40060  Biso   1.000  C
  C168     1.0000 0.07690  0.06040  0.34890  Biso   1.000  C
  C169     1.0000 0.84610  0.88690  0.39760  Biso   1.000  C
  C170     1.0000 0.10218  0.30572  0.13770  Biso   1.000  C
  C171     1.0000 0.13154  0.37916  0.13810  Biso   1.000  C
  C172     1.0000 0.12479  0.43171  0.09910  Biso   1.000  C
  C173     1.0000 0.09224  0.41396  0.05620  Biso   1.000  C
  C174     1.0000 0.06560  0.34180  0.05400  Biso   1.000  C
  C175     1.0000 0.07000  0.28750  0.09450  Biso   1.000  C
  C176     1.0000 0.15623  0.51017  0.10020  Biso   1.000  C
  C177     1.0000 0.22685  0.78295  0.45760  Biso   1.000  C
  C178     1.0000 0.24442  0.70908  0.52410  Biso   1.000  C
  C179     1.0000 0.19391  0.81279  0.42070  Biso   1.000  C
  C180     1.0000 0.11619  0.76891  0.43210  Biso   1.000  C
  C181     1.0000 0.08630  0.79980  0.39650  Biso   1.000  C
  C182     1.0000 0.13568  0.87372  0.34780  Biso   1.000  C
  C183     1.0000 0.21284  0.91776  0.33680  Biso   1.000  C
  C184     1.0000 0.24249  0.88811  0.37260  Biso   1.000  C
  C185     1.0000 0.99918  0.75102  0.41600  Biso   1.000  C
  C186     1.0000 0.23269  0.64071  0.56760  Biso   1.000  C
  C187     1.0000 0.21147  0.57623  0.54950  Biso   1.000  C
  C188     1.0000 0.20457  0.51173  0.58650  Biso   1.000  C
  C189     1.0000 0.21756  0.50914  0.64390  Biso   1.000  C
  C190     1.0000 0.23950  0.57350  0.66200  Biso   1.000  C
  C191     1.0000 0.24753  0.63897  0.62350  Biso   1.000  C
  C192     1.0000 0.18838  0.44652  0.56070  Biso   1.000  C
  C193     1.0000 0.94839  0.96801  0.92940  Biso   1.000  C
  C194     1.0000 0.96110  0.89140  0.99790  Biso   1.000  C
  C195     1.0000 0.92277  0.01413  0.89850  Biso   1.000  C
  C196     1.0000 0.87211  0.04441  0.93760  Biso   1.000  C
  C197     1.0000 0.85523  0.09027  0.90150  Biso   1.000  C
  C198     1.0000 0.88904  0.10756  0.82580  Biso   1.000  C
  C199     1.0000 0.93932  0.07758  0.78670  Biso   1.000  C
  C200     1.0000 0.95601  0.03209  0.82230  Biso   1.000  C
  C201     1.0000 0.80346  0.12544  0.94270  Biso   1.000  C
  C202     1.0000 0.95090  0.83860  0.05790  Biso   1.000  C
  C203     1.0000 0.90804  0.83350  0.13140  Biso   1.000  C
  C204     1.0000 0.90715  0.78685  0.18420  Biso   1.000  C
  C205     1.0000 0.94917  0.74493  0.16390  Biso   1.000  C
  C206     1.0000 0.99039  0.74891  0.09090  Biso   1.000  C
  C207     1.0000 0.99217  0.79613  0.03830  Biso   1.000  C
  C208     1.0000 0.86506  0.78314  0.26260  Biso   1.000  C
  C209     1.0000 0.37951  0.86699  0.22050  Biso   1.000  C
  C210     1.0000 0.38830  0.79060  0.29270  Biso   1.000  C
  C211     1.0000 0.39884  0.93432  0.16720  Biso   1.000  C
  C212     1.0000 0.47619  0.00011  0.12970  Biso   1.000  C
  C213     1.0000 0.49822  0.05728  0.07050  Biso   1.000  C
  C214     1.0000 0.44125  0.04945  0.05050  Biso   1.000  C
  C215     1.0000 0.36295  0.98585  0.08960  Biso   1.000  C
  C216     1.0000 0.34116  0.92834  0.14730  Biso   1.000  C
  C217     1.0000 0.58257  0.12543  0.02700  Biso   1.000  C
  C218     1.0000 0.41732  0.75878  0.33290  Biso   1.000  C
  C219     1.0000 0.48966  0.80254  0.33040  Biso   1.000  C
  C220     1.0000 0.52213  0.76847  0.35920  Biso   1.000  C
  C221     1.0000 0.48103  0.69047  0.39370  Biso   1.000  C
  C222     1.0000 0.40753  0.64737  0.39850  Biso   1.000  C
  C223     1.0000 0.37537  0.67993  0.36870  Biso   1.000  C
  C224     1.0000 0.60490  0.81670  0.34840  Biso   1.000  C
  C225     1.0000 0.91139  0.34001  0.23960  Biso   1.000  C
  C226     1.0000 0.93414  0.29146  0.31700  Biso   1.000  C
  C227     1.0000 0.88902  0.35268  0.18630  Biso   1.000  C
  C228     1.0000 0.85085  0.29505  0.16730  Biso   1.000  C
  C229     1.0000 0.83142  0.30958  0.11620  Biso   1.000  C
  C230     1.0000 0.85041  0.38149  0.08190  Biso   1.000  C
  C231     1.0000 0.89050  0.44030  0.09940  Biso   1.000  C
  C232     1.0000 0.90930  0.42580  0.15110  Biso   1.000  C
  C233     1.0000 0.78450  0.24370  0.10240  Biso   1.000  C
  C234     1.0000 0.94342  0.23988  0.36230  Biso   1.000  C
  C235     1.0000 0.01726  0.26964  0.36190  Biso   1.000  C
  C236     1.0000 0.03081  0.22389  0.40090  Biso   1.000  C
  C237     1.0000 0.97016  0.14844  0.44380  Biso   1.000  C
  C238     1.0000 0.89580  0.11960  0.44600  Biso   1.000  C
  C239     1.0000 0.88200  0.16450  0.40550  Biso   1.000  C
  C240     1.0000 0.11037  0.25643  0.39980  Biso   1.000  C
  C241     1.0000 0.74055  0.68445  0.04240  Biso   1.000  C
  C242     1.0000 0.73318  0.76852  0.97590  Biso   1.000  C
  C243     1.0000 0.73349  0.61461  0.07930  Biso   1.000  C
  C244     1.0000 0.70101  0.54829  0.06790  Biso   1.000  C
  C245     1.0000 0.69630  0.48280  0.10350  Biso   1.000  C
  C246     1.0000 0.72152  0.48348  0.15220  Biso   1.000  C
  C247     1.0000 0.75456  0.54964  0.16320  Biso   1.000  C
  C248     1.0000 0.76071  0.61509  0.12740  Biso   1.000  C
  C249     1.0000 0.66702  0.41518  0.08400  Biso   1.000  C
  C250     1.0000 0.70831  0.80029  0.93240  Biso   1.000  C
  C251     1.0000 0.62573  0.76097  0.95050  Biso   1.000  C
  C252     1.0000 0.59823  0.79107  0.91350  Biso   1.000  C
  C253     1.0000 0.65304  0.86146  0.85610  Biso   1.000  C
  C254     1.0000 0.73550  0.90150  0.83800  Biso   1.000  C
  C255     1.0000 0.76247  0.87103  0.87650  Biso   1.000  C
  C256     1.0000 0.50722  0.74908  0.93930  Biso   1.000  C
  N1       1.0000 0.65269  0.09911  0.38560  Biso   1.000  N
  N2       1.0000 0.65737  0.04803  0.42900  Biso   1.000  N
  N3       1.0000 0.57364  0.08580  0.50080  Biso   1.000  N
  N4       1.0000 0.52824  0.09868  0.56570  Biso   1.000  N
  N5       1.0000 0.47402  0.43728  0.72830  Biso   1.000  N
  N6       1.0000 0.47620  0.38624  0.77450  Biso   1.000  N
  N7       1.0000 0.37435  0.32521  0.76120  Biso   1.000  N
  N8       1.0000 0.29407  0.27227  0.77900  Biso   1.000  N
  N9       1.0000 0.84859  0.79375  0.75610  Biso   1.000  N
  N10      1.0000 0.83032  0.73014  0.80580  Biso   1.000  N
  N11      1.0000 0.94827  0.82261  0.77770  Biso   1.000  N
  N12      1.0000 0.02160  0.85880  0.77840  Biso   1.000  N
  N13      1.0000 0.70219  0.17597  0.54820  Biso   1.000  N
  N14      1.0000 0.69164  0.22292  0.50530  Biso   1.000  N
  N15      1.0000 0.80863  0.28949  0.49750  Biso   1.000  N
  N16      1.0000 0.89019  0.34883  0.47000  Biso   1.000  N
  N17      1.0000 0.98471  0.03829  0.11440  Biso   1.000  N
  N18      1.0000 0.97703  0.08637  0.07100  Biso   1.000  N
  N19      1.0000 0.08660  0.07444  0.99920  Biso   1.000  N
  N20      1.0000 0.16438  0.09394  0.93430  Biso   1.000  N
  N21      1.0000 0.66558  0.20232  0.77170  Biso   1.000  N
  N22      1.0000 0.66074  0.25070  0.72550  Biso   1.000  N
  N23      1.0000 0.58641  0.13555  0.73880  Biso   1.000  N
  N24      1.0000 0.55127  0.07307  0.72100  Biso   1.000  N
  N25      1.0000 0.04985  0.60469  0.74390  Biso   1.000  N
  N26      1.0000 0.03594  0.63612  0.69420  Biso   1.000  N
  N27      1.0000 0.10031  0.72597  0.72230  Biso   1.000  N
  N28      1.0000 0.13720  0.80000  0.72160  Biso   1.000  N
  N29      1.0000 0.22417  0.25039  0.95180  Biso   1.000  N
  N30      1.0000 0.22822  0.19694  0.99470  Biso   1.000  N
  N31      1.0000 0.28699  0.30613  0.00250  Biso   1.000  N
  N32      1.0000 0.31883  0.36019  0.03000  Biso   1.000  N
  N33      1.0000 0.34731  0.90089  0.61440  Biso   1.000  N
  N34      1.0000 0.34263  0.95197  0.57100  Biso   1.000  N
  N35      1.0000 0.42636  0.91420  0.49920  Biso   1.000  N
  N36      1.0000 0.47176  0.90132  0.43430  Biso   1.000  N
  N37      1.0000 0.52598  0.56272  0.27170  Biso   1.000  N
  N38      1.0000 0.52380  0.61376  0.22550  Biso   1.000  N
  N39      1.0000 0.62565  0.67479  0.23880  Biso   1.000  N
  N40      1.0000 0.70593  0.72773  0.22100  Biso   1.000  N
  N41      1.0000 0.15141  0.20625  0.24390  Biso   1.000  N
  N42      1.0000 0.16968  0.26986  0.19420  Biso   1.000  N
  N43      1.0000 0.05173  0.17739  0.22230  Biso   1.000  N
  N44      1.0000 0.97840  0.14120  0.22160  Biso   1.000  N
  N45      1.0000 0.29781  0.82403  0.45180  Biso   1.000  N
  N46      1.0000 0.30836  0.77708  0.49470  Biso   1.000  N
  N47      1.0000 0.19137  0.71051  0.50250  Biso   1.000  N
  N48      1.0000 0.10981  0.65117  0.53000  Biso   1.000  N
  N49      1.0000 0.01529  0.96171  0.88560  Biso   1.000  N
  N50      1.0000 0.02297  0.91363  0.92900  Biso   1.000  N
  N51      1.0000 0.91340  0.92556  0.00080  Biso   1.000  N
  N52      1.0000 0.83562  0.90606  0.06570  Biso   1.000  N
  N53      1.0000 0.33442  0.79768  0.22830  Biso   1.000  N
  N54      1.0000 0.33926  0.74930  0.27450  Biso   1.000  N
  N55      1.0000 0.41359  0.86445  0.26120  Biso   1.000  N
  N56      1.0000 0.44873  0.92693  0.27900  Biso   1.000  N
  N57      1.0000 0.95015  0.39531  0.25610  Biso   1.000  N
  N58      1.0000 0.96406  0.36388  0.30580  Biso   1.000  N
  N59      1.0000 0.89969  0.27403  0.27770  Biso   1.000  N
  N60      1.0000 0.86280  0.20000  0.27840  Biso   1.000  N
  N61      1.0000 0.77583  0.74961  0.04820  Biso   1.000  N
  N62      1.0000 0.77178  0.80306  0.00530  Biso   1.000  N
  N63      1.0000 0.71301  0.69387  0.99750  Biso   1.000  N
  N64      1.0000 0.68117  0.63981  0.97000  Biso   1.000  N
  O1       1.0000 0.42755  0.30386  0.40751  Biso   1.000  O
  O2       1.0000 0.37999  0.21269  0.50950  Biso   1.000  O
  O3       1.0000 0.44280  0.81462  0.80214  Biso   1.000  O
  O4       1.0000 0.40693  0.90298  0.78447  Biso   1.000  O
  O5       1.0000 0.37197  0.42529  0.46326  Biso   1.000  O
  O6       1.0000 0.29981  0.31802  0.55679  Biso   1.000  O
  O7       1.0000 0.27829  0.03523  0.83596  Biso   1.000  O
  O8       1.0000 0.36579  0.00317  0.84944  Biso   1.000  O
  O9       1.0000 0.17726  0.18135  0.57301  Biso   1.000  O
  O10      1.0000 0.19539  0.09436  0.62297  Biso   1.000  O
  O11      1.0000 0.80010  0.47348  0.87120  Biso   1.000  O
  O12      1.0000 0.86077  0.44531  0.92570  Biso   1.000  O
  O13      1.0000 0.04444  0.31346  0.53270  Biso   1.000  O
  O14      1.0000 0.02565  0.22397  0.61980  Biso   1.000  O
  O15      1.0000 0.82772  0.61470  0.40050  Biso   1.000  O
  O16      1.0000 0.80741  0.54109  0.49900  Biso   1.000  O
  O17      1.0000 0.40984  0.42148  0.31330  Biso   1.000  O
  O18      1.0000 0.29704  0.24898  0.37310  Biso   1.000  O
  O19      1.0000 0.21411  0.31680  0.47197  Biso   1.000  O
  O20      1.0000 0.33959  0.95753  0.72112  Biso   1.000  O
  O21      1.0000 0.15523  0.89638  0.82901  Biso   1.000  O
  O22      1.0000 0.63360  0.46888  0.90210  Biso   1.000  O
  O23      1.0000 0.68390  0.36280  0.84290  Biso   1.000  O
  O24      1.0000 0.21137  0.83506  0.09249  Biso   1.000  O
  O25      1.0000 0.22219  0.88949  0.99050  Biso   1.000  O
  O26      1.0000 0.11676  0.24494  0.69786  Biso   1.000  O
  O27      1.0000 0.18745  0.19140  0.71553  Biso   1.000  O
  O28      1.0000 0.38855  0.83523  0.03674  Biso   1.000  O
  O29      1.0000 0.37481  0.85660  0.94321  Biso   1.000  O
  O30      1.0000 0.37119  0.11425  0.66404  Biso   1.000  O
  O31      1.0000 0.35261  0.21523  0.65056  Biso   1.000  O
  O32      1.0000 0.25436  0.75027  0.92699  Biso   1.000  O
  O33      1.0000 0.21733  0.81836  0.87703  Biso   1.000  O
  O34      1.0000 0.84468  0.67130  0.62880  Biso   1.000  O
  O35      1.0000 0.87101  0.78647  0.57430  Biso   1.000  O
  O36      1.0000 0.34616  0.57714  0.96730  Biso   1.000  O
  O37      1.0000 0.34377  0.64545  0.88020  Biso   1.000  O
  O38      1.0000 0.51520  0.22822  0.09950  Biso   1.000  O
  O39      1.0000 0.54009  0.30641  0.00100  Biso   1.000  O
  O40      1.0000 0.23478  0.72314  0.18670  Biso   1.000  O
  O41      1.0000 0.12208  0.67014  0.12690  Biso   1.000  O
  O42      1.0000 0.28877  0.68608  0.02803  Biso   1.000  O
  O43      1.0000 0.17865  0.06071  0.77888  Biso   1.000  O
  O44      1.0000 0.22539  0.98424  0.67099  Biso   1.000  O
  O45      1.0000 0.87098  0.53570  0.59790  Biso   1.000  O
  O46      1.0000 0.70570  0.52680  0.65710  Biso   1.000  O
  O47      1.0000 0.57245  0.69614  0.59249  Biso   1.000  O
  O48      1.0000 0.62001  0.78731  0.49050  Biso   1.000  O
  O49      1.0000 0.55720  0.18538  0.19786  Biso   1.000  O
  O50      1.0000 0.59307  0.09702  0.21553  Biso   1.000  O
  O51      1.0000 0.62803  0.57471  0.53674  Biso   1.000  O
  O52      1.0000 0.70019  0.68198  0.44321  Biso   1.000  O
  O53      1.0000 0.72171  0.96477  0.16404  Biso   1.000  O
  O54      1.0000 0.63421  0.99683  0.15056  Biso   1.000  O
  O55      1.0000 0.82274  0.81865  0.42699  Biso   1.000  O
  O56      1.0000 0.80461  0.90564  0.37703  Biso   1.000  O
  O57      1.0000 0.19990  0.52652  0.12880  Biso   1.000  O
  O58      1.0000 0.13923  0.55469  0.07430  Biso   1.000  O
  O59      1.0000 0.95556  0.68654  0.46730  Biso   1.000  O
  O60      1.0000 0.97435  0.77603  0.38020  Biso   1.000  O
  O61      1.0000 0.17228  0.38530  0.59950  Biso   1.000  O
  O62      1.0000 0.19259  0.45891  0.50100  Biso   1.000  O
  O63      1.0000 0.59016  0.57852  0.68670  Biso   1.000  O
  O64      1.0000 0.70296  0.75102  0.62690  Biso   1.000  O
  O65      1.0000 0.78589  0.68320  0.52803  Biso   1.000  O
  O66      1.0000 0.66041  0.04247  0.27888  Biso   1.000  O
  O67      1.0000 0.84477  0.10362  0.17099  Biso   1.000  O
  O68      1.0000 0.36640  0.53112  0.09790  Biso   1.000  O
  O69      1.0000 0.31610  0.63720  0.15710  Biso   1.000  O
  O70      1.0000 0.78863  0.16494  0.90751  Biso   1.000  O
  O71      1.0000 0.77781  0.11051  0.00950  Biso   1.000  O
  O72      1.0000 0.88324  0.75506  0.30214  Biso   1.000  O
  O73      1.0000 0.81255  0.80860  0.28447  Biso   1.000  O
  O74      1.0000 0.61145  0.16477  0.96326  Biso   1.000  O
  O75      1.0000 0.62519  0.14340  0.05679  Biso   1.000  O
  O76      1.0000 0.62881  0.88575  0.33596  Biso   1.000  O
  O77      1.0000 0.64739  0.78477  0.34944  Biso   1.000  O
  O78      1.0000 0.74564  0.24973  0.07301  Biso   1.000  O
  O79      1.0000 0.78267  0.18164  0.12297  Biso   1.000  O
  O80      1.0000 0.15532  0.32870  0.37120  Biso   1.000  O
  O81      1.0000 0.12899  0.21353  0.42570  Biso   1.000  O
  O82      1.0000 0.65384  0.42286  0.03270  Biso   1.000  O
  O83      1.0000 0.65623  0.35455  0.11980  Biso   1.000  O
  O84      1.0000 0.48480  0.77178  0.90050  Biso   1.000  O
  O85      1.0000 0.45991  0.69359  0.99900  Biso   1.000  O
  O86      1.0000 0.76522  0.27686  0.81330  Biso   1.000  O
  O87      1.0000 0.87792  0.32986  0.87310  Biso   1.000  O
  O88      1.0000 0.71123  0.31392  0.97197  Biso   1.000  O
  O89      1.0000 0.82135  0.93929  0.22112  Biso   1.000  O
  O90      1.0000 0.77461  0.01576  0.32901  Biso   1.000  O
  O91      1.0000 0.12902  0.46430  0.40210  Biso   1.000  O
  O92      1.0000 0.29430  0.47320  0.34290  Biso   1.000  O
