data_image0
_cell_length_a       12.7932
_cell_length_b       12.7932
_cell_length_c       18.0331
_cell_angle_alpha    91.8646
_cell_angle_beta     91.8646
_cell_angle_gamma    106.133

_symmetry_space_group_name_H-M    P 1
_symmetry_int_tables_number       1

loop_
  _symmetry_equiv_pos_as_xyz
  'x, y, z'

loop_
  _atom_site_label
  _atom_site_occupancy
  _atom_site_fract_x
  _atom_site_fract_y
  _atom_site_fract_z
  _atom_site_thermal_displace_type
  _atom_site_B_iso_or_equiv
  _atom_site_type_symbol
  Ni1      1.0000 0.23711  0.27551  0.71057  Biso   1.000  Ni
  Ni2      1.0000 0.72449  0.76289  0.78943  Biso   1.000  Ni
  Ni3      1.0000 0.76289  0.72449  0.28943  Biso   1.000  Ni
  Ni4      1.0000 0.27551  0.23711  0.21057  Biso   1.000  Ni
  Ni5      1.0000 0.00000  0.00000  0.50000  Biso   1.000  Ni
  Ni6      1.0000 0.00000  0.00000  0.00000  Biso   1.000  Ni
  H1       1.0000 0.52310  0.46790  0.67950  Biso   1.000  H
  H2       1.0000 0.46090  0.68010  0.53380  Biso   1.000  H
  H3       1.0000 0.28330  0.36250  0.52030  Biso   1.000  H
  H4       1.0000 0.34700  0.22780  0.52600  Biso   1.000  H
  H5       1.0000 0.35800  0.13980  0.58440  Biso   1.000  H
  H6       1.0000 0.50700  0.24040  0.64980  Biso   1.000  H
  H7       1.0000 0.49010  0.32290  0.71420  Biso   1.000  H
  H8       1.0000 0.30830  0.52490  0.72100  Biso   1.000  H
  H9       1.0000 0.04240  0.32300  0.62970  Biso   1.000  H
  H10      1.0000 0.26650  0.67150  0.67120  Biso   1.000  H
  H11      1.0000 0.98740  0.46600  0.58360  Biso   1.000  H
  H12      1.0000 0.23780  0.75220  0.54290  Biso   1.000  H
  H13      1.0000 0.93560  0.64140  0.62150  Biso   1.000  H
  H14      1.0000 0.18810  0.89990  0.49980  Biso   1.000  H
  H15      1.0000 0.89490  0.78990  0.57550  Biso   1.000  H
  H16      1.0000 0.26660  0.65300  0.40800  Biso   1.000  H
  H17      1.0000 0.53210  0.47690  0.82050  Biso   1.000  H
  H18      1.0000 0.31990  0.53910  0.96620  Biso   1.000  H
  H19      1.0000 0.63750  0.71670  0.97970  Biso   1.000  H
  H20      1.0000 0.77220  0.65300  0.97400  Biso   1.000  H
  H21      1.0000 0.86020  0.64200  0.91560  Biso   1.000  H
  H22      1.0000 0.75960  0.49300  0.85020  Biso   1.000  H
  H23      1.0000 0.67710  0.50990  0.78580  Biso   1.000  H
  H24      1.0000 0.47510  0.69170  0.77900  Biso   1.000  H
  H25      1.0000 0.67700  0.95760  0.87030  Biso   1.000  H
  H26      1.0000 0.32850  0.73350  0.82880  Biso   1.000  H
  H27      1.0000 0.53400  0.01260  0.91640  Biso   1.000  H
  H28      1.0000 0.24780  0.76220  0.95710  Biso   1.000  H
  H29      1.0000 0.35860  0.06440  0.87850  Biso   1.000  H
  H30      1.0000 0.10010  0.81190  0.00020  Biso   1.000  H
  H31      1.0000 0.21010  0.10510  0.92450  Biso   1.000  H
  H32      1.0000 0.34700  0.73340  0.09200  Biso   1.000  H
  H33      1.0000 0.47690  0.53210  0.32050  Biso   1.000  H
  H34      1.0000 0.53910  0.31990  0.46620  Biso   1.000  H
  H35      1.0000 0.71670  0.63750  0.47970  Biso   1.000  H
  H36      1.0000 0.65300  0.77220  0.47400  Biso   1.000  H
  H37      1.0000 0.64200  0.86020  0.41560  Biso   1.000  H
  H38      1.0000 0.49300  0.75960  0.35020  Biso   1.000  H
  H39      1.0000 0.50990  0.67710  0.28580  Biso   1.000  H
  H40      1.0000 0.69170  0.47510  0.27900  Biso   1.000  H
  H41      1.0000 0.95760  0.67700  0.37030  Biso   1.000  H
  H42      1.0000 0.73350  0.32850  0.32880  Biso   1.000  H
  H43      1.0000 0.01260  0.53400  0.41640  Biso   1.000  H
  H44      1.0000 0.76220  0.24780  0.45710  Biso   1.000  H
  H45      1.0000 0.06440  0.35860  0.37850  Biso   1.000  H
  H46      1.0000 0.81190  0.10010  0.50020  Biso   1.000  H
  H47      1.0000 0.10510  0.21010  0.42450  Biso   1.000  H
  H48      1.0000 0.73340  0.34700  0.59200  Biso   1.000  H
  H49      1.0000 0.46790  0.52310  0.17950  Biso   1.000  H
  H50      1.0000 0.68010  0.46090  0.03380  Biso   1.000  H
  H51      1.0000 0.36250  0.28330  0.02030  Biso   1.000  H
  H52      1.0000 0.22780  0.34700  0.02600  Biso   1.000  H
  H53      1.0000 0.13980  0.35800  0.08440  Biso   1.000  H
  H54      1.0000 0.24040  0.50700  0.14980  Biso   1.000  H
  H55      1.0000 0.32290  0.49010  0.21420  Biso   1.000  H
  H56      1.0000 0.52490  0.30830  0.22100  Biso   1.000  H
  H57      1.0000 0.32300  0.04240  0.12970  Biso   1.000  H
  H58      1.0000 0.67150  0.26650  0.17120  Biso   1.000  H
  H59      1.0000 0.46600  0.98740  0.08360  Biso   1.000  H
  H60      1.0000 0.75220  0.23780  0.04290  Biso   1.000  H
  H61      1.0000 0.64140  0.93560  0.12150  Biso   1.000  H
  H62      1.0000 0.89990  0.18810  0.99980  Biso   1.000  H
  H63      1.0000 0.78990  0.89490  0.07550  Biso   1.000  H
  H64      1.0000 0.65300  0.26660  0.90800  Biso   1.000  H
  C1       1.0000 0.39904  0.39656  0.60390  Biso   1.000  C
  C2       1.0000 0.48190  0.48190  0.63810  Biso   1.000  C
  C3       1.0000 0.50440  0.58660  0.61220  Biso   1.000  C
  C4       1.0000 0.44540  0.60860  0.55170  Biso   1.000  C
  C5       1.0000 0.36330  0.52390  0.51780  Biso   1.000  C
  C6       1.0000 0.34010  0.41910  0.54390  Biso   1.000  C
  C7       1.0000 0.59310  0.67690  0.65090  Biso   1.000  C
  C8       1.0000 0.30030  0.54290  0.45100  Biso   1.000  C
  C9       1.0000 0.32500  0.19980  0.57540  Biso   1.000  C
  C10      1.0000 0.20139  0.15421  0.57360  Biso   1.000  C
  C11      1.0000 0.45220  0.25980  0.68090  Biso   1.000  C
  C12      1.0000 0.39770  0.16350  0.72730  Biso   1.000  C
  C13      1.0000 0.24350  0.51250  0.69080  Biso   1.000  C
  C14      1.0000 0.08820  0.39500  0.63870  Biso   1.000  C
  C15      1.0000 0.21850  0.60050  0.66230  Biso   1.000  C
  C16      1.0000 0.05560  0.47980  0.61010  Biso   1.000  C
  C17      1.0000 0.12230  0.58550  0.62000  Biso   1.000  C
  C18      1.0000 0.09250  0.67950  0.58820  Biso   1.000  C
  C19      1.0000 0.16690  0.75870  0.55060  Biso   1.000  C
  C20      1.0000 0.98930  0.69370  0.59660  Biso   1.000  C
  C21      1.0000 0.13630  0.84630  0.52490  Biso   1.000  C
  C22      1.0000 0.96585  0.78215  0.56918  Biso   1.000  C
  C23      1.0000 0.60344  0.60096  0.89610  Biso   1.000  C
  C24      1.0000 0.51810  0.51810  0.86190  Biso   1.000  C
  C25      1.0000 0.41340  0.49560  0.88780  Biso   1.000  C
  C26      1.0000 0.39140  0.55460  0.94830  Biso   1.000  C
  C27      1.0000 0.47610  0.63670  0.98220  Biso   1.000  C
  C28      1.0000 0.58090  0.65990  0.95610  Biso   1.000  C
  C29      1.0000 0.32310  0.40690  0.84910  Biso   1.000  C
  C30      1.0000 0.45710  0.69970  0.04900  Biso   1.000  C
  C31      1.0000 0.80020  0.67500  0.92460  Biso   1.000  C
  C32      1.0000 0.84579  0.79861  0.92640  Biso   1.000  C
  C33      1.0000 0.74020  0.54780  0.81910  Biso   1.000  C
  C34      1.0000 0.83650  0.60230  0.77270  Biso   1.000  C
  C35      1.0000 0.48750  0.75650  0.80920  Biso   1.000  C
  C36      1.0000 0.60500  0.91180  0.86130  Biso   1.000  C
  C37      1.0000 0.39950  0.78150  0.83770  Biso   1.000  C
  C38      1.0000 0.52020  0.94440  0.88990  Biso   1.000  C
  C39      1.0000 0.41450  0.87770  0.88000  Biso   1.000  C
  C40      1.0000 0.32050  0.90750  0.91180  Biso   1.000  C
  C41      1.0000 0.24130  0.83310  0.94940  Biso   1.000  C
  C42      1.0000 0.30630  0.01070  0.90340  Biso   1.000  C
  C43      1.0000 0.15370  0.86370  0.97510  Biso   1.000  C
  C44      1.0000 0.21785  0.03415  0.93082  Biso   1.000  C
  C45      1.0000 0.60096  0.60344  0.39610  Biso   1.000  C
  C46      1.0000 0.51810  0.51810  0.36190  Biso   1.000  C
  C47      1.0000 0.49560  0.41340  0.38780  Biso   1.000  C
  C48      1.0000 0.55460  0.39140  0.44830  Biso   1.000  C
  C49      1.0000 0.63670  0.47610  0.48220  Biso   1.000  C
  C50      1.0000 0.65990  0.58090  0.45610  Biso   1.000  C
  C51      1.0000 0.40690  0.32310  0.34910  Biso   1.000  C
  C52      1.0000 0.69970  0.45710  0.54900  Biso   1.000  C
  C53      1.0000 0.67500  0.80020  0.42460  Biso   1.000  C
  C54      1.0000 0.79861  0.84579  0.42640  Biso   1.000  C
  C55      1.0000 0.54780  0.74020  0.31910  Biso   1.000  C
  C56      1.0000 0.60230  0.83650  0.27270  Biso   1.000  C
  C57      1.0000 0.75650  0.48750  0.30920  Biso   1.000  C
  C58      1.0000 0.91180  0.60500  0.36130  Biso   1.000  C
  C59      1.0000 0.78150  0.39950  0.33770  Biso   1.000  C
  C60      1.0000 0.94440  0.52020  0.38990  Biso   1.000  C
  C61      1.0000 0.87770  0.41450  0.38000  Biso   1.000  C
  C62      1.0000 0.90750  0.32050  0.41180  Biso   1.000  C
  C63      1.0000 0.83310  0.24130  0.44940  Biso   1.000  C
  C64      1.0000 0.01070  0.30630  0.40340  Biso   1.000  C
  C65      1.0000 0.86370  0.15370  0.47510  Biso   1.000  C
  C66      1.0000 0.03415  0.21785  0.43082  Biso   1.000  C
  C67      1.0000 0.39656  0.39904  0.10390  Biso   1.000  C
  C68      1.0000 0.48190  0.48190  0.13810  Biso   1.000  C
  C69      1.0000 0.58660  0.50440  0.11220  Biso   1.000  C
  C70      1.0000 0.60860  0.44540  0.05170  Biso   1.000  C
  C71      1.0000 0.52390  0.36330  0.01780  Biso   1.000  C
  C72      1.0000 0.41910  0.34010  0.04390  Biso   1.000  C
  C73      1.0000 0.67690  0.59310  0.15090  Biso   1.000  C
  C74      1.0000 0.54290  0.30030  0.95100  Biso   1.000  C
  C75      1.0000 0.19980  0.32500  0.07540  Biso   1.000  C
  C76      1.0000 0.15421  0.20139  0.07360  Biso   1.000  C
  C77      1.0000 0.25980  0.45220  0.18090  Biso   1.000  C
  C78      1.0000 0.16350  0.39770  0.22730  Biso   1.000  C
  C79      1.0000 0.51250  0.24350  0.19080  Biso   1.000  C
  C80      1.0000 0.39500  0.08820  0.13870  Biso   1.000  C
  C81      1.0000 0.60050  0.21850  0.16230  Biso   1.000  C
  C82      1.0000 0.47980  0.05560  0.11010  Biso   1.000  C
  C83      1.0000 0.58550  0.12230  0.12000  Biso   1.000  C
  C84      1.0000 0.67950  0.09250  0.08820  Biso   1.000  C
  C85      1.0000 0.75870  0.16690  0.05060  Biso   1.000  C
  C86      1.0000 0.69370  0.98930  0.09660  Biso   1.000  C
  C87      1.0000 0.84630  0.13630  0.02490  Biso   1.000  C
  C88      1.0000 0.78215  0.96585  0.06918  Biso   1.000  C
  N1       1.0000 0.18170  0.40910  0.67862  Biso   1.000  N
  N2       1.0000 0.36940  0.28876  0.63294  Biso   1.000  N
  N3       1.0000 0.03738  0.85982  0.53330  Biso   1.000  N
  N4       1.0000 0.59090  0.81830  0.82138  Biso   1.000  N
  N5       1.0000 0.71124  0.63060  0.86706  Biso   1.000  N
  N6       1.0000 0.14018  0.96262  0.96670  Biso   1.000  N
  N7       1.0000 0.81830  0.59090  0.32138  Biso   1.000  N
  N8       1.0000 0.63060  0.71124  0.36706  Biso   1.000  N
  N9       1.0000 0.96262  0.14018  0.46670  Biso   1.000  N
  N10      1.0000 0.40910  0.18170  0.17862  Biso   1.000  N
  N11      1.0000 0.28876  0.36940  0.13294  Biso   1.000  N
  N12      1.0000 0.85982  0.03738  0.03330  Biso   1.000  N
  O1       1.0000 0.29807  0.14767  0.73835  Biso   1.000  O
  O2       1.0000 0.45340  0.10380  0.74900  Biso   1.000  O
  O3       1.0000 0.14857  0.18351  0.62424  Biso   1.000  O
  O4       1.0000 0.16085  0.08785  0.52182  Biso   1.000  O
  O5       1.0000 0.62718  0.65718  0.71325  Biso   1.000  O
  O6       1.0000 0.62490  0.76450  0.61910  Biso   1.000  O
  O7       1.0000 0.32238  0.64302  0.43135  Biso   1.000  O
  O8       1.0000 0.23940  0.46660  0.41440  Biso   1.000  O
  O9       1.0000 0.11330  0.22910  0.78490  Biso   1.000  O
  O10      1.0000 0.04478  0.97382  0.39051  Biso   1.000  O
  O11      1.0000 0.85233  0.70193  0.76165  Biso   1.000  O
  O12      1.0000 0.89620  0.54660  0.75100  Biso   1.000  O
  O13      1.0000 0.81649  0.85143  0.87576  Biso   1.000  O
  O14      1.0000 0.91215  0.83915  0.97818  Biso   1.000  O
  O15      1.0000 0.34282  0.37282  0.78675  Biso   1.000  O
  O16      1.0000 0.23550  0.37510  0.88090  Biso   1.000  O
  O17      1.0000 0.35698  0.67762  0.06865  Biso   1.000  O
  O18      1.0000 0.53340  0.76060  0.08560  Biso   1.000  O
  O19      1.0000 0.77090  0.88670  0.71510  Biso   1.000  O
  O20      1.0000 0.02618  0.95522  0.10949  Biso   1.000  O
  O21      1.0000 0.70193  0.85233  0.26165  Biso   1.000  O
  O22      1.0000 0.54660  0.89620  0.25100  Biso   1.000  O
  O23      1.0000 0.85143  0.81649  0.37576  Biso   1.000  O
  O24      1.0000 0.83915  0.91215  0.47818  Biso   1.000  O
  O25      1.0000 0.37282  0.34282  0.28675  Biso   1.000  O
  O26      1.0000 0.37510  0.23550  0.38090  Biso   1.000  O
  O27      1.0000 0.67762  0.35698  0.56865  Biso   1.000  O
  O28      1.0000 0.76060  0.53340  0.58560  Biso   1.000  O
  O29      1.0000 0.88670  0.77090  0.21510  Biso   1.000  O
  O30      1.0000 0.95522  0.02618  0.60949  Biso   1.000  O
  O31      1.0000 0.14767  0.29807  0.23835  Biso   1.000  O
  O32      1.0000 0.10380  0.45340  0.24900  Biso   1.000  O
  O33      1.0000 0.18351  0.14857  0.12424  Biso   1.000  O
  O34      1.0000 0.08785  0.16085  0.02182  Biso   1.000  O
  O35      1.0000 0.65718  0.62718  0.21325  Biso   1.000  O
  O36      1.0000 0.76450  0.62490  0.11910  Biso   1.000  O
  O37      1.0000 0.64302  0.32238  0.93135  Biso   1.000  O
  O38      1.0000 0.46660  0.23940  0.91440  Biso   1.000  O
  O39      1.0000 0.22910  0.11330  0.28490  Biso   1.000  O
  O40      1.0000 0.97382  0.04478  0.89051  Biso   1.000  O
