data_image0
_cell_length_a       14.639
_cell_length_b       19.379
_cell_length_c       19.484
_cell_angle_alpha    116.046
_cell_angle_beta     90
_cell_angle_gamma    90

_symmetry_space_group_name_H-M    P 1
_symmetry_int_tables_number       1

loop_
  _symmetry_equiv_pos_as_xyz
  'x, y, z'

loop_
  _atom_site_label
  _atom_site_occupancy
  _atom_site_fract_x
  _atom_site_fract_y
  _atom_site_fract_z
  _atom_site_thermal_displace_type
  _atom_site_B_iso_or_equiv
  _atom_site_type_symbol
  Zn1      1.0000 0.23192  0.41406  0.75143  Biso   1.000  Zn
  Zn2      1.0000 0.57077  0.51084  0.63425  Biso   1.000  Zn
  Zn3      1.0000 0.63729  0.47438  0.78102  Biso   1.000  Zn
  Zn4      1.0000 0.08695  0.96783  0.18855  Biso   1.000  Zn
  Zn5      1.0000 0.20170  0.13456  0.82008  Biso   1.000  Zn
  Zn6      1.0000 0.26420  0.06899  0.64112  Biso   1.000  Zn
  Zn7      1.0000 0.73192  0.58594  0.24857  Biso   1.000  Zn
  Zn8      1.0000 0.07077  0.48916  0.36575  Biso   1.000  Zn
  Zn9      1.0000 0.13729  0.52562  0.21898  Biso   1.000  Zn
  Zn10     1.0000 0.58695  0.03217  0.81145  Biso   1.000  Zn
  Zn11     1.0000 0.70170  0.86544  0.17992  Biso   1.000  Zn
  Zn12     1.0000 0.76420  0.93101  0.35888  Biso   1.000  Zn
  H1       1.0000 0.61540  0.92390  0.96410  Biso   1.000  H
  H2       1.0000 0.65480  0.70910  0.93720  Biso   1.000  H
  H3       1.0000 0.38740  0.44310  0.86500  Biso   1.000  H
  H4       1.0000 0.49260  0.42650  0.85490  Biso   1.000  H
  H5       1.0000 0.42260  0.35990  0.81280  Biso   1.000  H
  H6       1.0000 0.27530  0.46650  0.63190  Biso   1.000  H
  H7       1.0000 0.33320  0.40400  0.56630  Biso   1.000  H
  H8       1.0000 0.35910  0.49100  0.59750  Biso   1.000  H
  H9       1.0000 0.91120  0.94400  0.07890  Biso   1.000  H
  H10      1.0000 0.82700  0.89170  0.07300  Biso   1.000  H
  H11      1.0000 0.92650  0.85970  0.06780  Biso   1.000  H
  H12      1.0000 0.03170  0.99680  0.36240  Biso   1.000  H
  H13      1.0000 0.94050  0.03000  0.40700  Biso   1.000  H
  H14      1.0000 0.99380  0.07550  0.37010  Biso   1.000  H
  H15      1.0000 0.13970  0.37070  0.88230  Biso   1.000  H
  H16      1.0000 0.24240  0.36950  0.90450  Biso   1.000  H
  H17      1.0000 0.17340  0.31000  0.90960  Biso   1.000  H
  H18      1.0000 0.34640  0.22950  0.60600  Biso   1.000  H
  H19      1.0000 0.27010  0.28990  0.61550  Biso   1.000  H
  H20      1.0000 0.24820  0.20180  0.57350  Biso   1.000  H
  H21      1.0000 0.89400  0.42020  0.70430  Biso   1.000  H
  H22      1.0000 0.08510  0.42470  0.55800  Biso   1.000  H
  H23      1.0000 0.82050  0.43720  0.51360  Biso   1.000  H
  H24      1.0000 0.20170  0.53440  0.00160  Biso   1.000  H
  H25      1.0000 0.16690  0.70380  0.93620  Biso   1.000  H
  H26      1.0000 0.14650  0.74550  0.15620  Biso   1.000  H
  H27      1.0000 0.59230  0.74610  0.75800  Biso   1.000  H
  H28      1.0000 0.42780  0.94910  0.22930  Biso   1.000  H
  H29      1.0000 0.50650  0.00440  0.44220  Biso   1.000  H
  H30      1.0000 0.24670  0.01880  0.39680  Biso   1.000  H
  H31      1.0000 0.11540  0.07610  0.03590  Biso   1.000  H
  H32      1.0000 0.15480  0.29090  0.06280  Biso   1.000  H
  H33      1.0000 0.88740  0.55690  0.13500  Biso   1.000  H
  H34      1.0000 0.99260  0.57350  0.14510  Biso   1.000  H
  H35      1.0000 0.92260  0.64010  0.18720  Biso   1.000  H
  H36      1.0000 0.77530  0.53350  0.36810  Biso   1.000  H
  H37      1.0000 0.83320  0.59600  0.43370  Biso   1.000  H
  H38      1.0000 0.85910  0.50900  0.40250  Biso   1.000  H
  H39      1.0000 0.41120  0.05600  0.92110  Biso   1.000  H
  H40      1.0000 0.32700  0.10830  0.92700  Biso   1.000  H
  H41      1.0000 0.42650  0.14030  0.93220  Biso   1.000  H
  H42      1.0000 0.53170  0.00320  0.63760  Biso   1.000  H
  H43      1.0000 0.44050  0.97000  0.59300  Biso   1.000  H
  H44      1.0000 0.49380  0.92450  0.62990  Biso   1.000  H
  H45      1.0000 0.63970  0.62930  0.11770  Biso   1.000  H
  H46      1.0000 0.74240  0.63050  0.09550  Biso   1.000  H
  H47      1.0000 0.67340  0.69000  0.09040  Biso   1.000  H
  H48      1.0000 0.84640  0.77050  0.39400  Biso   1.000  H
  H49      1.0000 0.77010  0.71010  0.38450  Biso   1.000  H
  H50      1.0000 0.74820  0.79820  0.42650  Biso   1.000  H
  H51      1.0000 0.39400  0.57980  0.29570  Biso   1.000  H
  H52      1.0000 0.58510  0.57530  0.44200  Biso   1.000  H
  H53      1.0000 0.32050  0.56280  0.48640  Biso   1.000  H
  H54      1.0000 0.70170  0.46560  0.99840  Biso   1.000  H
  H55      1.0000 0.66690  0.29620  0.06380  Biso   1.000  H
  H56      1.0000 0.64650  0.25450  0.84380  Biso   1.000  H
  H57      1.0000 0.09230  0.25390  0.24200  Biso   1.000  H
  H58      1.0000 0.92780  0.05090  0.77070  Biso   1.000  H
  H59      1.0000 0.00650  0.99560  0.55780  Biso   1.000  H
  H60      1.0000 0.74670  0.98120  0.60320  Biso   1.000  H
  C1       1.0000 0.58320  0.89900  0.81980  Biso   1.000  C
  C2       1.0000 0.60060  0.84170  0.85600  Biso   1.000  C
  C3       1.0000 0.61740  0.87140  0.93260  Biso   1.000  C
  C4       1.0000 0.63710  0.81930  0.95990  Biso   1.000  C
  C5       1.0000 0.64060  0.74220  0.91570  Biso   1.000  C
  C6       1.0000 0.62340  0.71430  0.84040  Biso   1.000  C
  C7       1.0000 0.62310  0.63150  0.79190  Biso   1.000  C
  C8       1.0000 0.92440  0.98420  0.29210  Biso   1.000  C
  C9       1.0000 0.88990  0.93320  0.17860  Biso   1.000  C
  C10      1.0000 0.43430  0.41370  0.82990  Biso   1.000  C
  C11      1.0000 0.43470  0.43070  0.76650  Biso   1.000  C
  C12      1.0000 0.39540  0.44570  0.66790  Biso   1.000  C
  C13      1.0000 0.33560  0.45200  0.61100  Biso   1.000  C
  C14      1.0000 0.88850  0.90440  0.09140  Biso   1.000  C
  C15      1.0000 0.97730  0.02530  0.36430  Biso   1.000  C
  C16      1.0000 0.18970  0.33840  0.88150  Biso   1.000  C
  C17      1.0000 0.21140  0.28290  0.79980  Biso   1.000  C
  C18      1.0000 0.25490  0.24170  0.68790  Biso   1.000  C
  C19      1.0000 0.28230  0.24060  0.61430  Biso   1.000  C
  C20      1.0000 0.74910  0.44290  0.64450  Biso   1.000  C
  C21      1.0000 0.84210  0.43000  0.61410  Biso   1.000  C
  C22      1.0000 0.90960  0.42180  0.65880  Biso   1.000  C
  C23      1.0000 0.99940  0.41600  0.63750  Biso   1.000  C
  C24      1.0000 0.07430  0.41220  0.69130  Biso   1.000  C
  C25      1.0000 0.02410  0.42330  0.57080  Biso   1.000  C
  C26      1.0000 0.95310  0.42840  0.52440  Biso   1.000  C
  C27      1.0000 0.97920  0.43520  0.45180  Biso   1.000  C
  C28      1.0000 0.86590  0.43260  0.54480  Biso   1.000  C
  C29      1.0000 0.15990  0.60800  0.14710  Biso   1.000  C
  C30      1.0000 0.16770  0.63450  0.08550  Biso   1.000  C
  C31      1.0000 0.18630  0.58470  0.01240  Biso   1.000  C
  C32      1.0000 0.18350  0.60640  0.95010  Biso   1.000  C
  C33      1.0000 0.20240  0.55240  0.87230  Biso   1.000  C
  C34      1.0000 0.16710  0.68580  0.97330  Biso   1.000  C
  C35      1.0000 0.15200  0.73620  0.04610  Biso   1.000  C
  C36      1.0000 0.15420  0.71060  0.10530  Biso   1.000  C
  C37      1.0000 0.13230  0.81930  0.07070  Biso   1.000  C
  C38      1.0000 0.65880  0.85260  0.04670  Biso   1.000  C
  C39      1.0000 0.60360  0.76470  0.81000  Biso   1.000  C
  C40      1.0000 0.25380  0.97360  0.25040  Biso   1.000  C
  C41      1.0000 0.32460  0.98380  0.30350  Biso   1.000  C
  C42      1.0000 0.41350  0.96650  0.28070  Biso   1.000  C
  C43      1.0000 0.48350  0.97420  0.33240  Biso   1.000  C
  C44      1.0000 0.57900  0.95020  0.30480  Biso   1.000  C
  C45      1.0000 0.46090  0.99920  0.40710  Biso   1.000  C
  C46      1.0000 0.37350  0.01700  0.43170  Biso   1.000  C
  C47      1.0000 0.35460  0.04270  0.51410  Biso   1.000  C
  C48      1.0000 0.30680  0.00810  0.37990  Biso   1.000  C
  C49      1.0000 0.08320  0.10100  0.18020  Biso   1.000  C
  C50      1.0000 0.10060  0.15830  0.14400  Biso   1.000  C
  C51      1.0000 0.11740  0.12860  0.06740  Biso   1.000  C
  C52      1.0000 0.13710  0.18070  0.04010  Biso   1.000  C
  C53      1.0000 0.14060  0.25780  0.08430  Biso   1.000  C
  C54      1.0000 0.12340  0.28570  0.15960  Biso   1.000  C
  C55      1.0000 0.12310  0.36850  0.20810  Biso   1.000  C
  C56      1.0000 0.42440  0.01580  0.70790  Biso   1.000  C
  C57      1.0000 0.38990  0.06680  0.82140  Biso   1.000  C
  C58      1.0000 0.93430  0.58630  0.17010  Biso   1.000  C
  C59      1.0000 0.93470  0.56930  0.23350  Biso   1.000  C
  C60      1.0000 0.89540  0.55430  0.33210  Biso   1.000  C
  C61      1.0000 0.83560  0.54800  0.38900  Biso   1.000  C
  C62      1.0000 0.38850  0.09560  0.90860  Biso   1.000  C
  C63      1.0000 0.47730  0.97470  0.63570  Biso   1.000  C
  C64      1.0000 0.68970  0.66160  0.11850  Biso   1.000  C
  C65      1.0000 0.71140  0.71710  0.20020  Biso   1.000  C
  C66      1.0000 0.75490  0.75830  0.31210  Biso   1.000  C
  C67      1.0000 0.78230  0.75940  0.38570  Biso   1.000  C
  C68      1.0000 0.24910  0.55710  0.35550  Biso   1.000  C
  C69      1.0000 0.34210  0.57000  0.38590  Biso   1.000  C
  C70      1.0000 0.40960  0.57820  0.34120  Biso   1.000  C
  C71      1.0000 0.49940  0.58400  0.36250  Biso   1.000  C
  C72      1.0000 0.57430  0.58780  0.30870  Biso   1.000  C
  C73      1.0000 0.52410  0.57670  0.42920  Biso   1.000  C
  C74      1.0000 0.45310  0.57160  0.47560  Biso   1.000  C
  C75      1.0000 0.47920  0.56480  0.54820  Biso   1.000  C
  C76      1.0000 0.36590  0.56740  0.45520  Biso   1.000  C
  C77      1.0000 0.65990  0.39200  0.85290  Biso   1.000  C
  C78      1.0000 0.66770  0.36550  0.91450  Biso   1.000  C
  C79      1.0000 0.68630  0.41530  0.98760  Biso   1.000  C
  C80      1.0000 0.68350  0.39360  0.04990  Biso   1.000  C
  C81      1.0000 0.70240  0.44760  0.12770  Biso   1.000  C
  C82      1.0000 0.66710  0.31420  0.02670  Biso   1.000  C
  C83      1.0000 0.65200  0.26380  0.95390  Biso   1.000  C
  C84      1.0000 0.65420  0.28940  0.89470  Biso   1.000  C
  C85      1.0000 0.63230  0.18070  0.92930  Biso   1.000  C
  C86      1.0000 0.15880  0.14740  0.95330  Biso   1.000  C
  C87      1.0000 0.10360  0.23530  0.19000  Biso   1.000  C
  C88      1.0000 0.75380  0.02640  0.74960  Biso   1.000  C
  C89      1.0000 0.82460  0.01620  0.69650  Biso   1.000  C
  C90      1.0000 0.91350  0.03350  0.71930  Biso   1.000  C
  C91      1.0000 0.98350  0.02580  0.66760  Biso   1.000  C
  C92      1.0000 0.07900  0.04980  0.69520  Biso   1.000  C
  C93      1.0000 0.96090  0.00080  0.59290  Biso   1.000  C
  C94      1.0000 0.87350  0.98300  0.56830  Biso   1.000  C
  C95      1.0000 0.85460  0.95730  0.48590  Biso   1.000  C
  C96      1.0000 0.80680  0.99190  0.62010  Biso   1.000  C
  N1       1.0000 0.95450  0.97130  0.22590  Biso   1.000  N
  N2       1.0000 0.81380  0.92680  0.21640  Biso   1.000  N
  N3       1.0000 0.83930  0.95740  0.29060  Biso   1.000  N
  N4       1.0000 0.48410  0.46260  0.67880  Biso   1.000  N
  N5       1.0000 0.50950  0.45550  0.74190  Biso   1.000  N
  N6       1.0000 0.36390  0.42830  0.72250  Biso   1.000  N
  N7       1.0000 0.22020  0.20920  0.77360  Biso   1.000  N
  N8       1.0000 0.24650  0.18270  0.70150  Biso   1.000  N
  N9       1.0000 0.23170  0.30750  0.74780  Biso   1.000  N
  N10      1.0000 0.45450  0.02870  0.77410  Biso   1.000  N
  N11      1.0000 0.31380  0.07320  0.78360  Biso   1.000  N
  N12      1.0000 0.33930  0.04260  0.70940  Biso   1.000  N
  N13      1.0000 0.98410  0.53740  0.32120  Biso   1.000  N
  N14      1.0000 0.00950  0.54450  0.25810  Biso   1.000  N
  N15      1.0000 0.86390  0.57170  0.27750  Biso   1.000  N
  N16      1.0000 0.72020  0.79080  0.22640  Biso   1.000  N
  N17      1.0000 0.74650  0.81730  0.29850  Biso   1.000  N
  N18      1.0000 0.73170  0.69250  0.25220  Biso   1.000  N
  O1       1.0000 0.59640  0.96710  0.86420  Biso   1.000  O
  O2       1.0000 0.60380  0.60810  0.71880  Biso   1.000  O
  O3       1.0000 0.73270  0.43970  0.70470  Biso   1.000  O
  O4       1.0000 0.68770  0.45520  0.60320  Biso   1.000  O
  O5       1.0000 0.05010  0.40860  0.74860  Biso   1.000  O
  O6       1.0000 0.15480  0.41180  0.66740  Biso   1.000  O
  O7       1.0000 0.93030  0.40360  0.39590  Biso   1.000  O
  O8       1.0000 0.04720  0.47470  0.45590  Biso   1.000  O
  O9       1.0000 0.14860  0.65200  0.21270  Biso   1.000  O
  O10      1.0000 0.16750  0.53470  0.12460  Biso   1.000  O
  O11      1.0000 0.22230  0.48660  0.85940  Biso   1.000  O
  O12      1.0000 0.19430  0.57450  0.82300  Biso   1.000  O
  O13      1.0000 0.09250  0.85560  0.13150  Biso   1.000  O
  O14      1.0000 0.14910  0.84290  0.02060  Biso   1.000  O
  O15      1.0000 0.56280  0.87230  0.75350  Biso   1.000  O
  O16      1.0000 0.63940  0.58720  0.82010  Biso   1.000  O
  O17      1.0000 0.67670  0.80380  0.07190  Biso   1.000  O
  O18      1.0000 0.66020  0.92190  0.08430  Biso   1.000  O
  O19      1.0000 0.17280  0.98580  0.27260  Biso   1.000  O
  O20      1.0000 0.27200  0.95370  0.18110  Biso   1.000  O
  O21      1.0000 0.27520  0.03190  0.53230  Biso   1.000  O
  O22      1.0000 0.40830  0.07880  0.56400  Biso   1.000  O
  O23      1.0000 0.63850  0.96610  0.35650  Biso   1.000  O
  O24      1.0000 0.59140  0.91970  0.23670  Biso   1.000  O
  O25      1.0000 0.09640  0.03290  0.13580  Biso   1.000  O
  O26      1.0000 0.10380  0.39190  0.28120  Biso   1.000  O
  O27      1.0000 0.23270  0.56030  0.29530  Biso   1.000  O
  O28      1.0000 0.18770  0.54480  0.39680  Biso   1.000  O
  O29      1.0000 0.55010  0.59140  0.25140  Biso   1.000  O
  O30      1.0000 0.65480  0.58820  0.33260  Biso   1.000  O
  O31      1.0000 0.43030  0.59640  0.60410  Biso   1.000  O
  O32      1.0000 0.54720  0.52530  0.54410  Biso   1.000  O
  O33      1.0000 0.64860  0.34800  0.78730  Biso   1.000  O
  O34      1.0000 0.66750  0.46530  0.87540  Biso   1.000  O
  O35      1.0000 0.72230  0.51340  0.14060  Biso   1.000  O
  O36      1.0000 0.69430  0.42550  0.17700  Biso   1.000  O
  O37      1.0000 0.59250  0.14440  0.86850  Biso   1.000  O
  O38      1.0000 0.64910  0.15710  0.97940  Biso   1.000  O
  O39      1.0000 0.06280  0.12770  0.24650  Biso   1.000  O
  O40      1.0000 0.13940  0.41280  0.17990  Biso   1.000  O
  O41      1.0000 0.17670  0.19620  0.92810  Biso   1.000  O
  O42      1.0000 0.16020  0.07810  0.91570  Biso   1.000  O
  O43      1.0000 0.67280  0.01420  0.72740  Biso   1.000  O
  O44      1.0000 0.77200  0.04630  0.81890  Biso   1.000  O
  O45      1.0000 0.77520  0.96810  0.46770  Biso   1.000  O
  O46      1.0000 0.90830  0.92120  0.43600  Biso   1.000  O
  O47      1.0000 0.13850  0.03390  0.64350  Biso   1.000  O
  O48      1.0000 0.09140  0.08030  0.76330  Biso   1.000  O
