data_image0
_cell_length_a       15.616
_cell_length_b       17.365
_cell_length_c       19.962
_cell_angle_alpha    75.813
_cell_angle_beta     89.468
_cell_angle_gamma    76.036

_symmetry_space_group_name_H-M    P 1
_symmetry_int_tables_number       1

loop_
  _symmetry_equiv_pos_as_xyz
  'x, y, z'

loop_
  _atom_site_label
  _atom_site_occupancy
  _atom_site_fract_x
  _atom_site_fract_y
  _atom_site_fract_z
  _atom_site_thermal_displace_type
  _atom_site_B_iso_or_equiv
  _atom_site_type_symbol
  Ag1      1.0000 0.27200  0.94895  0.08682  Biso   1.000  Ag
  Ag2      1.0000 0.96592  0.57187  0.53632  Biso   1.000  Ag
  Ag3      1.0000 0.40365  0.06047  0.03256  Biso   1.000  Ag
  Ag4      1.0000 0.72800  0.05105  0.91318  Biso   1.000  Ag
  Ag5      1.0000 0.03408  0.42813  0.46368  Biso   1.000  Ag
  Ag6      1.0000 0.59635  0.93953  0.96744  Biso   1.000  Ag
  Ag7      1.0000 0.00000  0.50000  0.00000  Biso   1.000  Ag
  Ag8      1.0000 0.50000  0.50000  0.00000  Biso   1.000  Ag
  Ag9      1.0000 0.00000  0.00000  0.00000  Biso   1.000  Ag
  P1       1.0000 0.78210  0.85860  0.25087  Biso   1.000  P
  P2       1.0000 0.66670  0.68470  0.23069  Biso   1.000  P
  P3       1.0000 0.21790  0.14140  0.74913  Biso   1.000  P
  P4       1.0000 0.33330  0.31530  0.76931  Biso   1.000  P
  H1       1.0000 0.14970  0.88200  0.93280  Biso   1.000  H
  H2       1.0000 0.32500  0.68470  0.92650  Biso   1.000  H
  H3       1.0000 0.24070  0.75540  0.90370  Biso   1.000  H
  H4       1.0000 0.34110  0.81190  0.94240  Biso   1.000  H
  H5       1.0000 0.36430  0.74160  0.01120  Biso   1.000  H
  H6       1.0000 0.21350  0.24080  0.21790  Biso   1.000  H
  H7       1.0000 0.15180  0.24630  0.15460  Biso   1.000  H
  H8       1.0000 0.41260  0.99520  0.20200  Biso   1.000  H
  H9       1.0000 0.13320  0.85790  0.13100  Biso   1.000  H
  H10      1.0000 0.49910  0.58890  0.83410  Biso   1.000  H
  H11      1.0000 0.20100  0.13910  0.09140  Biso   1.000  H
  H12      1.0000 0.52850  0.68600  0.98180  Biso   1.000  H
  H13      1.0000 0.65980  0.67630  0.69840  Biso   1.000  H
  H14      1.0000 0.63800  0.60060  0.74990  Biso   1.000  H
  H15      1.0000 0.76100  0.62840  0.55260  Biso   1.000  H
  H16      1.0000 0.05570  0.31480  0.96990  Biso   1.000  H
  H17      1.0000 0.34240  0.58570  0.02810  Biso   1.000  H
  H18      1.0000 0.28980  0.63980  0.07610  Biso   1.000  H
  H19      1.0000 0.93370  0.23250  0.20830  Biso   1.000  H
  H20      1.0000 0.93420  0.16860  0.16470  Biso   1.000  H
  H21      1.0000 0.34330  0.09760  0.26180  Biso   1.000  H
  H22      1.0000 0.09220  0.11410  0.18920  Biso   1.000  H
  H23      1.0000 0.04320  0.10460  0.25810  Biso   1.000  H
  H24      1.0000 0.07960  0.22740  0.26070  Biso   1.000  H
  H25      1.0000 0.14640  0.14200  0.28730  Biso   1.000  H
  H26      1.0000 0.59980  0.55420  0.66100  Biso   1.000  H
  H27      1.0000 0.61280  0.63250  0.60760  Biso   1.000  H
  H28      1.0000 0.52800  0.78180  0.86980  Biso   1.000  H
  H29      1.0000 0.16440  0.69170  0.99400  Biso   1.000  H
  H30      1.0000 0.20620  0.62870  0.94980  Biso   1.000  H
  H31      1.0000 0.51220  0.72730  0.66310  Biso   1.000  H
  H32      1.0000 0.48970  0.65120  0.71240  Biso   1.000  H
  H33      1.0000 0.44050  0.76070  0.74730  Biso   1.000  H
  H34      1.0000 0.53500  0.77540  0.74960  Biso   1.000  H
  H35      1.0000 0.78390  0.46660  0.73530  Biso   1.000  H
  H36      1.0000 0.96190  0.37390  0.13750  Biso   1.000  H
  H37      1.0000 0.03000  0.19060  0.04760  Biso   1.000  H
  H38      1.0000 0.91580  0.44510  0.67860  Biso   1.000  H
  H39      1.0000 0.26600  0.76920  0.11440  Biso   1.000  H
  H40      1.0000 0.85030  0.11800  0.06720  Biso   1.000  H
  H41      1.0000 0.67500  0.31530  0.07350  Biso   1.000  H
  H42      1.0000 0.75930  0.24460  0.09630  Biso   1.000  H
  H43      1.0000 0.65890  0.18810  0.05760  Biso   1.000  H
  H44      1.0000 0.63570  0.25840  0.98880  Biso   1.000  H
  H45      1.0000 0.78650  0.75920  0.78210  Biso   1.000  H
  H46      1.0000 0.84820  0.75370  0.84540  Biso   1.000  H
  H47      1.0000 0.58740  0.00480  0.79800  Biso   1.000  H
  H48      1.0000 0.86680  0.14210  0.86900  Biso   1.000  H
  H49      1.0000 0.50090  0.41110  0.16590  Biso   1.000  H
  H50      1.0000 0.79900  0.86090  0.90860  Biso   1.000  H
  H51      1.0000 0.47150  0.31400  0.01820  Biso   1.000  H
  H52      1.0000 0.34020  0.32370  0.30160  Biso   1.000  H
  H53      1.0000 0.36200  0.39940  0.25010  Biso   1.000  H
  H54      1.0000 0.23900  0.37160  0.44740  Biso   1.000  H
  H55      1.0000 0.94430  0.68520  0.03010  Biso   1.000  H
  H56      1.0000 0.65760  0.41430  0.97190  Biso   1.000  H
  H57      1.0000 0.71020  0.36020  0.92390  Biso   1.000  H
  H58      1.0000 0.06630  0.76750  0.79170  Biso   1.000  H
  H59      1.0000 0.06580  0.83140  0.83530  Biso   1.000  H
  H60      1.0000 0.65670  0.90240  0.73820  Biso   1.000  H
  H61      1.0000 0.90780  0.88590  0.81080  Biso   1.000  H
  H62      1.0000 0.95680  0.89540  0.74190  Biso   1.000  H
  H63      1.0000 0.92040  0.77260  0.73930  Biso   1.000  H
  H64      1.0000 0.85360  0.85800  0.71270  Biso   1.000  H
  H65      1.0000 0.40020  0.44580  0.33900  Biso   1.000  H
  H66      1.0000 0.38720  0.36750  0.39240  Biso   1.000  H
  H67      1.0000 0.47200  0.21820  0.13020  Biso   1.000  H
  H68      1.0000 0.83560  0.30830  0.00600  Biso   1.000  H
  H69      1.0000 0.79380  0.37130  0.05020  Biso   1.000  H
  H70      1.0000 0.48780  0.27270  0.33690  Biso   1.000  H
  H71      1.0000 0.51030  0.34880  0.28760  Biso   1.000  H
  H72      1.0000 0.55950  0.23930  0.25270  Biso   1.000  H
  H73      1.0000 0.46500  0.22460  0.25040  Biso   1.000  H
  H74      1.0000 0.21610  0.53340  0.26470  Biso   1.000  H
  H75      1.0000 0.03810  0.62610  0.86250  Biso   1.000  H
  H76      1.0000 0.97000  0.80940  0.95240  Biso   1.000  H
  H77      1.0000 0.08420  0.55490  0.32140  Biso   1.000  H
  H78      1.0000 0.73400  0.23080  0.88560  Biso   1.000  H
  W1       1.0000 0.61713  0.49710  0.31305  Biso   1.000  W
  W2       1.0000 0.90180  0.92986  0.36195  Biso   1.000  W
  W3       1.0000 0.61863  0.65661  0.40576  Biso   1.000  W
  W4       1.0000 0.81739  0.89535  0.07357  Biso   1.000  W
  W5       1.0000 0.75627  0.06831  0.24075  Biso   1.000  W
  W6       1.0000 0.82741  0.54478  0.35126  Biso   1.000  W
  W7       1.0000 0.70966  0.73009  0.05310  Biso   1.000  W
  W8       1.0000 0.62668  0.99710  0.12464  Biso   1.000  W
  W9       1.0000 0.72954  0.81940  0.42547  Biso   1.000  W
  W10      1.0000 0.58412  0.96060  0.30934  Biso   1.000  W
  W11      1.0000 0.65483  0.53599  0.14235  Biso   1.000  W
  W12      1.0000 0.93679  0.70985  0.36856  Biso   1.000  W
  W13      1.0000 0.51892  0.83042  0.10510  Biso   1.000  W
  W14      1.0000 0.86771  0.57639  0.18231  Biso   1.000  W
  W15      1.0000 0.94709  0.96057  0.19339  Biso   1.000  W
  W16      1.0000 0.47567  0.79714  0.28863  Biso   1.000  W
  W17      1.0000 0.46634  0.63641  0.19691  Biso   1.000  W
  W18      1.0000 0.97924  0.74036  0.19971  Biso   1.000  W
  W19      1.0000 0.38287  0.50290  0.68695  Biso   1.000  W
  W20      1.0000 0.09820  0.07014  0.63805  Biso   1.000  W
  W21      1.0000 0.38137  0.34339  0.59424  Biso   1.000  W
  W22      1.0000 0.18261  0.10465  0.92643  Biso   1.000  W
  W23      1.0000 0.24373  0.93169  0.75925  Biso   1.000  W
  W24      1.0000 0.17259  0.45522  0.64874  Biso   1.000  W
  W25      1.0000 0.29034  0.26991  0.94690  Biso   1.000  W
  W26      1.0000 0.37332  0.00290  0.87536  Biso   1.000  W
  W27      1.0000 0.27046  0.18060  0.57453  Biso   1.000  W
  W28      1.0000 0.41588  0.03940  0.69066  Biso   1.000  W
  W29      1.0000 0.34517  0.46401  0.85765  Biso   1.000  W
  W30      1.0000 0.06321  0.29015  0.63144  Biso   1.000  W
  W31      1.0000 0.48108  0.16958  0.89490  Biso   1.000  W
  W32      1.0000 0.13229  0.42361  0.81769  Biso   1.000  W
  W33      1.0000 0.05291  0.03943  0.80661  Biso   1.000  W
  W34      1.0000 0.52433  0.20286  0.71137  Biso   1.000  W
  W35      1.0000 0.53366  0.36359  0.80309  Biso   1.000  W
  W36      1.0000 0.02076  0.25964  0.80029  Biso   1.000  W
  C1       1.0000 0.16560  0.87130  0.97950  Biso   1.000  C
  C2       1.0000 0.27590  0.71900  0.94410  Biso   1.000  C
  C3       1.0000 0.31720  0.77450  0.97740  Biso   1.000  C
  C4       1.0000 0.18280  0.20980  0.19670  Biso   1.000  C
  C5       1.0000 0.36210  0.03700  0.18590  Biso   1.000  C
  C6       1.0000 0.16490  0.87200  0.08890  Biso   1.000  C
  C7       1.0000 0.50920  0.62630  0.85740  Biso   1.000  C
  C8       1.0000 0.24560  0.11680  0.12620  Biso   1.000  C
  C9       1.0000 0.52430  0.67470  0.93900  Biso   1.000  C
  C10      1.0000 0.62090  0.63940  0.70540  Biso   1.000  C
  C11      1.0000 0.78020  0.58310  0.58980  Biso   1.000  C
  C12      1.0000 0.03110  0.31180  0.01280  Biso   1.000  C
  C13      1.0000 0.28440  0.60940  0.04220  Biso   1.000  C
  C14      1.0000 0.96850  0.20250  0.17820  Biso   1.000  C
  C15      1.0000 0.32400  0.09260  0.21950  Biso   1.000  C
  C16      1.0000 0.05930  0.14440  0.22010  Biso   1.000  C
  C17      1.0000 0.11480  0.18060  0.24630  Biso   1.000  C
  C18      1.0000 0.63480  0.59440  0.65170  Biso   1.000  C
  C19      1.0000 0.52320  0.72800  0.87670  Biso   1.000  C
  C20      1.0000 0.21900  0.66190  0.97920  Biso   1.000  C
  C21      1.0000 0.52740  0.68900  0.70810  Biso   1.000  C
  C22      1.0000 0.50260  0.73310  0.75670  Biso   1.000  C
  C23      1.0000 0.79100  0.49450  0.69040  Biso   1.000  C
  C24      1.0000 0.97990  0.34430  0.10460  Biso   1.000  C
  C25      1.0000 0.01890  0.24230  0.05620  Biso   1.000  C
  C26      1.0000 0.86450  0.48480  0.66020  Biso   1.000  C
  C27      1.0000 0.24120  0.82000  0.07910  Biso   1.000  C
  C28      1.0000 0.83440  0.12870  0.02050  Biso   1.000  C
  C29      1.0000 0.72410  0.28100  0.05590  Biso   1.000  C
  C30      1.0000 0.68280  0.22550  0.02260  Biso   1.000  C
  C31      1.0000 0.81720  0.79020  0.80330  Biso   1.000  C
  C32      1.0000 0.63790  0.96300  0.81410  Biso   1.000  C
  C33      1.0000 0.83510  0.12800  0.91110  Biso   1.000  C
  C34      1.0000 0.49080  0.37370  0.14260  Biso   1.000  C
  C35      1.0000 0.75440  0.88320  0.87380  Biso   1.000  C
  C36      1.0000 0.47570  0.32530  0.06100  Biso   1.000  C
  C37      1.0000 0.37910  0.36060  0.29460  Biso   1.000  C
  C38      1.0000 0.21980  0.41690  0.41020  Biso   1.000  C
  C39      1.0000 0.96890  0.68820  0.98720  Biso   1.000  C
  C40      1.0000 0.71560  0.39060  0.95780  Biso   1.000  C
  C41      1.0000 0.03150  0.79750  0.82180  Biso   1.000  C
  C42      1.0000 0.67600  0.90740  0.78050  Biso   1.000  C
  C43      1.0000 0.94070  0.85560  0.77990  Biso   1.000  C
  C44      1.0000 0.88520  0.81940  0.75370  Biso   1.000  C
  C45      1.0000 0.36520  0.40560  0.34830  Biso   1.000  C
  C46      1.0000 0.47680  0.27200  0.12330  Biso   1.000  C
  C47      1.0000 0.78100  0.33810  0.02080  Biso   1.000  C
  C48      1.0000 0.47260  0.31100  0.29190  Biso   1.000  C
  C49      1.0000 0.49740  0.26690  0.24330  Biso   1.000  C
  C50      1.0000 0.20900  0.50550  0.30960  Biso   1.000  C
  C51      1.0000 0.02010  0.65570  0.89540  Biso   1.000  C
  C52      1.0000 0.98110  0.75770  0.94380  Biso   1.000  C
  C53      1.0000 0.13550  0.51520  0.33980  Biso   1.000  C
  C54      1.0000 0.75880  0.18000  0.92090  Biso   1.000  C
  N1       1.0000 0.11840  0.90100  0.02450  Biso   1.000  N
  N2       1.0000 0.24840  0.14260  0.17840  Biso   1.000  N
  N3       1.0000 0.72320  0.55390  0.64580  Biso   1.000  N
  N4       1.0000 0.51430  0.69110  0.82700  Biso   1.000  N
  N5       1.0000 0.98750  0.26250  0.11440  Biso   1.000  N
  N6       1.0000 0.51850  0.60570  0.92880  Biso   1.000  N
  N7       1.0000 0.24350  0.82130  0.01180  Biso   1.000  N
  N8       1.0000 0.00210  0.37560  0.04110  Biso   1.000  N
  N9       1.0000 0.85750  0.53850  0.59950  Biso   1.000  N
  N10      1.0000 0.31710  0.04990  0.12520  Biso   1.000  N
  N11      1.0000 0.88160  0.09900  0.97550  Biso   1.000  N
  N12      1.0000 0.75160  0.85740  0.82160  Biso   1.000  N
  N13      1.0000 0.27680  0.44610  0.35420  Biso   1.000  N
  N14      1.0000 0.48570  0.30890  0.17300  Biso   1.000  N
  N15      1.0000 0.01250  0.73750  0.88560  Biso   1.000  N
  N16      1.0000 0.48150  0.39430  0.07120  Biso   1.000  N
  N17      1.0000 0.75650  0.17870  0.98820  Biso   1.000  N
  N18      1.0000 0.99790  0.62440  0.95890  Biso   1.000  N
  N19      1.0000 0.14250  0.46150  0.40050  Biso   1.000  N
  N20      1.0000 0.68290  0.95010  0.87480  Biso   1.000  N
  O1       1.0000 0.49680  0.54210  0.27160  Biso   1.000  O
  O2       1.0000 0.52840  0.57090  0.13790  Biso   1.000  O
  O3       1.0000 0.86130  0.06360  0.19230  Biso   1.000  O
  O4       1.0000 0.49350  0.84400  0.19470  Biso   1.000  O
  O5       1.0000 0.58860  0.57240  0.36840  Biso   1.000  O
  O6       1.0000 0.54640  0.08030  0.08220  Biso   1.000  O
  O7       1.0000 0.94700  0.51910  0.14430  Biso   1.000  O
  O8       1.0000 0.66750  0.02650  0.29400  Biso   1.000  O
  O9       1.0000 0.82800  0.73800  0.41050  Biso   1.000  O
  O10      1.0000 0.62830  0.91220  0.40180  Biso   1.000  O
  O11      1.0000 0.69610  0.05410  0.16370  Biso   1.000  O
  O12      1.0000 0.88960  0.51170  0.27510  Biso   1.000  O
  O13      1.0000 0.71580  0.98430  0.05620  Biso   1.000  O
  O14      1.0000 0.73830  0.60510  0.39610  Biso   1.000  O
  O15      1.0000 0.48230  0.73200  0.12780  Biso   1.000  O
  O16      1.0000 0.64690  0.46160  0.23040  Biso   1.000  O
  O17      1.0000 0.01570  0.69920  0.29580  Biso   1.000  O
  O18      1.0000 0.89740  0.61750  0.35380  Biso   1.000  O
  O19      1.0000 0.50200  0.72620  0.37830  Biso   1.000  O
  O20      1.0000 0.66890  0.47200  0.08950  Biso   1.000  O
  O21      1.0000 0.93560  0.64620  0.20200  Biso   1.000  O
  O22      1.0000 0.58020  0.91660  0.09880  Biso   1.000  O
  O23      1.0000 0.60380  0.40950  0.36730  Biso   1.000  O
  O24      1.0000 0.81030  0.66530  0.10600  Biso   1.000  O
  O25      1.0000 0.35940  0.63880  0.17920  Biso   1.000  O
  O26      1.0000 0.80550  0.89230  0.40610  Biso   1.000  O
  O27      1.0000 0.77490  0.52810  0.17120  Biso   1.000  O
  O28      1.0000 0.07600  0.71190  0.16370  Biso   1.000  O
  O29      1.0000 0.52870  0.87240  0.31510  Biso   1.000  O
  O30      1.0000 0.74770  0.82430  0.05480  Biso   1.000  O
  O31      1.0000 0.87460  0.95440  0.11760  Biso   1.000  O
  O32      1.0000 0.42630  0.89370  0.05970  Biso   1.000  O
  O33      1.0000 0.97660  0.95390  0.28610  Biso   1.000  O
  O34      1.0000 0.66160  0.63450  0.07990  Biso   1.000  O
  O35      1.0000 0.82680  0.03690  0.32550  Biso   1.000  O
  O36      1.0000 0.45290  0.70680  0.25750  Biso   1.000  O
  O37      1.0000 0.00880  0.65560  0.43850  Biso   1.000  O
  O38      1.0000 0.88080  0.46410  0.41800  Biso   1.000  O
  O39      1.0000 0.61830  0.61570  0.22370  Biso   1.000  O
  O40      1.0000 0.95830  0.94320  0.42830  Biso   1.000  O
  O41      1.0000 0.65500  0.74780  0.41570  Biso   1.000  O
  O42      1.0000 0.57640  0.97400  0.21130  Biso   1.000  O
  O43      1.0000 0.02960  0.99890  0.15110  Biso   1.000  O
  O44      1.0000 0.85190  0.77740  0.26590  Biso   1.000  O
  O45      1.0000 0.62320  0.72260  0.28700  Biso   1.000  O
  O46      1.0000 0.49510  0.03240  0.32250  Biso   1.000  O
  O47      1.0000 0.71170  0.85670  0.30390  Biso   1.000  O
  O48      1.0000 0.60660  0.61720  0.49090  Biso   1.000  O
  O49      1.0000 0.86220  0.91620  0.99480  Biso   1.000  O
  O50      1.0000 0.65440  0.74820  0.16060  Biso   1.000  O
  O51      1.0000 0.73190  0.80330  0.51280  Biso   1.000  O
  O52      1.0000 0.74320  0.88200  0.17710  Biso   1.000  O
  O53      1.0000 0.73800  0.72290  0.97240  Biso   1.000  O
  O54      1.0000 0.89940  0.79930  0.12180  Biso   1.000  O
  O55      1.0000 0.37050  0.84330  0.29400  Biso   1.000  O
  O56      1.0000 0.76190  0.64280  0.24920  Biso   1.000  O
  O57      1.0000 0.72070  0.17190  0.23260  Biso   1.000  O
  O58      1.0000 0.73630  0.49360  0.33090  Biso   1.000  O
  O59      1.0000 0.94980  0.81440  0.36630  Biso   1.000  O
  O60      1.0000 0.82660  0.92710  0.25790  Biso   1.000  O
  O61      1.0000 0.98990  0.84620  0.20650  Biso   1.000  O
  O62      1.0000 0.59040  0.79830  0.03450  Biso   1.000  O
  O63      1.0000 0.50320  0.45790  0.72840  Biso   1.000  O
  O64      1.0000 0.47160  0.42910  0.86210  Biso   1.000  O
  O65      1.0000 0.13870  0.93640  0.80770  Biso   1.000  O
  O66      1.0000 0.50650  0.15600  0.80530  Biso   1.000  O
  O67      1.0000 0.41140  0.42760  0.63160  Biso   1.000  O
  O68      1.0000 0.45360  0.91970  0.91780  Biso   1.000  O
  O69      1.0000 0.05300  0.48090  0.85570  Biso   1.000  O
  O70      1.0000 0.33250  0.97350  0.70600  Biso   1.000  O
  O71      1.0000 0.17200  0.26200  0.58950  Biso   1.000  O
  O72      1.0000 0.37170  0.08780  0.59820  Biso   1.000  O
  O73      1.0000 0.30390  0.94590  0.83630  Biso   1.000  O
  O74      1.0000 0.11040  0.48830  0.72490  Biso   1.000  O
  O75      1.0000 0.28420  0.01570  0.94380  Biso   1.000  O
  O76      1.0000 0.26170  0.39490  0.60390  Biso   1.000  O
  O77      1.0000 0.51770  0.26800  0.87220  Biso   1.000  O
  O78      1.0000 0.35310  0.53840  0.76960  Biso   1.000  O
  O79      1.0000 0.98430  0.30080  0.70420  Biso   1.000  O
  O80      1.0000 0.10260  0.38250  0.64620  Biso   1.000  O
  O81      1.0000 0.49800  0.27380  0.62170  Biso   1.000  O
  O82      1.0000 0.33110  0.52800  0.91050  Biso   1.000  O
  O83      1.0000 0.06440  0.35380  0.79800  Biso   1.000  O
  O84      1.0000 0.41980  0.08340  0.90120  Biso   1.000  O
  O85      1.0000 0.39620  0.59050  0.63270  Biso   1.000  O
  O86      1.0000 0.18970  0.33470  0.89400  Biso   1.000  O
  O87      1.0000 0.64060  0.36120  0.82080  Biso   1.000  O
  O88      1.0000 0.19450  0.10770  0.59390  Biso   1.000  O
  O89      1.0000 0.22510  0.47190  0.82880  Biso   1.000  O
  O90      1.0000 0.92400  0.28810  0.83630  Biso   1.000  O
  O91      1.0000 0.47130  0.12760  0.68490  Biso   1.000  O
  O92      1.0000 0.25230  0.17570  0.94520  Biso   1.000  O
  O93      1.0000 0.12540  0.04560  0.88240  Biso   1.000  O
  O94      1.0000 0.57370  0.10630  0.94030  Biso   1.000  O
  O95      1.0000 0.02340  0.04610  0.71390  Biso   1.000  O
  O96      1.0000 0.33840  0.36550  0.92010  Biso   1.000  O
  O97      1.0000 0.17320  0.96310  0.67450  Biso   1.000  O
  O98      1.0000 0.54710  0.29320  0.74250  Biso   1.000  O
  O99      1.0000 0.99120  0.34440  0.56150  Biso   1.000  O
  O100     1.0000 0.11920  0.53590  0.58200  Biso   1.000  O
  O101     1.0000 0.38170  0.38430  0.77630  Biso   1.000  O
  O102     1.0000 0.04170  0.05680  0.57170  Biso   1.000  O
  O103     1.0000 0.34500  0.25220  0.58430  Biso   1.000  O
  O104     1.0000 0.42360  0.02600  0.78870  Biso   1.000  O
  O105     1.0000 0.97040  0.00110  0.84890  Biso   1.000  O
  O106     1.0000 0.14810  0.22260  0.73410  Biso   1.000  O
  O107     1.0000 0.37680  0.27740  0.71300  Biso   1.000  O
  O108     1.0000 0.50490  0.96760  0.67750  Biso   1.000  O
  O109     1.0000 0.28830  0.14330  0.69610  Biso   1.000  O
  O110     1.0000 0.39340  0.38280  0.50910  Biso   1.000  O
  O111     1.0000 0.13780  0.08380  0.00520  Biso   1.000  O
  O112     1.0000 0.34560  0.25180  0.83940  Biso   1.000  O
  O113     1.0000 0.26810  0.19670  0.48720  Biso   1.000  O
  O114     1.0000 0.25680  0.11800  0.82290  Biso   1.000  O
  O115     1.0000 0.26200  0.27710  0.02760  Biso   1.000  O
  O116     1.0000 0.10060  0.20070  0.87820  Biso   1.000  O
  O117     1.0000 0.62950  0.15670  0.70600  Biso   1.000  O
  O118     1.0000 0.23810  0.35720  0.75080  Biso   1.000  O
  O119     1.0000 0.27930  0.82810  0.76740  Biso   1.000  O
  O120     1.0000 0.26370  0.50640  0.66910  Biso   1.000  O
  O121     1.0000 0.05020  0.18560  0.63370  Biso   1.000  O
  O122     1.0000 0.17340  0.07290  0.74210  Biso   1.000  O
  O123     1.0000 0.01010  0.15380  0.79350  Biso   1.000  O
  O124     1.0000 0.40960  0.20170  0.96550  Biso   1.000  O
