data_image0
_cell_length_a       15.5019
_cell_length_b       15.5019
_cell_length_c       12.306
_cell_angle_alpha    90
_cell_angle_beta     90
_cell_angle_gamma    90

_symmetry_space_group_name_H-M    "P 1"
_symmetry_int_tables_number       1

loop_
  _symmetry_equiv_pos_as_xyz
  'x, y, z'

loop_
  _atom_site_label
  _atom_site_occupancy
  _atom_site_fract_x
  _atom_site_fract_y
  _atom_site_fract_z
  _atom_site_thermal_displace_type
  _atom_site_B_iso_or_equiv
  _atom_site_type_symbol
  O1       1.0000 0.61350  0.38170  0.61820  Biso   1.000  O
  O2       1.0000 0.58810  0.29120  0.75450  Biso   1.000  O
  C1       1.0000 0.58290  0.36430  0.71040  Biso   1.000  C
  C2       1.0000 0.53910  0.43248  0.76930  Biso   1.000  C
  C3       1.0000 0.53910  0.43248  0.88280  Biso   1.000  C
  H1       1.0000 0.56840  0.38170  0.92540  Biso   1.000  H
  O3       1.0000 0.11350  0.88170  0.11820  Biso   1.000  O
  O4       1.0000 0.08810  0.79120  0.25450  Biso   1.000  O
  C4       1.0000 0.08290  0.86430  0.21040  Biso   1.000  C
  C5       1.0000 0.03910  0.93248  0.26930  Biso   1.000  C
  C6       1.0000 0.03910  0.93248  0.38280  Biso   1.000  C
  H2       1.0000 0.06840  0.88170  0.42540  Biso   1.000  H
  O5       1.0000 0.88650  0.11830  0.11820  Biso   1.000  O
  O6       1.0000 0.91190  0.20880  0.25450  Biso   1.000  O
  C7       1.0000 0.91710  0.13570  0.21040  Biso   1.000  C
  C8       1.0000 0.96090  0.06752  0.26930  Biso   1.000  C
  C9       1.0000 0.96090  0.06752  0.38280  Biso   1.000  C
  H3       1.0000 0.93160  0.11830  0.42540  Biso   1.000  H
  O7       1.0000 0.38650  0.61830  0.61820  Biso   1.000  O
  O8       1.0000 0.41190  0.70880  0.75450  Biso   1.000  O
  C10      1.0000 0.41710  0.63570  0.71040  Biso   1.000  C
  C11      1.0000 0.46090  0.56752  0.76930  Biso   1.000  C
  C12      1.0000 0.46090  0.56752  0.88280  Biso   1.000  C
  H4       1.0000 0.43160  0.61830  0.92540  Biso   1.000  H
  O9       1.0000 0.61830  0.11350  0.86820  Biso   1.000  O
  O10      1.0000 0.70880  0.08810  0.00450  Biso   1.000  O
  C13      1.0000 0.63570  0.08290  0.96040  Biso   1.000  C
  C14      1.0000 0.56752  0.03910  0.01930  Biso   1.000  C
  C15      1.0000 0.56752  0.03910  0.13280  Biso   1.000  C
  H5       1.0000 0.61830  0.06840  0.17540  Biso   1.000  H
  O11      1.0000 0.11830  0.61350  0.36820  Biso   1.000  O
  O12      1.0000 0.20880  0.58810  0.50450  Biso   1.000  O
  C16      1.0000 0.13570  0.58290  0.46040  Biso   1.000  C
  C17      1.0000 0.06752  0.53910  0.51930  Biso   1.000  C
  C18      1.0000 0.06752  0.53910  0.63280  Biso   1.000  C
  H6       1.0000 0.11830  0.56840  0.67540  Biso   1.000  H
  O13      1.0000 0.88170  0.38650  0.36820  Biso   1.000  O
  O14      1.0000 0.79120  0.41190  0.50450  Biso   1.000  O
  C19      1.0000 0.86430  0.41710  0.46040  Biso   1.000  C
  C20      1.0000 0.93248  0.46090  0.51930  Biso   1.000  C
  C21      1.0000 0.93248  0.46090  0.63280  Biso   1.000  C
  H7       1.0000 0.88170  0.43160  0.67540  Biso   1.000  H
  O15      1.0000 0.38170  0.88650  0.86820  Biso   1.000  O
  O16      1.0000 0.29120  0.91190  0.00450  Biso   1.000  O
  C22      1.0000 0.36430  0.91710  0.96040  Biso   1.000  C
  C23      1.0000 0.43248  0.96090  0.01930  Biso   1.000  C
  C24      1.0000 0.43248  0.96090  0.13280  Biso   1.000  C
  H8       1.0000 0.38170  0.93160  0.17540  Biso   1.000  H
  O17      1.0000 0.88650  0.38170  0.13180  Biso   1.000  O
  O18      1.0000 0.91190  0.29120  0.99550  Biso   1.000  O
  C25      1.0000 0.91710  0.36430  0.03960  Biso   1.000  C
  C26      1.0000 0.96090  0.43248  0.98070  Biso   1.000  C
  C27      1.0000 0.96090  0.43248  0.86720  Biso   1.000  C
  H9       1.0000 0.93160  0.38170  0.82460  Biso   1.000  H
  O19      1.0000 0.38650  0.88170  0.63180  Biso   1.000  O
  O20      1.0000 0.41190  0.79120  0.49550  Biso   1.000  O
  C28      1.0000 0.41710  0.86430  0.53960  Biso   1.000  C
  C29      1.0000 0.46090  0.93248  0.48070  Biso   1.000  C
  C30      1.0000 0.46090  0.93248  0.36720  Biso   1.000  C
  H10      1.0000 0.43160  0.88170  0.32460  Biso   1.000  H
  O21      1.0000 0.61350  0.11830  0.63180  Biso   1.000  O
  O22      1.0000 0.58810  0.20880  0.49550  Biso   1.000  O
  C31      1.0000 0.58290  0.13570  0.53960  Biso   1.000  C
  C32      1.0000 0.53910  0.06752  0.48070  Biso   1.000  C
  C33      1.0000 0.53910  0.06752  0.36720  Biso   1.000  C
  H11      1.0000 0.56840  0.11830  0.32460  Biso   1.000  H
  O23      1.0000 0.11350  0.61830  0.13180  Biso   1.000  O
  O24      1.0000 0.08810  0.70880  0.99550  Biso   1.000  O
  C34      1.0000 0.08290  0.63570  0.03960  Biso   1.000  C
  C35      1.0000 0.03910  0.56752  0.98070  Biso   1.000  C
  C36      1.0000 0.03910  0.56752  0.86720  Biso   1.000  C
  H12      1.0000 0.06840  0.61830  0.82460  Biso   1.000  H
  O25      1.0000 0.88170  0.11350  0.88180  Biso   1.000  O
  O26      1.0000 0.79120  0.08810  0.74550  Biso   1.000  O
  C37      1.0000 0.86430  0.08290  0.78960  Biso   1.000  C
  C38      1.0000 0.93248  0.03910  0.73070  Biso   1.000  C
  C39      1.0000 0.93248  0.03910  0.61720  Biso   1.000  C
  H13      1.0000 0.88170  0.06840  0.57460  Biso   1.000  H
  O27      1.0000 0.38170  0.61350  0.38180  Biso   1.000  O
  O28      1.0000 0.29120  0.58810  0.24550  Biso   1.000  O
  C40      1.0000 0.36430  0.58290  0.28960  Biso   1.000  C
  C41      1.0000 0.43248  0.53910  0.23070  Biso   1.000  C
  C42      1.0000 0.43248  0.53910  0.11720  Biso   1.000  C
  H14      1.0000 0.38170  0.56840  0.07460  Biso   1.000  H
  O29      1.0000 0.61830  0.38650  0.38180  Biso   1.000  O
  O30      1.0000 0.70880  0.41190  0.24550  Biso   1.000  O
  C43      1.0000 0.63570  0.41710  0.28960  Biso   1.000  C
  C44      1.0000 0.56752  0.46090  0.23070  Biso   1.000  C
  C45      1.0000 0.56752  0.46090  0.11720  Biso   1.000  C
  H15      1.0000 0.61830  0.43160  0.07460  Biso   1.000  H
  O31      1.0000 0.11830  0.88650  0.88180  Biso   1.000  O
  O32      1.0000 0.20880  0.91190  0.74550  Biso   1.000  O
  C46      1.0000 0.13570  0.91710  0.78960  Biso   1.000  C
  C47      1.0000 0.06752  0.96090  0.73070  Biso   1.000  C
  C48      1.0000 0.06752  0.96090  0.61720  Biso   1.000  C
  H16      1.0000 0.11830  0.93160  0.57460  Biso   1.000  H
  In1      1.0000 0.67190  0.32810  0.50000  Biso   1.000  In
  In2      1.0000 0.17190  0.82810  0.00000  Biso   1.000  In
  In3      1.0000 0.82810  0.17190  0.00000  Biso   1.000  In
  In4      1.0000 0.32810  0.67190  0.50000  Biso   1.000  In
  In5      1.0000 0.67190  0.17190  0.75000  Biso   1.000  In
  In6      1.0000 0.17190  0.67190  0.25000  Biso   1.000  In
  In7      1.0000 0.82810  0.32810  0.25000  Biso   1.000  In
  In8      1.0000 0.32810  0.82810  0.75000  Biso   1.000  In
  O33      1.0000 0.75750  0.25000  0.62500  Biso   1.000  O
  H17      1.0000 0.81550  0.25000  0.62500  Biso   1.000  H
  O34      1.0000 0.25750  0.75000  0.12500  Biso   1.000  O
  H18      1.0000 0.31550  0.75000  0.12500  Biso   1.000  H
  O35      1.0000 0.74250  0.25000  0.12500  Biso   1.000  O
  H19      1.0000 0.68450  0.25000  0.12500  Biso   1.000  H
  O36      1.0000 0.24250  0.75000  0.62500  Biso   1.000  O
  H20      1.0000 0.18450  0.75000  0.62500  Biso   1.000  H
  O37      1.0000 0.75000  0.25750  0.87500  Biso   1.000  O
  H21      1.0000 0.75000  0.31550  0.87500  Biso   1.000  H
  O38      1.0000 0.25000  0.75750  0.37500  Biso   1.000  O
  H22      1.0000 0.25000  0.81550  0.37500  Biso   1.000  H
  O39      1.0000 0.75000  0.24250  0.37500  Biso   1.000  O
  H23      1.0000 0.75000  0.18450  0.37500  Biso   1.000  H
  O40      1.0000 0.25000  0.74250  0.87500  Biso   1.000  O
  H24      1.0000 0.25000  0.68450  0.87500  Biso   1.000  H
  C49      1.0000 0.50000  0.50000  0.71260  Biso   1.000  C
  C50      1.0000 0.50000  0.50000  0.93950  Biso   1.000  C
  H25      1.0000 0.50000  0.50000  0.62730  Biso   1.000  H
  C51      1.0000 0.00000  0.00000  0.21260  Biso   1.000  C
  C52      1.0000 0.00000  0.00000  0.43950  Biso   1.000  C
  H26      1.0000 0.00000  0.00000  0.12730  Biso   1.000  H
  C53      1.0000 0.50000  0.00000  0.96260  Biso   1.000  C
  C54      1.0000 0.50000  0.00000  0.18950  Biso   1.000  C
  H27      1.0000 0.50000  0.00000  0.87730  Biso   1.000  H
  C55      1.0000 0.00000  0.50000  0.46260  Biso   1.000  C
  C56      1.0000 0.00000  0.50000  0.68950  Biso   1.000  C
  H28      1.0000 0.00000  0.50000  0.37730  Biso   1.000  H
  C57      1.0000 0.00000  0.50000  0.03740  Biso   1.000  C
  C58      1.0000 0.00000  0.50000  0.81050  Biso   1.000  C
  H29      1.0000 0.00000  0.50000  0.12270  Biso   1.000  H
  C59      1.0000 0.50000  0.00000  0.53740  Biso   1.000  C
  C60      1.0000 0.50000  0.00000  0.31050  Biso   1.000  C
  H30      1.0000 0.50000  0.00000  0.62270  Biso   1.000  H
  C61      1.0000 0.00000  0.00000  0.78740  Biso   1.000  C
  C62      1.0000 0.00000  0.00000  0.56050  Biso   1.000  C
  H31      1.0000 0.00000  0.00000  0.87270  Biso   1.000  H
  C63      1.0000 0.50000  0.50000  0.28740  Biso   1.000  C
  C64      1.0000 0.50000  0.50000  0.06050  Biso   1.000  C
  H32      1.0000 0.50000  0.50000  0.37270  Biso   1.000  H
