data_image0
_cell_length_a       15.4375
_cell_length_b       15.4375
_cell_length_c       12.2848
_cell_angle_alpha    90
_cell_angle_beta     90
_cell_angle_gamma    90

_symmetry_space_group_name_H-M    "P 1"
_symmetry_int_tables_number       1

loop_
  _symmetry_equiv_pos_as_xyz
  'x, y, z'

loop_
  _atom_site_label
  _atom_site_occupancy
  _atom_site_fract_x
  _atom_site_fract_y
  _atom_site_fract_z
  _atom_site_thermal_displace_type
  _atom_site_B_iso_or_equiv
  _atom_site_type_symbol
  O1       1.0000 0.61400  0.38060  0.61730  Biso   1.000  O
  O2       1.0000 0.59100  0.29090  0.75080  Biso   1.000  O
  C1       1.0000 0.58330  0.36370  0.70850  Biso   1.000  C
  C2       1.0000 0.53734  0.43096  0.76730  Biso   1.000  C
  C3       1.0000 0.53734  0.43096  0.88120  Biso   1.000  C
  H1       1.0000 0.56540  0.37920  0.92390  Biso   1.000  H
  O3       1.0000 0.11400  0.88060  0.11730  Biso   1.000  O
  O4       1.0000 0.09100  0.79090  0.25080  Biso   1.000  O
  C4       1.0000 0.08330  0.86370  0.20850  Biso   1.000  C
  C5       1.0000 0.03734  0.93096  0.26730  Biso   1.000  C
  C6       1.0000 0.03734  0.93096  0.38120  Biso   1.000  C
  H2       1.0000 0.06540  0.87920  0.42390  Biso   1.000  H
  O5       1.0000 0.88600  0.11940  0.11730  Biso   1.000  O
  O6       1.0000 0.90900  0.20910  0.25080  Biso   1.000  O
  C7       1.0000 0.91670  0.13630  0.20850  Biso   1.000  C
  C8       1.0000 0.96266  0.06904  0.26730  Biso   1.000  C
  C9       1.0000 0.96266  0.06904  0.38120  Biso   1.000  C
  H3       1.0000 0.93460  0.12080  0.42390  Biso   1.000  H
  O7       1.0000 0.38600  0.61940  0.61730  Biso   1.000  O
  O8       1.0000 0.40900  0.70910  0.75080  Biso   1.000  O
  C10      1.0000 0.41670  0.63630  0.70850  Biso   1.000  C
  C11      1.0000 0.46266  0.56904  0.76730  Biso   1.000  C
  C12      1.0000 0.46266  0.56904  0.88120  Biso   1.000  C
  H4       1.0000 0.43460  0.62080  0.92390  Biso   1.000  H
  O9       1.0000 0.61940  0.11400  0.86730  Biso   1.000  O
  O10      1.0000 0.70910  0.09100  0.00080  Biso   1.000  O
  C13      1.0000 0.63630  0.08330  0.95850  Biso   1.000  C
  C14      1.0000 0.56904  0.03734  0.01730  Biso   1.000  C
  C15      1.0000 0.56904  0.03734  0.13120  Biso   1.000  C
  H5       1.0000 0.62080  0.06540  0.17390  Biso   1.000  H
  O11      1.0000 0.11940  0.61400  0.36730  Biso   1.000  O
  O12      1.0000 0.20910  0.59100  0.50080  Biso   1.000  O
  C16      1.0000 0.13630  0.58330  0.45850  Biso   1.000  C
  C17      1.0000 0.06904  0.53734  0.51730  Biso   1.000  C
  C18      1.0000 0.06904  0.53734  0.63120  Biso   1.000  C
  H6       1.0000 0.12080  0.56540  0.67390  Biso   1.000  H
  O13      1.0000 0.88060  0.38600  0.36730  Biso   1.000  O
  O14      1.0000 0.79090  0.40900  0.50080  Biso   1.000  O
  C19      1.0000 0.86370  0.41670  0.45850  Biso   1.000  C
  C20      1.0000 0.93096  0.46266  0.51730  Biso   1.000  C
  C21      1.0000 0.93096  0.46266  0.63120  Biso   1.000  C
  H7       1.0000 0.87920  0.43460  0.67390  Biso   1.000  H
  O15      1.0000 0.38060  0.88600  0.86730  Biso   1.000  O
  O16      1.0000 0.29090  0.90900  0.00080  Biso   1.000  O
  C22      1.0000 0.36370  0.91670  0.95850  Biso   1.000  C
  C23      1.0000 0.43096  0.96266  0.01730  Biso   1.000  C
  C24      1.0000 0.43096  0.96266  0.13120  Biso   1.000  C
  H8       1.0000 0.37920  0.93460  0.17390  Biso   1.000  H
  O17      1.0000 0.88600  0.38060  0.13270  Biso   1.000  O
  O18      1.0000 0.90900  0.29090  0.99920  Biso   1.000  O
  C25      1.0000 0.91670  0.36370  0.04150  Biso   1.000  C
  C26      1.0000 0.96266  0.43096  0.98270  Biso   1.000  C
  C27      1.0000 0.96266  0.43096  0.86880  Biso   1.000  C
  H9       1.0000 0.93460  0.37920  0.82610  Biso   1.000  H
  O19      1.0000 0.38600  0.88060  0.63270  Biso   1.000  O
  O20      1.0000 0.40900  0.79090  0.49920  Biso   1.000  O
  C28      1.0000 0.41670  0.86370  0.54150  Biso   1.000  C
  C29      1.0000 0.46266  0.93096  0.48270  Biso   1.000  C
  C30      1.0000 0.46266  0.93096  0.36880  Biso   1.000  C
  H10      1.0000 0.43460  0.87920  0.32610  Biso   1.000  H
  O21      1.0000 0.61400  0.11940  0.63270  Biso   1.000  O
  O22      1.0000 0.59100  0.20910  0.49920  Biso   1.000  O
  C31      1.0000 0.58330  0.13630  0.54150  Biso   1.000  C
  C32      1.0000 0.53734  0.06904  0.48270  Biso   1.000  C
  C33      1.0000 0.53734  0.06904  0.36880  Biso   1.000  C
  H11      1.0000 0.56540  0.12080  0.32610  Biso   1.000  H
  O23      1.0000 0.11400  0.61940  0.13270  Biso   1.000  O
  O24      1.0000 0.09100  0.70910  0.99920  Biso   1.000  O
  C34      1.0000 0.08330  0.63630  0.04150  Biso   1.000  C
  C35      1.0000 0.03734  0.56904  0.98270  Biso   1.000  C
  C36      1.0000 0.03734  0.56904  0.86880  Biso   1.000  C
  H12      1.0000 0.06540  0.62080  0.82610  Biso   1.000  H
  O25      1.0000 0.88060  0.11400  0.88270  Biso   1.000  O
  O26      1.0000 0.79090  0.09100  0.74920  Biso   1.000  O
  C37      1.0000 0.86370  0.08330  0.79150  Biso   1.000  C
  C38      1.0000 0.93096  0.03734  0.73270  Biso   1.000  C
  C39      1.0000 0.93096  0.03734  0.61880  Biso   1.000  C
  H13      1.0000 0.87920  0.06540  0.57610  Biso   1.000  H
  O27      1.0000 0.38060  0.61400  0.38270  Biso   1.000  O
  O28      1.0000 0.29090  0.59100  0.24920  Biso   1.000  O
  C40      1.0000 0.36370  0.58330  0.29150  Biso   1.000  C
  C41      1.0000 0.43096  0.53734  0.23270  Biso   1.000  C
  C42      1.0000 0.43096  0.53734  0.11880  Biso   1.000  C
  H14      1.0000 0.37920  0.56540  0.07610  Biso   1.000  H
  O29      1.0000 0.61940  0.38600  0.38270  Biso   1.000  O
  O30      1.0000 0.70910  0.40900  0.24920  Biso   1.000  O
  C43      1.0000 0.63630  0.41670  0.29150  Biso   1.000  C
  C44      1.0000 0.56904  0.46266  0.23270  Biso   1.000  C
  C45      1.0000 0.56904  0.46266  0.11880  Biso   1.000  C
  H15      1.0000 0.62080  0.43460  0.07610  Biso   1.000  H
  O31      1.0000 0.11940  0.88600  0.88270  Biso   1.000  O
  O32      1.0000 0.20910  0.90900  0.74920  Biso   1.000  O
  C46      1.0000 0.13630  0.91670  0.79150  Biso   1.000  C
  C47      1.0000 0.06904  0.96266  0.73270  Biso   1.000  C
  C48      1.0000 0.06904  0.96266  0.61880  Biso   1.000  C
  H16      1.0000 0.12080  0.93460  0.57610  Biso   1.000  H
  In1      1.0000 0.68370  0.31630  0.50000  Biso   1.000  In
  In2      1.0000 0.18370  0.81630  0.00000  Biso   1.000  In
  In3      1.0000 0.81630  0.18370  0.00000  Biso   1.000  In
  In4      1.0000 0.31630  0.68370  0.50000  Biso   1.000  In
  In5      1.0000 0.68370  0.18370  0.75000  Biso   1.000  In
  In6      1.0000 0.18370  0.68370  0.25000  Biso   1.000  In
  In7      1.0000 0.81630  0.31630  0.25000  Biso   1.000  In
  In8      1.0000 0.31630  0.81630  0.75000  Biso   1.000  In
  O33      1.0000 0.75800  0.25000  0.62500  Biso   1.000  O
  H17      1.0000 0.81630  0.25000  0.62500  Biso   1.000  H
  O34      1.0000 0.25800  0.75000  0.12500  Biso   1.000  O
  H18      1.0000 0.31630  0.75000  0.12500  Biso   1.000  H
  O35      1.0000 0.74200  0.25000  0.12500  Biso   1.000  O
  H19      1.0000 0.68370  0.25000  0.12500  Biso   1.000  H
  O36      1.0000 0.24200  0.75000  0.62500  Biso   1.000  O
  H20      1.0000 0.18370  0.75000  0.62500  Biso   1.000  H
  O37      1.0000 0.75000  0.25800  0.87500  Biso   1.000  O
  H21      1.0000 0.75000  0.31630  0.87500  Biso   1.000  H
  O38      1.0000 0.25000  0.75800  0.37500  Biso   1.000  O
  H22      1.0000 0.25000  0.81630  0.37500  Biso   1.000  H
  O39      1.0000 0.75000  0.24200  0.37500  Biso   1.000  O
  H23      1.0000 0.75000  0.18370  0.37500  Biso   1.000  H
  O40      1.0000 0.25000  0.74200  0.87500  Biso   1.000  O
  H24      1.0000 0.25000  0.68370  0.87500  Biso   1.000  H
  C49      1.0000 0.50000  0.50000  0.71040  Biso   1.000  C
  C50      1.0000 0.50000  0.50000  0.93810  Biso   1.000  C
  H25      1.0000 0.50000  0.50000  0.62490  Biso   1.000  H
  C51      1.0000 0.00000  0.00000  0.21040  Biso   1.000  C
  C52      1.0000 0.00000  0.00000  0.43810  Biso   1.000  C
  H26      1.0000 0.00000  0.00000  0.12490  Biso   1.000  H
  C53      1.0000 0.50000  0.00000  0.96040  Biso   1.000  C
  C54      1.0000 0.50000  0.00000  0.18810  Biso   1.000  C
  H27      1.0000 0.50000  0.00000  0.87490  Biso   1.000  H
  C55      1.0000 0.00000  0.50000  0.46040  Biso   1.000  C
  C56      1.0000 0.00000  0.50000  0.68810  Biso   1.000  C
  H28      1.0000 0.00000  0.50000  0.37490  Biso   1.000  H
  C57      1.0000 0.00000  0.50000  0.03960  Biso   1.000  C
  C58      1.0000 0.00000  0.50000  0.81190  Biso   1.000  C
  H29      1.0000 0.00000  0.50000  0.12510  Biso   1.000  H
  C59      1.0000 0.50000  0.00000  0.53960  Biso   1.000  C
  C60      1.0000 0.50000  0.00000  0.31190  Biso   1.000  C
  H30      1.0000 0.50000  0.00000  0.62510  Biso   1.000  H
  C61      1.0000 0.00000  0.00000  0.78960  Biso   1.000  C
  C62      1.0000 0.00000  0.00000  0.56190  Biso   1.000  C
  H31      1.0000 0.00000  0.00000  0.87510  Biso   1.000  H
  C63      1.0000 0.50000  0.50000  0.28960  Biso   1.000  C
  C64      1.0000 0.50000  0.50000  0.06190  Biso   1.000  C
  H32      1.0000 0.50000  0.50000  0.37510  Biso   1.000  H
