data_image0
_cell_length_a       15.4636
_cell_length_b       15.4636
_cell_length_c       12.2904
_cell_angle_alpha    90
_cell_angle_beta     90
_cell_angle_gamma    90

_symmetry_space_group_name_H-M    "P 1"
_symmetry_int_tables_number       1

loop_
  _symmetry_equiv_pos_as_xyz
  'x, y, z'

loop_
  _atom_site_label
  _atom_site_occupancy
  _atom_site_fract_x
  _atom_site_fract_y
  _atom_site_fract_z
  _atom_site_thermal_displace_type
  _atom_site_B_iso_or_equiv
  _atom_site_type_symbol
  O1       1.0000 0.61390  0.38060  0.61600  Biso   1.000  O
  O2       1.0000 0.59380  0.29100  0.75120  Biso   1.000  O
  C1       1.0000 0.58370  0.36440  0.70880  Biso   1.000  C
  C2       1.0000 0.53685  0.43088  0.76740  Biso   1.000  C
  C3       1.0000 0.53685  0.43088  0.88125  Biso   1.000  C
  H1       1.0000 0.56450  0.37900  0.92400  Biso   1.000  H
  O3       1.0000 0.11390  0.88060  0.11600  Biso   1.000  O
  O4       1.0000 0.09380  0.79100  0.25120  Biso   1.000  O
  C4       1.0000 0.08370  0.86440  0.20880  Biso   1.000  C
  C5       1.0000 0.03685  0.93088  0.26740  Biso   1.000  C
  C6       1.0000 0.03685  0.93088  0.38125  Biso   1.000  C
  H2       1.0000 0.06450  0.87900  0.42400  Biso   1.000  H
  O5       1.0000 0.88610  0.11940  0.11600  Biso   1.000  O
  O6       1.0000 0.90620  0.20900  0.25120  Biso   1.000  O
  C7       1.0000 0.91630  0.13560  0.20880  Biso   1.000  C
  C8       1.0000 0.96315  0.06912  0.26740  Biso   1.000  C
  C9       1.0000 0.96315  0.06912  0.38125  Biso   1.000  C
  H3       1.0000 0.93550  0.12100  0.42400  Biso   1.000  H
  O7       1.0000 0.38610  0.61940  0.61600  Biso   1.000  O
  O8       1.0000 0.40620  0.70900  0.75120  Biso   1.000  O
  C10      1.0000 0.41630  0.63560  0.70880  Biso   1.000  C
  C11      1.0000 0.46315  0.56912  0.76740  Biso   1.000  C
  C12      1.0000 0.46315  0.56912  0.88125  Biso   1.000  C
  H4       1.0000 0.43550  0.62100  0.92400  Biso   1.000  H
  O9       1.0000 0.61940  0.11390  0.86600  Biso   1.000  O
  O10      1.0000 0.70900  0.09380  0.00120  Biso   1.000  O
  C13      1.0000 0.63560  0.08370  0.95880  Biso   1.000  C
  C14      1.0000 0.56912  0.03685  0.01740  Biso   1.000  C
  C15      1.0000 0.56912  0.03685  0.13125  Biso   1.000  C
  H5       1.0000 0.62100  0.06450  0.17400  Biso   1.000  H
  O11      1.0000 0.11940  0.61390  0.36600  Biso   1.000  O
  O12      1.0000 0.20900  0.59380  0.50120  Biso   1.000  O
  C16      1.0000 0.13560  0.58370  0.45880  Biso   1.000  C
  C17      1.0000 0.06912  0.53685  0.51740  Biso   1.000  C
  C18      1.0000 0.06912  0.53685  0.63125  Biso   1.000  C
  H6       1.0000 0.12100  0.56450  0.67400  Biso   1.000  H
  O13      1.0000 0.88060  0.38610  0.36600  Biso   1.000  O
  O14      1.0000 0.79100  0.40620  0.50120  Biso   1.000  O
  C19      1.0000 0.86440  0.41630  0.45880  Biso   1.000  C
  C20      1.0000 0.93088  0.46315  0.51740  Biso   1.000  C
  C21      1.0000 0.93088  0.46315  0.63125  Biso   1.000  C
  H7       1.0000 0.87900  0.43550  0.67400  Biso   1.000  H
  O15      1.0000 0.38060  0.88610  0.86600  Biso   1.000  O
  O16      1.0000 0.29100  0.90620  0.00120  Biso   1.000  O
  C22      1.0000 0.36440  0.91630  0.95880  Biso   1.000  C
  C23      1.0000 0.43088  0.96315  0.01740  Biso   1.000  C
  C24      1.0000 0.43088  0.96315  0.13125  Biso   1.000  C
  H8       1.0000 0.37900  0.93550  0.17400  Biso   1.000  H
  O17      1.0000 0.88610  0.38060  0.13400  Biso   1.000  O
  O18      1.0000 0.90620  0.29100  0.99880  Biso   1.000  O
  C25      1.0000 0.91630  0.36440  0.04120  Biso   1.000  C
  C26      1.0000 0.96315  0.43088  0.98260  Biso   1.000  C
  C27      1.0000 0.96315  0.43088  0.86875  Biso   1.000  C
  H9       1.0000 0.93550  0.37900  0.82600  Biso   1.000  H
  O19      1.0000 0.38610  0.88060  0.63400  Biso   1.000  O
  O20      1.0000 0.40620  0.79100  0.49880  Biso   1.000  O
  C28      1.0000 0.41630  0.86440  0.54120  Biso   1.000  C
  C29      1.0000 0.46315  0.93088  0.48260  Biso   1.000  C
  C30      1.0000 0.46315  0.93088  0.36875  Biso   1.000  C
  H10      1.0000 0.43550  0.87900  0.32600  Biso   1.000  H
  O21      1.0000 0.61390  0.11940  0.63400  Biso   1.000  O
  O22      1.0000 0.59380  0.20900  0.49880  Biso   1.000  O
  C31      1.0000 0.58370  0.13560  0.54120  Biso   1.000  C
  C32      1.0000 0.53685  0.06912  0.48260  Biso   1.000  C
  C33      1.0000 0.53685  0.06912  0.36875  Biso   1.000  C
  H11      1.0000 0.56450  0.12100  0.32600  Biso   1.000  H
  O23      1.0000 0.11390  0.61940  0.13400  Biso   1.000  O
  O24      1.0000 0.09380  0.70900  0.99880  Biso   1.000  O
  C34      1.0000 0.08370  0.63560  0.04120  Biso   1.000  C
  C35      1.0000 0.03685  0.56912  0.98260  Biso   1.000  C
  C36      1.0000 0.03685  0.56912  0.86875  Biso   1.000  C
  H12      1.0000 0.06450  0.62100  0.82600  Biso   1.000  H
  O25      1.0000 0.88060  0.11390  0.88400  Biso   1.000  O
  O26      1.0000 0.79100  0.09380  0.74880  Biso   1.000  O
  C37      1.0000 0.86440  0.08370  0.79120  Biso   1.000  C
  C38      1.0000 0.93088  0.03685  0.73260  Biso   1.000  C
  C39      1.0000 0.93088  0.03685  0.61875  Biso   1.000  C
  H13      1.0000 0.87900  0.06450  0.57600  Biso   1.000  H
  O27      1.0000 0.38060  0.61390  0.38400  Biso   1.000  O
  O28      1.0000 0.29100  0.59380  0.24880  Biso   1.000  O
  C40      1.0000 0.36440  0.58370  0.29120  Biso   1.000  C
  C41      1.0000 0.43088  0.53685  0.23260  Biso   1.000  C
  C42      1.0000 0.43088  0.53685  0.11875  Biso   1.000  C
  H14      1.0000 0.37900  0.56450  0.07600  Biso   1.000  H
  O29      1.0000 0.61940  0.38610  0.38400  Biso   1.000  O
  O30      1.0000 0.70900  0.40620  0.24880  Biso   1.000  O
  C43      1.0000 0.63560  0.41630  0.29120  Biso   1.000  C
  C44      1.0000 0.56912  0.46315  0.23260  Biso   1.000  C
  C45      1.0000 0.56912  0.46315  0.11875  Biso   1.000  C
  H15      1.0000 0.62100  0.43550  0.07600  Biso   1.000  H
  O31      1.0000 0.11940  0.88610  0.88400  Biso   1.000  O
  O32      1.0000 0.20900  0.90620  0.74880  Biso   1.000  O
  C46      1.0000 0.13560  0.91630  0.79120  Biso   1.000  C
  C47      1.0000 0.06912  0.96315  0.73260  Biso   1.000  C
  C48      1.0000 0.06912  0.96315  0.61875  Biso   1.000  C
  H16      1.0000 0.12100  0.93550  0.57600  Biso   1.000  H
  In1      1.0000 0.68750  0.31250  0.50000  Biso   1.000  In
  In2      1.0000 0.18750  0.81250  0.00000  Biso   1.000  In
  In3      1.0000 0.81250  0.18750  0.00000  Biso   1.000  In
  In4      1.0000 0.31250  0.68750  0.50000  Biso   1.000  In
  In5      1.0000 0.68750  0.18750  0.75000  Biso   1.000  In
  In6      1.0000 0.18750  0.68750  0.25000  Biso   1.000  In
  In7      1.0000 0.81250  0.31250  0.25000  Biso   1.000  In
  In8      1.0000 0.31250  0.81250  0.75000  Biso   1.000  In
  O33      1.0000 0.76170  0.25000  0.62500  Biso   1.000  O
  H17      1.0000 0.81990  0.25000  0.62500  Biso   1.000  H
  O34      1.0000 0.26170  0.75000  0.12500  Biso   1.000  O
  H18      1.0000 0.31990  0.75000  0.12500  Biso   1.000  H
  O35      1.0000 0.73830  0.25000  0.12500  Biso   1.000  O
  H19      1.0000 0.68010  0.25000  0.12500  Biso   1.000  H
  O36      1.0000 0.23830  0.75000  0.62500  Biso   1.000  O
  H20      1.0000 0.18010  0.75000  0.62500  Biso   1.000  H
  O37      1.0000 0.75000  0.26170  0.87500  Biso   1.000  O
  H21      1.0000 0.75000  0.31990  0.87500  Biso   1.000  H
  O38      1.0000 0.25000  0.76170  0.37500  Biso   1.000  O
  H22      1.0000 0.25000  0.81990  0.37500  Biso   1.000  H
  O39      1.0000 0.75000  0.23830  0.37500  Biso   1.000  O
  H23      1.0000 0.75000  0.18010  0.37500  Biso   1.000  H
  O40      1.0000 0.25000  0.73830  0.87500  Biso   1.000  O
  H24      1.0000 0.25000  0.68010  0.87500  Biso   1.000  H
  C49      1.0000 0.50000  0.50000  0.71060  Biso   1.000  C
  C50      1.0000 0.50000  0.50000  0.93814  Biso   1.000  C
  H25      1.0000 0.50000  0.50000  0.62510  Biso   1.000  H
  C51      1.0000 0.00000  0.00000  0.21060  Biso   1.000  C
  C52      1.0000 0.00000  0.00000  0.43814  Biso   1.000  C
  H26      1.0000 0.00000  0.00000  0.12510  Biso   1.000  H
  C53      1.0000 0.50000  0.00000  0.96060  Biso   1.000  C
  C54      1.0000 0.50000  0.00000  0.18814  Biso   1.000  C
  H27      1.0000 0.50000  0.00000  0.87510  Biso   1.000  H
  C55      1.0000 0.00000  0.50000  0.46060  Biso   1.000  C
  C56      1.0000 0.00000  0.50000  0.68814  Biso   1.000  C
  H28      1.0000 0.00000  0.50000  0.37510  Biso   1.000  H
  C57      1.0000 0.00000  0.50000  0.03940  Biso   1.000  C
  C58      1.0000 0.00000  0.50000  0.81186  Biso   1.000  C
  H29      1.0000 0.00000  0.50000  0.12490  Biso   1.000  H
  C59      1.0000 0.50000  0.00000  0.53940  Biso   1.000  C
  C60      1.0000 0.50000  0.00000  0.31186  Biso   1.000  C
  H30      1.0000 0.50000  0.00000  0.62490  Biso   1.000  H
  C61      1.0000 0.00000  0.00000  0.78940  Biso   1.000  C
  C62      1.0000 0.00000  0.00000  0.56186  Biso   1.000  C
  H31      1.0000 0.00000  0.00000  0.87490  Biso   1.000  H
  C63      1.0000 0.50000  0.50000  0.28940  Biso   1.000  C
  C64      1.0000 0.50000  0.50000  0.06186  Biso   1.000  C
  H32      1.0000 0.50000  0.50000  0.37490  Biso   1.000  H
