data_image0
_cell_length_a       15.4828
_cell_length_b       15.4828
_cell_length_c       12.3009
_cell_angle_alpha    90
_cell_angle_beta     90
_cell_angle_gamma    90

_symmetry_space_group_name_H-M    "P 1"
_symmetry_int_tables_number       1

loop_
  _symmetry_equiv_pos_as_xyz
  'x, y, z'

loop_
  _atom_site_label
  _atom_site_occupancy
  _atom_site_fract_x
  _atom_site_fract_y
  _atom_site_fract_z
  _atom_site_thermal_displace_type
  _atom_site_B_iso_or_equiv
  _atom_site_type_symbol
  O1       1.0000 0.61150  0.37930  0.61530  Biso   1.000  O
  O2       1.0000 0.59330  0.29220  0.75500  Biso   1.000  O
  C1       1.0000 0.58480  0.36370  0.70920  Biso   1.000  C
  C2       1.0000 0.54161  0.43240  0.76810  Biso   1.000  C
  C3       1.0000 0.54161  0.43240  0.88350  Biso   1.000  C
  H1       1.0000 0.57160  0.38370  0.92500  Biso   1.000  H
  O3       1.0000 0.11150  0.87930  0.11530  Biso   1.000  O
  O4       1.0000 0.09330  0.79220  0.25500  Biso   1.000  O
  C4       1.0000 0.08480  0.86370  0.20920  Biso   1.000  C
  C5       1.0000 0.04161  0.93240  0.26810  Biso   1.000  C
  C6       1.0000 0.04161  0.93240  0.38350  Biso   1.000  C
  H2       1.0000 0.07160  0.88370  0.42500  Biso   1.000  H
  O5       1.0000 0.88850  0.12070  0.11530  Biso   1.000  O
  O6       1.0000 0.90670  0.20780  0.25500  Biso   1.000  O
  C7       1.0000 0.91520  0.13630  0.20920  Biso   1.000  C
  C8       1.0000 0.95839  0.06760  0.26810  Biso   1.000  C
  C9       1.0000 0.95839  0.06760  0.38350  Biso   1.000  C
  H3       1.0000 0.92840  0.11630  0.42500  Biso   1.000  H
  O7       1.0000 0.38850  0.62070  0.61530  Biso   1.000  O
  O8       1.0000 0.40670  0.70780  0.75500  Biso   1.000  O
  C10      1.0000 0.41520  0.63630  0.70920  Biso   1.000  C
  C11      1.0000 0.45839  0.56760  0.76810  Biso   1.000  C
  C12      1.0000 0.45839  0.56760  0.88350  Biso   1.000  C
  H4       1.0000 0.42840  0.61630  0.92500  Biso   1.000  H
  O9       1.0000 0.62070  0.11150  0.86530  Biso   1.000  O
  O10      1.0000 0.70780  0.09330  0.00500  Biso   1.000  O
  C13      1.0000 0.63630  0.08480  0.95920  Biso   1.000  C
  C14      1.0000 0.56760  0.04161  0.01810  Biso   1.000  C
  C15      1.0000 0.56760  0.04161  0.13350  Biso   1.000  C
  H5       1.0000 0.61630  0.07160  0.17500  Biso   1.000  H
  O11      1.0000 0.12070  0.61150  0.36530  Biso   1.000  O
  O12      1.0000 0.20780  0.59330  0.50500  Biso   1.000  O
  C16      1.0000 0.13630  0.58480  0.45920  Biso   1.000  C
  C17      1.0000 0.06760  0.54161  0.51810  Biso   1.000  C
  C18      1.0000 0.06760  0.54161  0.63350  Biso   1.000  C
  H6       1.0000 0.11630  0.57160  0.67500  Biso   1.000  H
  O13      1.0000 0.87930  0.38850  0.36530  Biso   1.000  O
  O14      1.0000 0.79220  0.40670  0.50500  Biso   1.000  O
  C19      1.0000 0.86370  0.41520  0.45920  Biso   1.000  C
  C20      1.0000 0.93240  0.45839  0.51810  Biso   1.000  C
  C21      1.0000 0.93240  0.45839  0.63350  Biso   1.000  C
  H7       1.0000 0.88370  0.42840  0.67500  Biso   1.000  H
  O15      1.0000 0.37930  0.88850  0.86530  Biso   1.000  O
  O16      1.0000 0.29220  0.90670  0.00500  Biso   1.000  O
  C22      1.0000 0.36370  0.91520  0.95920  Biso   1.000  C
  C23      1.0000 0.43240  0.95839  0.01810  Biso   1.000  C
  C24      1.0000 0.43240  0.95839  0.13350  Biso   1.000  C
  H8       1.0000 0.38370  0.92840  0.17500  Biso   1.000  H
  O17      1.0000 0.88850  0.37930  0.13470  Biso   1.000  O
  O18      1.0000 0.90670  0.29220  0.99500  Biso   1.000  O
  C25      1.0000 0.91520  0.36370  0.04080  Biso   1.000  C
  C26      1.0000 0.95839  0.43240  0.98190  Biso   1.000  C
  C27      1.0000 0.95839  0.43240  0.86650  Biso   1.000  C
  H9       1.0000 0.92840  0.38370  0.82500  Biso   1.000  H
  O19      1.0000 0.38850  0.87930  0.63470  Biso   1.000  O
  O20      1.0000 0.40670  0.79220  0.49500  Biso   1.000  O
  C28      1.0000 0.41520  0.86370  0.54080  Biso   1.000  C
  C29      1.0000 0.45839  0.93240  0.48190  Biso   1.000  C
  C30      1.0000 0.45839  0.93240  0.36650  Biso   1.000  C
  H10      1.0000 0.42840  0.88370  0.32500  Biso   1.000  H
  O21      1.0000 0.61150  0.12070  0.63470  Biso   1.000  O
  O22      1.0000 0.59330  0.20780  0.49500  Biso   1.000  O
  C31      1.0000 0.58480  0.13630  0.54080  Biso   1.000  C
  C32      1.0000 0.54161  0.06760  0.48190  Biso   1.000  C
  C33      1.0000 0.54161  0.06760  0.36650  Biso   1.000  C
  H11      1.0000 0.57160  0.11630  0.32500  Biso   1.000  H
  O23      1.0000 0.11150  0.62070  0.13470  Biso   1.000  O
  O24      1.0000 0.09330  0.70780  0.99500  Biso   1.000  O
  C34      1.0000 0.08480  0.63630  0.04080  Biso   1.000  C
  C35      1.0000 0.04161  0.56760  0.98190  Biso   1.000  C
  C36      1.0000 0.04161  0.56760  0.86650  Biso   1.000  C
  H12      1.0000 0.07160  0.61630  0.82500  Biso   1.000  H
  O25      1.0000 0.87930  0.11150  0.88470  Biso   1.000  O
  O26      1.0000 0.79220  0.09330  0.74500  Biso   1.000  O
  C37      1.0000 0.86370  0.08480  0.79080  Biso   1.000  C
  C38      1.0000 0.93240  0.04161  0.73190  Biso   1.000  C
  C39      1.0000 0.93240  0.04161  0.61650  Biso   1.000  C
  H13      1.0000 0.88370  0.07160  0.57500  Biso   1.000  H
  O27      1.0000 0.37930  0.61150  0.38470  Biso   1.000  O
  O28      1.0000 0.29220  0.59330  0.24500  Biso   1.000  O
  C40      1.0000 0.36370  0.58480  0.29080  Biso   1.000  C
  C41      1.0000 0.43240  0.54161  0.23190  Biso   1.000  C
  C42      1.0000 0.43240  0.54161  0.11650  Biso   1.000  C
  H14      1.0000 0.38370  0.57160  0.07500  Biso   1.000  H
  O29      1.0000 0.62070  0.38850  0.38470  Biso   1.000  O
  O30      1.0000 0.70780  0.40670  0.24500  Biso   1.000  O
  C43      1.0000 0.63630  0.41520  0.29080  Biso   1.000  C
  C44      1.0000 0.56760  0.45839  0.23190  Biso   1.000  C
  C45      1.0000 0.56760  0.45839  0.11650  Biso   1.000  C
  H15      1.0000 0.61630  0.42840  0.07500  Biso   1.000  H
  O31      1.0000 0.12070  0.88850  0.88470  Biso   1.000  O
  O32      1.0000 0.20780  0.90670  0.74500  Biso   1.000  O
  C46      1.0000 0.13630  0.91520  0.79080  Biso   1.000  C
  C47      1.0000 0.06760  0.95839  0.73190  Biso   1.000  C
  C48      1.0000 0.06760  0.95839  0.61650  Biso   1.000  C
  H16      1.0000 0.11630  0.92840  0.57500  Biso   1.000  H
  In1      1.0000 0.68330  0.31670  0.50000  Biso   1.000  In
  In2      1.0000 0.18330  0.81670  0.00000  Biso   1.000  In
  In3      1.0000 0.81670  0.18330  0.00000  Biso   1.000  In
  In4      1.0000 0.31670  0.68330  0.50000  Biso   1.000  In
  In5      1.0000 0.68330  0.18330  0.75000  Biso   1.000  In
  In6      1.0000 0.18330  0.68330  0.25000  Biso   1.000  In
  In7      1.0000 0.81670  0.31670  0.25000  Biso   1.000  In
  In8      1.0000 0.31670  0.81670  0.75000  Biso   1.000  In
  O33      1.0000 0.75490  0.25000  0.62500  Biso   1.000  O
  H17      1.0000 0.81300  0.25000  0.62500  Biso   1.000  H
  O34      1.0000 0.25490  0.75000  0.12500  Biso   1.000  O
  H18      1.0000 0.31300  0.75000  0.12500  Biso   1.000  H
  O35      1.0000 0.74510  0.25000  0.12500  Biso   1.000  O
  H19      1.0000 0.68700  0.25000  0.12500  Biso   1.000  H
  O36      1.0000 0.24510  0.75000  0.62500  Biso   1.000  O
  H20      1.0000 0.18700  0.75000  0.62500  Biso   1.000  H
  O37      1.0000 0.75000  0.25490  0.87500  Biso   1.000  O
  H21      1.0000 0.75000  0.31300  0.87500  Biso   1.000  H
  O38      1.0000 0.25000  0.75490  0.37500  Biso   1.000  O
  H22      1.0000 0.25000  0.81300  0.37500  Biso   1.000  H
  O39      1.0000 0.75000  0.24510  0.37500  Biso   1.000  O
  H23      1.0000 0.75000  0.18700  0.37500  Biso   1.000  H
  O40      1.0000 0.25000  0.74510  0.87500  Biso   1.000  O
  H24      1.0000 0.25000  0.68700  0.87500  Biso   1.000  H
  C49      1.0000 0.50000  0.50000  0.71040  Biso   1.000  C
  C50      1.0000 0.50000  0.50000  0.94120  Biso   1.000  C
  H25      1.0000 0.50000  0.50000  0.62730  Biso   1.000  H
  C51      1.0000 0.00000  0.00000  0.21040  Biso   1.000  C
  C52      1.0000 0.00000  0.00000  0.44120  Biso   1.000  C
  H26      1.0000 0.00000  0.00000  0.12730  Biso   1.000  H
  C53      1.0000 0.50000  0.00000  0.96040  Biso   1.000  C
  C54      1.0000 0.50000  0.00000  0.19120  Biso   1.000  C
  H27      1.0000 0.50000  0.00000  0.87730  Biso   1.000  H
  C55      1.0000 0.00000  0.50000  0.46040  Biso   1.000  C
  C56      1.0000 0.00000  0.50000  0.69120  Biso   1.000  C
  H28      1.0000 0.00000  0.50000  0.37730  Biso   1.000  H
  C57      1.0000 0.00000  0.50000  0.03960  Biso   1.000  C
  C58      1.0000 0.00000  0.50000  0.80880  Biso   1.000  C
  H29      1.0000 0.00000  0.50000  0.12270  Biso   1.000  H
  C59      1.0000 0.50000  0.00000  0.53960  Biso   1.000  C
  C60      1.0000 0.50000  0.00000  0.30880  Biso   1.000  C
  H30      1.0000 0.50000  0.00000  0.62270  Biso   1.000  H
  C61      1.0000 0.00000  0.00000  0.78960  Biso   1.000  C
  C62      1.0000 0.00000  0.00000  0.55880  Biso   1.000  C
  H31      1.0000 0.00000  0.00000  0.87270  Biso   1.000  H
  C63      1.0000 0.50000  0.50000  0.28960  Biso   1.000  C
  C64      1.0000 0.50000  0.50000  0.05880  Biso   1.000  C
  H32      1.0000 0.50000  0.50000  0.37270  Biso   1.000  H
