data_image0
_cell_length_a       9.903
_cell_length_b       9.903
_cell_length_c       15.72
_cell_angle_alpha    90
_cell_angle_beta     90
_cell_angle_gamma    90

_symmetry_space_group_name_H-M    "P 1"
_symmetry_int_tables_number       1

loop_
  _symmetry_equiv_pos_as_xyz
  'x, y, z'

loop_
  _atom_site_label
  _atom_site_occupancy
  _atom_site_fract_x
  _atom_site_fract_y
  _atom_site_fract_z
  _atom_site_thermal_displace_type
  _atom_site_B_iso_or_equiv
  _atom_site_type_symbol
  C1       1.0000 0.74090  0.16120  0.18750  Biso   1.000  C
  H1       1.0000 0.73690  0.10010  0.14260  Biso   1.000  H
  C2       1.0000 0.65930  0.23990  0.31340  Biso   1.000  C
  H2       1.0000 0.59830  0.23610  0.35830  Biso   1.000  H
  C3       1.0000 0.24090  0.66120  0.68750  Biso   1.000  C
  H3       1.0000 0.23690  0.60010  0.64260  Biso   1.000  H
  C4       1.0000 0.15930  0.73990  0.81340  Biso   1.000  C
  H4       1.0000 0.09830  0.73610  0.85830  Biso   1.000  H
  C5       1.0000 0.25910  0.83880  0.18750  Biso   1.000  C
  H5       1.0000 0.26310  0.89990  0.14260  Biso   1.000  H
  C6       1.0000 0.34070  0.76010  0.31340  Biso   1.000  C
  H6       1.0000 0.40170  0.76390  0.35830  Biso   1.000  H
  C7       1.0000 0.75910  0.33880  0.68750  Biso   1.000  C
  H7       1.0000 0.76310  0.39990  0.64260  Biso   1.000  H
  C8       1.0000 0.84070  0.26010  0.81340  Biso   1.000  C
  H8       1.0000 0.90170  0.26390  0.85830  Biso   1.000  H
  C9       1.0000 0.83880  0.74090  0.18750  Biso   1.000  C
  H9       1.0000 0.89990  0.73690  0.14260  Biso   1.000  H
  C10      1.0000 0.76010  0.65930  0.31340  Biso   1.000  C
  H10      1.0000 0.76390  0.59830  0.35830  Biso   1.000  H
  C11      1.0000 0.33880  0.24090  0.68750  Biso   1.000  C
  H11      1.0000 0.39990  0.23690  0.64260  Biso   1.000  H
  C12      1.0000 0.26010  0.15930  0.81340  Biso   1.000  C
  H12      1.0000 0.26390  0.09830  0.85830  Biso   1.000  H
  C13      1.0000 0.16120  0.25910  0.18750  Biso   1.000  C
  H13      1.0000 0.10010  0.26310  0.14260  Biso   1.000  H
  C14      1.0000 0.23990  0.34070  0.31340  Biso   1.000  C
  H14      1.0000 0.23610  0.40170  0.35830  Biso   1.000  H
  C15      1.0000 0.66120  0.75910  0.68750  Biso   1.000  C
  H15      1.0000 0.60010  0.76310  0.64260  Biso   1.000  H
  C16      1.0000 0.73990  0.84070  0.81340  Biso   1.000  C
  H16      1.0000 0.73610  0.90170  0.85830  Biso   1.000  H
  C17      1.0000 0.25910  0.16120  0.31250  Biso   1.000  C
  H17      1.0000 0.26310  0.10010  0.35740  Biso   1.000  H
  C18      1.0000 0.34070  0.23990  0.18660  Biso   1.000  C
  H18      1.0000 0.40170  0.23610  0.14170  Biso   1.000  H
  C19      1.0000 0.75910  0.66120  0.81250  Biso   1.000  C
  H19      1.0000 0.76310  0.60010  0.85740  Biso   1.000  H
  C20      1.0000 0.84070  0.73990  0.68660  Biso   1.000  C
  H20      1.0000 0.90170  0.73610  0.64170  Biso   1.000  H
  C21      1.0000 0.74090  0.83880  0.31250  Biso   1.000  C
  H21      1.0000 0.73690  0.89990  0.35740  Biso   1.000  H
  C22      1.0000 0.65930  0.76010  0.18660  Biso   1.000  C
  H22      1.0000 0.59830  0.76390  0.14170  Biso   1.000  H
  C23      1.0000 0.24090  0.33880  0.81250  Biso   1.000  C
  H23      1.0000 0.23690  0.39990  0.85740  Biso   1.000  H
  C24      1.0000 0.15930  0.26010  0.68660  Biso   1.000  C
  H24      1.0000 0.09830  0.26390  0.64170  Biso   1.000  H
  C25      1.0000 0.16120  0.74090  0.31250  Biso   1.000  C
  H25      1.0000 0.10010  0.73690  0.35740  Biso   1.000  H
  C26      1.0000 0.23990  0.65930  0.18660  Biso   1.000  C
  H26      1.0000 0.23610  0.59830  0.14170  Biso   1.000  H
  C27      1.0000 0.66120  0.24090  0.81250  Biso   1.000  C
  H27      1.0000 0.60010  0.23690  0.85740  Biso   1.000  H
  C28      1.0000 0.73990  0.15930  0.68660  Biso   1.000  C
  H28      1.0000 0.73610  0.09830  0.64170  Biso   1.000  H
  C29      1.0000 0.83880  0.25910  0.31250  Biso   1.000  C
  H29      1.0000 0.89990  0.26310  0.35740  Biso   1.000  H
  C30      1.0000 0.76010  0.34070  0.18660  Biso   1.000  C
  H30      1.0000 0.76390  0.40170  0.14170  Biso   1.000  H
  C31      1.0000 0.33880  0.75910  0.81250  Biso   1.000  C
  H31      1.0000 0.39990  0.76310  0.85740  Biso   1.000  H
  C32      1.0000 0.26010  0.84070  0.68660  Biso   1.000  C
  H32      1.0000 0.26390  0.90170  0.64170  Biso   1.000  H
  C33      1.0000 0.25910  0.83880  0.81250  Biso   1.000  C
  H33      1.0000 0.26310  0.89990  0.85740  Biso   1.000  H
  C34      1.0000 0.34070  0.76010  0.68660  Biso   1.000  C
  H34      1.0000 0.40170  0.76390  0.64170  Biso   1.000  H
  C35      1.0000 0.75910  0.33880  0.31250  Biso   1.000  C
  H35      1.0000 0.76310  0.39990  0.35740  Biso   1.000  H
  C36      1.0000 0.84070  0.26010  0.18660  Biso   1.000  C
  H36      1.0000 0.90170  0.26390  0.14170  Biso   1.000  H
  C37      1.0000 0.74090  0.16120  0.81250  Biso   1.000  C
  H37      1.0000 0.73690  0.10010  0.85740  Biso   1.000  H
  C38      1.0000 0.65930  0.23990  0.68660  Biso   1.000  C
  H38      1.0000 0.59830  0.23610  0.64170  Biso   1.000  H
  C39      1.0000 0.24090  0.66120  0.31250  Biso   1.000  C
  H39      1.0000 0.23690  0.60010  0.35740  Biso   1.000  H
  C40      1.0000 0.15930  0.73990  0.18660  Biso   1.000  C
  H40      1.0000 0.09830  0.73610  0.14170  Biso   1.000  H
  C41      1.0000 0.16120  0.25910  0.81250  Biso   1.000  C
  H41      1.0000 0.10010  0.26310  0.85740  Biso   1.000  H
  C42      1.0000 0.23990  0.34070  0.68660  Biso   1.000  C
  H42      1.0000 0.23610  0.40170  0.64170  Biso   1.000  H
  C43      1.0000 0.66120  0.75910  0.31250  Biso   1.000  C
  H43      1.0000 0.60010  0.76310  0.35740  Biso   1.000  H
  C44      1.0000 0.73990  0.84070  0.18660  Biso   1.000  C
  H44      1.0000 0.73610  0.90170  0.14170  Biso   1.000  H
  C45      1.0000 0.83880  0.74090  0.81250  Biso   1.000  C
  H45      1.0000 0.89990  0.73690  0.85740  Biso   1.000  H
  C46      1.0000 0.76010  0.65930  0.68660  Biso   1.000  C
  H46      1.0000 0.76390  0.59830  0.64170  Biso   1.000  H
  C47      1.0000 0.33880  0.24090  0.31250  Biso   1.000  C
  H47      1.0000 0.39990  0.23690  0.35740  Biso   1.000  H
  C48      1.0000 0.26010  0.15930  0.18660  Biso   1.000  C
  H48      1.0000 0.26390  0.09830  0.14170  Biso   1.000  H
  C49      1.0000 0.74090  0.83880  0.68750  Biso   1.000  C
  H49      1.0000 0.73690  0.89990  0.64260  Biso   1.000  H
  C50      1.0000 0.65930  0.76010  0.81340  Biso   1.000  C
  H50      1.0000 0.59830  0.76390  0.85830  Biso   1.000  H
  C51      1.0000 0.24090  0.33880  0.18750  Biso   1.000  C
  H51      1.0000 0.23690  0.39990  0.14260  Biso   1.000  H
  C52      1.0000 0.15930  0.26010  0.31340  Biso   1.000  C
  H52      1.0000 0.09830  0.26390  0.35830  Biso   1.000  H
  C53      1.0000 0.25910  0.16120  0.68750  Biso   1.000  C
  H53      1.0000 0.26310  0.10010  0.64260  Biso   1.000  H
  C54      1.0000 0.34070  0.23990  0.81340  Biso   1.000  C
  H54      1.0000 0.40170  0.23610  0.85830  Biso   1.000  H
  C55      1.0000 0.75910  0.66120  0.18750  Biso   1.000  C
  H55      1.0000 0.76310  0.60010  0.14260  Biso   1.000  H
  C56      1.0000 0.84070  0.73990  0.31340  Biso   1.000  C
  H56      1.0000 0.90170  0.73610  0.35830  Biso   1.000  H
  C57      1.0000 0.83880  0.25910  0.68750  Biso   1.000  C
  H57      1.0000 0.89990  0.26310  0.64260  Biso   1.000  H
  C58      1.0000 0.76010  0.34070  0.81340  Biso   1.000  C
  H58      1.0000 0.76390  0.40170  0.85830  Biso   1.000  H
  C59      1.0000 0.33880  0.75910  0.18750  Biso   1.000  C
  H59      1.0000 0.39990  0.76310  0.14260  Biso   1.000  H
  C60      1.0000 0.26010  0.84070  0.31340  Biso   1.000  C
  H60      1.0000 0.26390  0.90170  0.35830  Biso   1.000  H
  C61      1.0000 0.16120  0.74090  0.68750  Biso   1.000  C
  H61      1.0000 0.10010  0.73690  0.64260  Biso   1.000  H
  C62      1.0000 0.23990  0.65930  0.81340  Biso   1.000  C
  H62      1.0000 0.23610  0.59830  0.85830  Biso   1.000  H
  C63      1.0000 0.66120  0.24090  0.18750  Biso   1.000  C
  H63      1.0000 0.60010  0.23690  0.14260  Biso   1.000  H
  C64      1.0000 0.73990  0.15930  0.31340  Biso   1.000  C
  H64      1.0000 0.73610  0.09830  0.35830  Biso   1.000  H
  Nb1      1.0000 0.50000  0.00000  0.00000  Biso   1.000  Nb
  Nb2      1.0000 0.00000  0.50000  0.50000  Biso   1.000  Nb
  Nb3      1.0000 0.00000  0.50000  0.00000  Biso   1.000  Nb
  Nb4      1.0000 0.50000  0.00000  0.50000  Biso   1.000  Nb
  Ni1      1.0000 0.50000  0.00000  0.25000  Biso   1.000  Ni
  Ni2      1.0000 0.00000  0.50000  0.25000  Biso   1.000  Ni
  Ni3      1.0000 0.50000  0.00000  0.75000  Biso   1.000  Ni
  Ni4      1.0000 0.00000  0.50000  0.75000  Biso   1.000  Ni
  O1       1.0000 0.50000  0.00000  0.12280  Biso   1.000  O
  O2       1.0000 0.00000  0.50000  0.12280  Biso   1.000  O
  O3       1.0000 0.50000  0.00000  0.62280  Biso   1.000  O
  O4       1.0000 0.50000  0.00000  0.37720  Biso   1.000  O
  O5       1.0000 0.00000  0.50000  0.37720  Biso   1.000  O
  O6       1.0000 0.50000  0.00000  0.87720  Biso   1.000  O
  O7       1.0000 0.00000  0.50000  0.87720  Biso   1.000  O
  O8       1.0000 0.00000  0.50000  0.62280  Biso   1.000  O
  F1       1.0000 0.69220  0.00960  0.00000  Biso   1.000  F
  F2       1.0000 0.19220  0.50960  0.50000  Biso   1.000  F
  F3       1.0000 0.30780  0.99040  0.00000  Biso   1.000  F
  F4       1.0000 0.80780  0.49040  0.50000  Biso   1.000  F
  F5       1.0000 0.99040  0.69220  0.00000  Biso   1.000  F
  F6       1.0000 0.49040  0.19220  0.50000  Biso   1.000  F
  F7       1.0000 0.00960  0.30780  0.00000  Biso   1.000  F
  F8       1.0000 0.50960  0.80780  0.50000  Biso   1.000  F
  F9       1.0000 0.30780  0.00960  0.50000  Biso   1.000  F
  F10      1.0000 0.80780  0.50960  0.00000  Biso   1.000  F
  F11      1.0000 0.69220  0.99040  0.50000  Biso   1.000  F
  F12      1.0000 0.19220  0.49040  0.00000  Biso   1.000  F
  F13      1.0000 0.00960  0.69220  0.50000  Biso   1.000  F
  F14      1.0000 0.50960  0.19220  0.00000  Biso   1.000  F
  F15      1.0000 0.99040  0.30780  0.50000  Biso   1.000  F
  F16      1.0000 0.49040  0.80780  0.00000  Biso   1.000  F
  N1       1.0000 0.65060  0.15060  0.25010  Biso   1.000  N
  N2       1.0000 0.34940  0.84940  0.25010  Biso   1.000  N
  N3       1.0000 0.84940  0.65060  0.25010  Biso   1.000  N
  N4       1.0000 0.15060  0.34940  0.25010  Biso   1.000  N
  N5       1.0000 0.65060  0.84940  0.75010  Biso   1.000  N
  N6       1.0000 0.34940  0.15060  0.24990  Biso   1.000  N
  N7       1.0000 0.65060  0.84940  0.24990  Biso   1.000  N
  N8       1.0000 0.15060  0.65060  0.24990  Biso   1.000  N
  N9       1.0000 0.84940  0.34940  0.24990  Biso   1.000  N
  N10      1.0000 0.34940  0.84940  0.74990  Biso   1.000  N
  N11      1.0000 0.65060  0.15060  0.74990  Biso   1.000  N
  N12      1.0000 0.15060  0.34940  0.74990  Biso   1.000  N
  N13      1.0000 0.84940  0.65060  0.74990  Biso   1.000  N
  N14      1.0000 0.34940  0.15060  0.75010  Biso   1.000  N
  N15      1.0000 0.84940  0.34940  0.75010  Biso   1.000  N
  N16      1.0000 0.15060  0.65060  0.75010  Biso   1.000  N
