data_image0
_cell_length_a       11.775
_cell_length_b       16.113
_cell_length_c       16.346
_cell_angle_alpha    108.244
_cell_angle_beta     101.663
_cell_angle_gamma    102.559

_symmetry_space_group_name_H-M    "P 1"
_symmetry_int_tables_number       1

loop_
  _symmetry_equiv_pos_as_xyz
  'x, y, z'

loop_
  _atom_site_label
  _atom_site_occupancy
  _atom_site_fract_x
  _atom_site_fract_y
  _atom_site_fract_z
  _atom_site_thermal_displace_type
  _atom_site_B_iso_or_equiv
  _atom_site_type_symbol
  Mn1      1.0000 0.18914  0.89525  0.39036  Biso   1.000  Mn
  O1       1.0000 0.48500  0.48812  0.16180  Biso   1.000  O
  C1       1.0000 0.45640  0.33966  0.05618  Biso   1.000  C
  O2       1.0000 0.47283  0.86937  0.41177  Biso   1.000  O
  C2       1.0000 0.39800  0.41305  0.09817  Biso   1.000  C
  H1       1.0000 0.35440  0.43030  0.05070  Biso   1.000  H
  H2       1.0000 0.33820  0.38790  0.12570  Biso   1.000  H
  O3       1.0000 0.27732  0.81304  0.32933  Biso   1.000  O
  C3       1.0000 0.45130  0.56513  0.19880  Biso   1.000  C
  O4       1.0000 0.67441  0.40528  0.12362  Biso   1.000  O
  C4       1.0000 0.54660  0.63890  0.25840  Biso   1.000  C
  H3       1.0000 0.62740  0.63520  0.26830  Biso   1.000  H
  O5       1.0000 0.02853  0.81445  0.28002  Biso   1.000  O
  O6       1.0000 0.06102  0.77904  0.39942  Biso   1.000  O
  C5       1.0000 0.40730  0.72468  0.29357  Biso   1.000  C
  O7       1.0000 0.41267  0.20664  0.92573  Biso   1.000  O
  C6       1.0000 0.31180  0.65030  0.23233  Biso   1.000  C
  H4       1.0000 0.23100  0.65380  0.22330  Biso   1.000  H
  O8       1.0000 0.31788  0.95770  0.51864  Biso   1.000  O
  C7       1.0000 0.33320  0.57033  0.18380  Biso   1.000  C
  H5       1.0000 0.26760  0.51980  0.14080  Biso   1.000  H
  O9       1.0000 0.14208  0.98341  0.50798  Biso   1.000  O
  C8       1.0000 0.38490  0.81021  0.34962  Biso   1.000  C
  O10      1.0000 0.35888  0.23414  0.11532  Biso   1.000  O
  C9       1.0000 0.57830  0.38177  0.04456  Biso   1.000  C
  H6       1.0000 0.59270  0.33750  0.99310  Biso   1.000  H
  H7       1.0000 0.57640  0.43730  0.03110  Biso   1.000  H
  O11      1.0000 0.22539  0.99839  0.34592  Biso   1.000  O
  C10      1.0000 0.75110  0.49254  0.16713  Biso   1.000  C
  O12      1.0000 0.42798  0.04001  0.39641  Biso   1.000  O
  C11      1.0000 0.78570  0.55092  0.12457  Biso   1.000  C
  H8       1.0000 0.75380  0.53180  0.06120  Biso   1.000  H
  C12      1.0000 0.86660  0.63703  0.17378  Biso   1.000  C
  H9       1.0000 0.88930  0.67720  0.14400  Biso   1.000  H
  C13      1.0000 0.91520  0.66578  0.26591  Biso   1.000  C
  C14      1.0000 0.88260  0.60589  0.30788  Biso   1.000  C
  H10      1.0000 0.91670  0.62400  0.37100  Biso   1.000  H
  C15      1.0000 0.80060  0.51951  0.25840  Biso   1.000  C
  H11      1.0000 0.77850  0.47870  0.28780  Biso   1.000  H
  C16      1.0000 0.00590  0.75844  0.31817  Biso   1.000  C
  C17      1.0000 0.36730  0.28085  0.96340  Biso   1.000  C
  H12      1.0000 0.28520  0.25730  0.96860  Biso   1.000  H
  H13      1.0000 0.36220  0.31730  0.92480  Biso   1.000  H
  C18      1.0000 0.36410  0.15509  0.83597  Biso   1.000  C
  C19      1.0000 0.43250  0.10170  0.79851  Biso   1.000  C
  H14      1.0000 0.50570  0.10130  0.83540  Biso   1.000  H
  C20      1.0000 0.39380  0.04945  0.70768  Biso   1.000  C
  H15      1.0000 0.44120  0.01380  0.68180  Biso   1.000  H
  C21      1.0000 0.28590  0.04870  0.65383  Biso   1.000  C
  C22      1.0000 0.21600  0.09967  0.69262  Biso   1.000  C
  H16      1.0000 0.14040  0.09730  0.65630  Biso   1.000  H
  C23      1.0000 0.25500  0.15402  0.78368  Biso   1.000  C
  H17      1.0000 0.20780  0.18980  0.80970  Biso   1.000  H
  C24      1.0000 0.24680  0.99451  0.55544  Biso   1.000  C
  C25      1.0000 0.47450  0.28245  0.11355  Biso   1.000  C
  H18      1.0000 0.51690  0.23840  0.08800  Biso   1.000  H
  H19      1.0000 0.52510  0.32280  0.17560  Biso   1.000  H
  C26      1.0000 0.35860  0.18661  0.17142  Biso   1.000  C
  C27      1.0000 0.24580  0.14092  0.17276  Biso   1.000  C
  H20      1.0000 0.17440  0.14290  0.13510  Biso   1.000  H
  C28      1.0000 0.23630  0.09262  0.22814  Biso   1.000  C
  H21      1.0000 0.15800  0.06070  0.22770  Biso   1.000  H
  C29      1.0000 0.33950  0.08960  0.28500  Biso   1.000  C
  C30      1.0000 0.45100  0.13523  0.28256  Biso   1.000  C
  H22      1.0000 0.52240  0.13340  0.32040  Biso   1.000  H
  C31      1.0000 0.46280  0.18390  0.22667  Biso   1.000  C
  H23      1.0000 0.54100  0.21490  0.22620  Biso   1.000  H
  C32      1.0000 0.33110  0.03895  0.34763  Biso   1.000  C
  C33      1.0000 0.52400  0.71879  0.30390  Biso   1.000  C
  H24      1.0000 0.59050  0.77080  0.34330  Biso   1.000  H
  Mn2      1.0000 0.81086  0.10475  0.60964  Biso   1.000  Mn
  O13      1.0000 0.51500  0.51188  0.83820  Biso   1.000  O
  C34      1.0000 0.54360  0.66034  0.94382  Biso   1.000  C
  O14      1.0000 0.52717  0.13063  0.58823  Biso   1.000  O
  C35      1.0000 0.60200  0.58695  0.90183  Biso   1.000  C
  H25      1.0000 0.64560  0.56970  0.94930  Biso   1.000  H
  H26      1.0000 0.66180  0.61210  0.87430  Biso   1.000  H
  O15      1.0000 0.72268  0.18696  0.67067  Biso   1.000  O
  C36      1.0000 0.54870  0.43487  0.80120  Biso   1.000  C
  O16      1.0000 0.32559  0.59472  0.87638  Biso   1.000  O
  C37      1.0000 0.45340  0.36110  0.74160  Biso   1.000  C
  H27      1.0000 0.37260  0.36480  0.73170  Biso   1.000  H
  O17      1.0000 0.97147  0.18555  0.71998  Biso   1.000  O
  O18      1.0000 0.93898  0.22096  0.60058  Biso   1.000  O
  C38      1.0000 0.59270  0.27532  0.70643  Biso   1.000  C
  O19      1.0000 0.58733  0.79336  0.07427  Biso   1.000  O
  C39      1.0000 0.68820  0.34970  0.76767  Biso   1.000  C
  H28      1.0000 0.76900  0.34620  0.77670  Biso   1.000  H
  O20      1.0000 0.68212  0.04230  0.48136  Biso   1.000  O
  C40      1.0000 0.66680  0.42967  0.81620  Biso   1.000  C
  H29      1.0000 0.73240  0.48020  0.85920  Biso   1.000  H
  O21      1.0000 0.85792  0.01659  0.49202  Biso   1.000  O
  C41      1.0000 0.61510  0.18979  0.65038  Biso   1.000  C
  O22      1.0000 0.64112  0.76586  0.88468  Biso   1.000  O
  C42      1.0000 0.42170  0.61823  0.95544  Biso   1.000  C
  H30      1.0000 0.40730  0.66250  0.00690  Biso   1.000  H
  H31      1.0000 0.42360  0.56270  0.96890  Biso   1.000  H
  O23      1.0000 0.77461  0.00161  0.65408  Biso   1.000  O
  C43      1.0000 0.24890  0.50746  0.83287  Biso   1.000  C
  O24      1.0000 0.57202  0.95999  0.60359  Biso   1.000  O
  C44      1.0000 0.21430  0.44908  0.87543  Biso   1.000  C
  H32      1.0000 0.24620  0.46820  0.93880  Biso   1.000  H
  C45      1.0000 0.13340  0.36297  0.82622  Biso   1.000  C
  H33      1.0000 0.11070  0.32280  0.85600  Biso   1.000  H
  C46      1.0000 0.08480  0.33422  0.73409  Biso   1.000  C
  C47      1.0000 0.11740  0.39411  0.69212  Biso   1.000  C
  H34      1.0000 0.08330  0.37600  0.62900  Biso   1.000  H
  C48      1.0000 0.19940  0.48049  0.74160  Biso   1.000  C
  H35      1.0000 0.22150  0.52130  0.71220  Biso   1.000  H
  C49      1.0000 0.99410  0.24156  0.68183  Biso   1.000  C
  C50      1.0000 0.63270  0.71915  0.03660  Biso   1.000  C
  H36      1.0000 0.71480  0.74270  0.03140  Biso   1.000  H
  H37      1.0000 0.63780  0.68270  0.07520  Biso   1.000  H
  C51      1.0000 0.63590  0.84491  0.16403  Biso   1.000  C
  C52      1.0000 0.56750  0.89830  0.20149  Biso   1.000  C
  H38      1.0000 0.49430  0.89870  0.16460  Biso   1.000  H
  C53      1.0000 0.60620  0.95055  0.29232  Biso   1.000  C
  H39      1.0000 0.55880  0.98620  0.31820  Biso   1.000  H
  C54      1.0000 0.71410  0.95130  0.34617  Biso   1.000  C
  C55      1.0000 0.78400  0.90033  0.30738  Biso   1.000  C
  H40      1.0000 0.85960  0.90270  0.34370  Biso   1.000  H
  C56      1.0000 0.74500  0.84598  0.21632  Biso   1.000  C
  H41      1.0000 0.79220  0.81020  0.19030  Biso   1.000  H
  C57      1.0000 0.75320  0.00549  0.44456  Biso   1.000  C
  C58      1.0000 0.52550  0.71755  0.88645  Biso   1.000  C
  H42      1.0000 0.48310  0.76160  0.91200  Biso   1.000  H
  H43      1.0000 0.47490  0.67720  0.82440  Biso   1.000  H
  C59      1.0000 0.64140  0.81339  0.82858  Biso   1.000  C
  C60      1.0000 0.75420  0.85908  0.82724  Biso   1.000  C
  H44      1.0000 0.82560  0.85710  0.86490  Biso   1.000  H
  C61      1.0000 0.76370  0.90738  0.77186  Biso   1.000  C
  H45      1.0000 0.84200  0.93930  0.77230  Biso   1.000  H
  C62      1.0000 0.66050  0.91040  0.71500  Biso   1.000  C
  C63      1.0000 0.54900  0.86477  0.71744  Biso   1.000  C
  H46      1.0000 0.47760  0.86660  0.67960  Biso   1.000  H
  C64      1.0000 0.53720  0.81610  0.77333  Biso   1.000  C
  H47      1.0000 0.45900  0.78510  0.77380  Biso   1.000  H
  C65      1.0000 0.66890  0.96105  0.65237  Biso   1.000  C
  C66      1.0000 0.47600  0.28121  0.69610  Biso   1.000  C
  H48      1.0000 0.40950  0.22920  0.65670  Biso   1.000  H
  Mn3      1.0000 0.50000  0.00000  0.50000  Biso   1.000  Mn
