data_image0
_cell_length_a       15.319
_cell_length_b       15.456
_cell_length_c       16.237
_cell_angle_alpha    90
_cell_angle_beta     90
_cell_angle_gamma    90

_symmetry_space_group_name_H-M    "P 1"
_symmetry_int_tables_number       1

loop_
  _symmetry_equiv_pos_as_xyz
  'x, y, z'

loop_
  _atom_site_label
  _atom_site_occupancy
  _atom_site_fract_x
  _atom_site_fract_y
  _atom_site_fract_z
  _atom_site_thermal_displace_type
  _atom_site_B_iso_or_equiv
  _atom_site_type_symbol
  Ag1      1.0000 0.41560  0.89813  0.11812  Biso   1.000  Ag
  C1       1.0000 0.19420  0.82930  0.08370  Biso   1.000  C
  H1       1.0000 0.18770  0.81900  0.14230  Biso   1.000  H
  H2       1.0000 0.18740  0.89080  0.07370  Biso   1.000  H
  C2       1.0000 0.12610  0.77900  0.03630  Biso   1.000  C
  C3       1.0000 0.12480  0.77600  0.94820  Biso   1.000  C
  H3       1.0000 0.16590  0.80830  0.91930  Biso   1.000  H
  C4       1.0000 0.06550  0.72750  0.90440  Biso   1.000  C
  C5       1.0000 0.00660  0.68770  0.95390  Biso   1.000  C
  H4       1.0000 0.96260  0.65570  0.92880  Biso   1.000  H
  C6       1.0000 0.06710  0.73420  0.07980  Biso   1.000  C
  H5       1.0000 0.06950  0.73420  0.13700  Biso   1.000  H
  C7       1.0000 0.06590  0.71400  0.80850  Biso   1.000  C
  H6       1.0000 0.11340  0.74720  0.78470  Biso   1.000  H
  H7       1.0000 0.01170  0.73600  0.78580  Biso   1.000  H
  C8       1.0000 0.18530  0.57340  0.81000  Biso   1.000  C
  H8       1.0000 0.20240  0.51880  0.78520  Biso   1.000  H
  H9       1.0000 0.22430  0.61780  0.78930  Biso   1.000  H
  C9       1.0000 0.19650  0.56650  0.90540  Biso   1.000  C
  C10      1.0000 0.25030  0.62080  0.94840  Biso   1.000  C
  H10      1.0000 0.28500  0.66000  0.91980  Biso   1.000  H
  C11      1.0000 0.25430  0.61850  0.03820  Biso   1.000  C
  C12      1.0000 0.20340  0.56270  0.08100  Biso   1.000  C
  H11      1.0000 0.20460  0.56310  0.13830  Biso   1.000  H
  C13      1.0000 0.14870  0.50990  0.95350  Biso   1.000  C
  H12      1.0000 0.11220  0.47100  0.92670  Biso   1.000  H
  C14      1.0000 0.30660  0.68020  0.08640  Biso   1.000  C
  H13      1.0000 0.36740  0.66280  0.08400  Biso   1.000  H
  H14      1.0000 0.28830  0.67740  0.14350  Biso   1.000  H
  N1       1.0000 0.00720  0.69110  0.04210  Biso   1.000  N
  N2       1.0000 0.15140  0.50680  0.04120  Biso   1.000  N
  S1       1.0000 0.29760  0.79460  0.05030  Biso   1.000  S
  S2       1.0000 0.07860  0.59800  0.77897  Biso   1.000  S
  Ag2      1.0000 0.91560  0.39813  0.61812  Biso   1.000  Ag
  C15      1.0000 0.69420  0.32930  0.58370  Biso   1.000  C
  H15      1.0000 0.68770  0.31900  0.64230  Biso   1.000  H
  H16      1.0000 0.68740  0.39080  0.57370  Biso   1.000  H
  C16      1.0000 0.62610  0.27900  0.53630  Biso   1.000  C
  C17      1.0000 0.62480  0.27600  0.44820  Biso   1.000  C
  H17      1.0000 0.66590  0.30830  0.41930  Biso   1.000  H
  C18      1.0000 0.56550  0.22750  0.40440  Biso   1.000  C
  C19      1.0000 0.50660  0.18770  0.45390  Biso   1.000  C
  H18      1.0000 0.46260  0.15570  0.42880  Biso   1.000  H
  C20      1.0000 0.56710  0.23420  0.57980  Biso   1.000  C
  H19      1.0000 0.56950  0.23420  0.63700  Biso   1.000  H
  C21      1.0000 0.56590  0.21400  0.30850  Biso   1.000  C
  H20      1.0000 0.61340  0.24720  0.28470  Biso   1.000  H
  H21      1.0000 0.51170  0.23600  0.28580  Biso   1.000  H
  C22      1.0000 0.68530  0.07340  0.31000  Biso   1.000  C
  H22      1.0000 0.70240  0.01880  0.28520  Biso   1.000  H
  H23      1.0000 0.72430  0.11780  0.28930  Biso   1.000  H
  C23      1.0000 0.69650  0.06650  0.40540  Biso   1.000  C
  C24      1.0000 0.75030  0.12080  0.44840  Biso   1.000  C
  H24      1.0000 0.78500  0.16000  0.41980  Biso   1.000  H
  C25      1.0000 0.75430  0.11850  0.53820  Biso   1.000  C
  C26      1.0000 0.70340  0.06270  0.58100  Biso   1.000  C
  H25      1.0000 0.70460  0.06310  0.63830  Biso   1.000  H
  C27      1.0000 0.64870  0.00990  0.45350  Biso   1.000  C
  H26      1.0000 0.61220  0.97100  0.42670  Biso   1.000  H
  C28      1.0000 0.80660  0.18020  0.58640  Biso   1.000  C
  H27      1.0000 0.86740  0.16280  0.58400  Biso   1.000  H
  H28      1.0000 0.78830  0.17740  0.64350  Biso   1.000  H
  N3       1.0000 0.50720  0.19110  0.54210  Biso   1.000  N
  N4       1.0000 0.65140  0.00680  0.54120  Biso   1.000  N
  S3       1.0000 0.79760  0.29460  0.55030  Biso   1.000  S
  S4       1.0000 0.57860  0.09800  0.27897  Biso   1.000  S
  Ag3      1.0000 0.58440  0.10187  0.11812  Biso   1.000  Ag
  C29      1.0000 0.80580  0.17070  0.08370  Biso   1.000  C
  H29      1.0000 0.81230  0.18100  0.14230  Biso   1.000  H
  H30      1.0000 0.81260  0.10920  0.07370  Biso   1.000  H
  C30      1.0000 0.87390  0.22100  0.03630  Biso   1.000  C
  C31      1.0000 0.87520  0.22400  0.94820  Biso   1.000  C
  H31      1.0000 0.83410  0.19170  0.91930  Biso   1.000  H
  C32      1.0000 0.93450  0.27250  0.90440  Biso   1.000  C
  C33      1.0000 0.99340  0.31230  0.95390  Biso   1.000  C
  H32      1.0000 0.03740  0.34430  0.92880  Biso   1.000  H
  C34      1.0000 0.93290  0.26580  0.07980  Biso   1.000  C
  H33      1.0000 0.93050  0.26580  0.13700  Biso   1.000  H
  C35      1.0000 0.93410  0.28600  0.80850  Biso   1.000  C
  H34      1.0000 0.88660  0.25280  0.78470  Biso   1.000  H
  H35      1.0000 0.98830  0.26400  0.78580  Biso   1.000  H
  C36      1.0000 0.81470  0.42660  0.81000  Biso   1.000  C
  H36      1.0000 0.79760  0.48120  0.78520  Biso   1.000  H
  H37      1.0000 0.77570  0.38220  0.78930  Biso   1.000  H
  C37      1.0000 0.80350  0.43350  0.90540  Biso   1.000  C
  C38      1.0000 0.74970  0.37920  0.94840  Biso   1.000  C
  H38      1.0000 0.71500  0.34000  0.91980  Biso   1.000  H
  C39      1.0000 0.74570  0.38150  0.03820  Biso   1.000  C
  C40      1.0000 0.79660  0.43730  0.08100  Biso   1.000  C
  H39      1.0000 0.79540  0.43690  0.13830  Biso   1.000  H
  C41      1.0000 0.85130  0.49010  0.95350  Biso   1.000  C
  H40      1.0000 0.88780  0.52900  0.92670  Biso   1.000  H
  C42      1.0000 0.69340  0.31980  0.08640  Biso   1.000  C
  H41      1.0000 0.63260  0.33720  0.08400  Biso   1.000  H
  H42      1.0000 0.71170  0.32260  0.14350  Biso   1.000  H
  N5       1.0000 0.99280  0.30890  0.04210  Biso   1.000  N
  N6       1.0000 0.84860  0.49320  0.04120  Biso   1.000  N
  S5       1.0000 0.70240  0.20540  0.05030  Biso   1.000  S
  S6       1.0000 0.92140  0.40200  0.77897  Biso   1.000  S
  Ag4      1.0000 0.08440  0.60187  0.61812  Biso   1.000  Ag
  C43      1.0000 0.30580  0.67070  0.58370  Biso   1.000  C
  H43      1.0000 0.31230  0.68100  0.64230  Biso   1.000  H
  H44      1.0000 0.31260  0.60920  0.57370  Biso   1.000  H
  C44      1.0000 0.37390  0.72100  0.53630  Biso   1.000  C
  C45      1.0000 0.37520  0.72400  0.44820  Biso   1.000  C
  H45      1.0000 0.33410  0.69170  0.41930  Biso   1.000  H
  C46      1.0000 0.43450  0.77250  0.40440  Biso   1.000  C
  C47      1.0000 0.49340  0.81230  0.45390  Biso   1.000  C
  H46      1.0000 0.53740  0.84430  0.42880  Biso   1.000  H
  C48      1.0000 0.43290  0.76580  0.57980  Biso   1.000  C
  H47      1.0000 0.43050  0.76580  0.63700  Biso   1.000  H
  C49      1.0000 0.43410  0.78600  0.30850  Biso   1.000  C
  H48      1.0000 0.38660  0.75280  0.28470  Biso   1.000  H
  H49      1.0000 0.48830  0.76400  0.28580  Biso   1.000  H
  C50      1.0000 0.31470  0.92660  0.31000  Biso   1.000  C
  H50      1.0000 0.29760  0.98120  0.28520  Biso   1.000  H
  H51      1.0000 0.27570  0.88220  0.28930  Biso   1.000  H
  C51      1.0000 0.30350  0.93350  0.40540  Biso   1.000  C
  C52      1.0000 0.24970  0.87920  0.44840  Biso   1.000  C
  H52      1.0000 0.21500  0.84000  0.41980  Biso   1.000  H
  C53      1.0000 0.24570  0.88150  0.53820  Biso   1.000  C
  C54      1.0000 0.29660  0.93730  0.58100  Biso   1.000  C
  H53      1.0000 0.29540  0.93690  0.63830  Biso   1.000  H
  C55      1.0000 0.35130  0.99010  0.45350  Biso   1.000  C
  H54      1.0000 0.38780  0.02900  0.42670  Biso   1.000  H
  C56      1.0000 0.19340  0.81980  0.58640  Biso   1.000  C
  H55      1.0000 0.13260  0.83720  0.58400  Biso   1.000  H
  H56      1.0000 0.21170  0.82260  0.64350  Biso   1.000  H
  N7       1.0000 0.49280  0.80890  0.54210  Biso   1.000  N
  N8       1.0000 0.34860  0.99320  0.54120  Biso   1.000  N
  S7       1.0000 0.20240  0.70540  0.55030  Biso   1.000  S
  S8       1.0000 0.42140  0.90200  0.27897  Biso   1.000  S
  Ag5      1.0000 0.91560  0.60187  0.11812  Biso   1.000  Ag
  C57      1.0000 0.69420  0.67070  0.08370  Biso   1.000  C
  H57      1.0000 0.68770  0.68100  0.14230  Biso   1.000  H
  H58      1.0000 0.68740  0.60920  0.07370  Biso   1.000  H
  C58      1.0000 0.62610  0.72100  0.03630  Biso   1.000  C
  C59      1.0000 0.62480  0.72400  0.94820  Biso   1.000  C
  H59      1.0000 0.66590  0.69170  0.91930  Biso   1.000  H
  C60      1.0000 0.56550  0.77250  0.90440  Biso   1.000  C
  C61      1.0000 0.50660  0.81230  0.95390  Biso   1.000  C
  H60      1.0000 0.46260  0.84430  0.92880  Biso   1.000  H
  C62      1.0000 0.56710  0.76580  0.07980  Biso   1.000  C
  H61      1.0000 0.56950  0.76580  0.13700  Biso   1.000  H
  C63      1.0000 0.56590  0.78600  0.80850  Biso   1.000  C
  H62      1.0000 0.61340  0.75280  0.78470  Biso   1.000  H
  H63      1.0000 0.51170  0.76400  0.78580  Biso   1.000  H
  C64      1.0000 0.68530  0.92660  0.81000  Biso   1.000  C
  H64      1.0000 0.70240  0.98120  0.78520  Biso   1.000  H
  H65      1.0000 0.72430  0.88220  0.78930  Biso   1.000  H
  C65      1.0000 0.69650  0.93350  0.90540  Biso   1.000  C
  C66      1.0000 0.75030  0.87920  0.94840  Biso   1.000  C
  H66      1.0000 0.78500  0.84000  0.91980  Biso   1.000  H
  C67      1.0000 0.75430  0.88150  0.03820  Biso   1.000  C
  C68      1.0000 0.70340  0.93730  0.08100  Biso   1.000  C
  H67      1.0000 0.70460  0.93690  0.13830  Biso   1.000  H
  C69      1.0000 0.64870  0.99010  0.95350  Biso   1.000  C
  H68      1.0000 0.61220  0.02900  0.92670  Biso   1.000  H
  C70      1.0000 0.80660  0.81980  0.08640  Biso   1.000  C
  H69      1.0000 0.86740  0.83720  0.08400  Biso   1.000  H
  H70      1.0000 0.78830  0.82260  0.14350  Biso   1.000  H
  N9       1.0000 0.50720  0.80890  0.04210  Biso   1.000  N
  N10      1.0000 0.65140  0.99320  0.04120  Biso   1.000  N
  S9       1.0000 0.79760  0.70540  0.05030  Biso   1.000  S
  S10      1.0000 0.57860  0.90200  0.77897  Biso   1.000  S
  Ag6      1.0000 0.41560  0.10187  0.61812  Biso   1.000  Ag
  C71      1.0000 0.19420  0.17070  0.58370  Biso   1.000  C
  H71      1.0000 0.18770  0.18100  0.64230  Biso   1.000  H
  H72      1.0000 0.18740  0.10920  0.57370  Biso   1.000  H
  C72      1.0000 0.12610  0.22100  0.53630  Biso   1.000  C
  C73      1.0000 0.12480  0.22400  0.44820  Biso   1.000  C
  H73      1.0000 0.16590  0.19170  0.41930  Biso   1.000  H
  C74      1.0000 0.06550  0.27250  0.40440  Biso   1.000  C
  C75      1.0000 0.00660  0.31230  0.45390  Biso   1.000  C
  H74      1.0000 0.96260  0.34430  0.42880  Biso   1.000  H
  C76      1.0000 0.06710  0.26580  0.57980  Biso   1.000  C
  H75      1.0000 0.06950  0.26580  0.63700  Biso   1.000  H
  C77      1.0000 0.06590  0.28600  0.30850  Biso   1.000  C
  H76      1.0000 0.11340  0.25280  0.28470  Biso   1.000  H
  H77      1.0000 0.01170  0.26400  0.28580  Biso   1.000  H
  C78      1.0000 0.18530  0.42660  0.31000  Biso   1.000  C
  H78      1.0000 0.20240  0.48120  0.28520  Biso   1.000  H
  H79      1.0000 0.22430  0.38220  0.28930  Biso   1.000  H
  C79      1.0000 0.19650  0.43350  0.40540  Biso   1.000  C
  C80      1.0000 0.25030  0.37920  0.44840  Biso   1.000  C
  H80      1.0000 0.28500  0.34000  0.41980  Biso   1.000  H
  C81      1.0000 0.25430  0.38150  0.53820  Biso   1.000  C
  C82      1.0000 0.20340  0.43730  0.58100  Biso   1.000  C
  H81      1.0000 0.20460  0.43690  0.63830  Biso   1.000  H
  C83      1.0000 0.14870  0.49010  0.45350  Biso   1.000  C
  H82      1.0000 0.11220  0.52900  0.42670  Biso   1.000  H
  C84      1.0000 0.30660  0.31980  0.58640  Biso   1.000  C
  H83      1.0000 0.36740  0.33720  0.58400  Biso   1.000  H
  H84      1.0000 0.28830  0.32260  0.64350  Biso   1.000  H
  N11      1.0000 0.00720  0.30890  0.54210  Biso   1.000  N
  N12      1.0000 0.15140  0.49320  0.54120  Biso   1.000  N
  S11      1.0000 0.29760  0.20540  0.55030  Biso   1.000  S
  S12      1.0000 0.07860  0.40200  0.27897  Biso   1.000  S
  Ag7      1.0000 0.08440  0.39813  0.11812  Biso   1.000  Ag
  C85      1.0000 0.30580  0.32930  0.08370  Biso   1.000  C
  H85      1.0000 0.31230  0.31900  0.14230  Biso   1.000  H
  H86      1.0000 0.31260  0.39080  0.07370  Biso   1.000  H
  C86      1.0000 0.37390  0.27900  0.03630  Biso   1.000  C
  C87      1.0000 0.37520  0.27600  0.94820  Biso   1.000  C
  H87      1.0000 0.33410  0.30830  0.91930  Biso   1.000  H
  C88      1.0000 0.43450  0.22750  0.90440  Biso   1.000  C
  C89      1.0000 0.49340  0.18770  0.95390  Biso   1.000  C
  H88      1.0000 0.53740  0.15570  0.92880  Biso   1.000  H
  C90      1.0000 0.43290  0.23420  0.07980  Biso   1.000  C
  H89      1.0000 0.43050  0.23420  0.13700  Biso   1.000  H
  C91      1.0000 0.43410  0.21400  0.80850  Biso   1.000  C
  H90      1.0000 0.38660  0.24720  0.78470  Biso   1.000  H
  H91      1.0000 0.48830  0.23600  0.78580  Biso   1.000  H
  C92      1.0000 0.31470  0.07340  0.81000  Biso   1.000  C
  H92      1.0000 0.29760  0.01880  0.78520  Biso   1.000  H
  H93      1.0000 0.27570  0.11780  0.78930  Biso   1.000  H
  C93      1.0000 0.30350  0.06650  0.90540  Biso   1.000  C
  C94      1.0000 0.24970  0.12080  0.94840  Biso   1.000  C
  H94      1.0000 0.21500  0.16000  0.91980  Biso   1.000  H
  C95      1.0000 0.24570  0.11850  0.03820  Biso   1.000  C
  C96      1.0000 0.29660  0.06270  0.08100  Biso   1.000  C
  H95      1.0000 0.29540  0.06310  0.13830  Biso   1.000  H
  C97      1.0000 0.35130  0.00990  0.95350  Biso   1.000  C
  H96      1.0000 0.38780  0.97100  0.92670  Biso   1.000  H
  C98      1.0000 0.19340  0.18020  0.08640  Biso   1.000  C
  H97      1.0000 0.13260  0.16280  0.08400  Biso   1.000  H
  H98      1.0000 0.21170  0.17740  0.14350  Biso   1.000  H
  N13      1.0000 0.49280  0.19110  0.04210  Biso   1.000  N
  N14      1.0000 0.34860  0.00680  0.04120  Biso   1.000  N
  S13      1.0000 0.20240  0.29460  0.05030  Biso   1.000  S
  S14      1.0000 0.42140  0.09800  0.77897  Biso   1.000  S
  Ag8      1.0000 0.58440  0.89813  0.61812  Biso   1.000  Ag
  C99      1.0000 0.80580  0.82930  0.58370  Biso   1.000  C
  H99      1.0000 0.81230  0.81900  0.64230  Biso   1.000  H
  H100     1.0000 0.81260  0.89080  0.57370  Biso   1.000  H
  C100     1.0000 0.87390  0.77900  0.53630  Biso   1.000  C
  C101     1.0000 0.87520  0.77600  0.44820  Biso   1.000  C
  H101     1.0000 0.83410  0.80830  0.41930  Biso   1.000  H
  C102     1.0000 0.93450  0.72750  0.40440  Biso   1.000  C
  C103     1.0000 0.99340  0.68770  0.45390  Biso   1.000  C
  H102     1.0000 0.03740  0.65570  0.42880  Biso   1.000  H
  C104     1.0000 0.93290  0.73420  0.57980  Biso   1.000  C
  H103     1.0000 0.93050  0.73420  0.63700  Biso   1.000  H
  C105     1.0000 0.93410  0.71400  0.30850  Biso   1.000  C
  H104     1.0000 0.88660  0.74720  0.28470  Biso   1.000  H
  H105     1.0000 0.98830  0.73600  0.28580  Biso   1.000  H
  C106     1.0000 0.81470  0.57340  0.31000  Biso   1.000  C
  H106     1.0000 0.79760  0.51880  0.28520  Biso   1.000  H
  H107     1.0000 0.77570  0.61780  0.28930  Biso   1.000  H
  C107     1.0000 0.80350  0.56650  0.40540  Biso   1.000  C
  C108     1.0000 0.74970  0.62080  0.44840  Biso   1.000  C
  H108     1.0000 0.71500  0.66000  0.41980  Biso   1.000  H
  C109     1.0000 0.74570  0.61850  0.53820  Biso   1.000  C
  C110     1.0000 0.79660  0.56270  0.58100  Biso   1.000  C
  H109     1.0000 0.79540  0.56310  0.63830  Biso   1.000  H
  C111     1.0000 0.85130  0.50990  0.45350  Biso   1.000  C
  H110     1.0000 0.88780  0.47100  0.42670  Biso   1.000  H
  C112     1.0000 0.69340  0.68020  0.58640  Biso   1.000  C
  H111     1.0000 0.63260  0.66280  0.58400  Biso   1.000  H
  H112     1.0000 0.71170  0.67740  0.64350  Biso   1.000  H
  N15      1.0000 0.99280  0.69110  0.54210  Biso   1.000  N
  N16      1.0000 0.84860  0.50680  0.54120  Biso   1.000  N
  S15      1.0000 0.70240  0.79460  0.55030  Biso   1.000  S
  S16      1.0000 0.92140  0.59800  0.27897  Biso   1.000  S
