data_image0
_cell_length_a       7.331
_cell_length_b       11.901
_cell_length_c       15.838
_cell_angle_alpha    103.5
_cell_angle_beta     100.46
_cell_angle_gamma    104.75

_symmetry_space_group_name_H-M    P 1
_symmetry_int_tables_number       1

loop_
  _symmetry_equiv_pos_as_xyz
  'x, y, z'

loop_
  _atom_site_label
  _atom_site_occupancy
  _atom_site_fract_x
  _atom_site_fract_y
  _atom_site_fract_z
  _atom_site_thermal_displace_type
  _atom_site_B_iso_or_equiv
  _atom_site_type_symbol
  Co1      1.0000 0.02743  0.95281  0.33490  Biso   1.000  Co
  Co2      1.0000 0.97257  0.04719  0.66510  Biso   1.000  Co
  Co3      1.0000 0.50000  0.00000  0.50000  Biso   1.000  Co
  Co4      1.0000 0.00000  0.00000  0.00000  Biso   1.000  Co
  H1       1.0000 0.00100  0.15440  0.95960  Biso   1.000  H
  H2       1.0000 0.17110  0.22570  0.97020  Biso   1.000  H
  H3       1.0000 0.81700  0.91430  0.20440  Biso   1.000  H
  H4       1.0000 0.91060  0.01330  0.20980  Biso   1.000  H
  H5       1.0000 0.89990  0.03200  0.44010  Biso   1.000  H
  H6       1.0000 0.03710  0.15680  0.42790  Biso   1.000  H
  H7       1.0000 0.79280  0.25640  0.42290  Biso   1.000  H
  H8       1.0000 0.03870  0.58380  0.35250  Biso   1.000  H
  H9       1.0000 0.58950  0.30950  0.14370  Biso   1.000  H
  H10      1.0000 0.69510  0.61700  0.38650  Biso   1.000  H
  H11      1.0000 0.91450  0.39600  0.22300  Biso   1.000  H
  H12      1.0000 0.48160  0.44250  0.39580  Biso   1.000  H
  H13      1.0000 0.99900  0.84560  0.04040  Biso   1.000  H
  H14      1.0000 0.82890  0.77430  0.02980  Biso   1.000  H
  H15      1.0000 0.18300  0.08570  0.79560  Biso   1.000  H
  H16      1.0000 0.08940  0.98670  0.79020  Biso   1.000  H
  H17      1.0000 0.10010  0.96800  0.55990  Biso   1.000  H
  H18      1.0000 0.96290  0.84320  0.57210  Biso   1.000  H
  H19      1.0000 0.20720  0.74360  0.57710  Biso   1.000  H
  H20      1.0000 0.96130  0.41620  0.64750  Biso   1.000  H
  H21      1.0000 0.41050  0.69050  0.85630  Biso   1.000  H
  H22      1.0000 0.30490  0.38300  0.61350  Biso   1.000  H
  H23      1.0000 0.08550  0.60400  0.77700  Biso   1.000  H
  H24      1.0000 0.51840  0.55750  0.60420  Biso   1.000  H
  C1       1.0000 0.88980  0.33580  0.33260  Biso   1.000  C
  C2       1.0000 0.23540  0.49420  0.37440  Biso   1.000  C
  C3       1.0000 0.75200  0.26660  0.36690  Biso   1.000  C
  C4       1.0000 0.17080  0.59150  0.36120  Biso   1.000  C
  C5       1.0000 0.55550  0.21250  0.31950  Biso   1.000  C
  C6       1.0000 0.30130  0.70020  0.36080  Biso   1.000  C
  C7       1.0000 0.49300  0.22980  0.23500  Biso   1.000  C
  C8       1.0000 0.50130  0.71080  0.36990  Biso   1.000  C
  C9       1.0000 0.63030  0.29880  0.19960  Biso   1.000  C
  C10      1.0000 0.56460  0.61150  0.38150  Biso   1.000  C
  C11      1.0000 0.82590  0.35110  0.24730  Biso   1.000  C
  C12      1.0000 0.43590  0.50550  0.38570  Biso   1.000  C
  C13      1.0000 0.41960  0.13280  0.35860  Biso   1.000  C
  C14      1.0000 0.21470  0.80000  0.34770  Biso   1.000  C
  C15      1.0000 0.28520  0.17890  0.17830  Biso   1.000  C
  C16      1.0000 0.65010  0.82620  0.36990  Biso   1.000  C
  C17      1.0000 0.09990  0.37910  0.38190  Biso   1.000  C
  C18      1.0000 0.11020  0.66420  0.66740  Biso   1.000  C
  C19      1.0000 0.76460  0.50580  0.62560  Biso   1.000  C
  C20      1.0000 0.24800  0.73340  0.63310  Biso   1.000  C
  C21      1.0000 0.82920  0.40850  0.63880  Biso   1.000  C
  C22      1.0000 0.44450  0.78750  0.68050  Biso   1.000  C
  C23      1.0000 0.69870  0.29980  0.63920  Biso   1.000  C
  C24      1.0000 0.50700  0.77020  0.76500  Biso   1.000  C
  C25      1.0000 0.49870  0.28920  0.63010  Biso   1.000  C
  C26      1.0000 0.36970  0.70120  0.80040  Biso   1.000  C
  C27      1.0000 0.43540  0.38850  0.61850  Biso   1.000  C
  C28      1.0000 0.17410  0.64890  0.75270  Biso   1.000  C
  C29      1.0000 0.56410  0.49450  0.61430  Biso   1.000  C
  C30      1.0000 0.58040  0.86720  0.64140  Biso   1.000  C
  C31      1.0000 0.78530  0.20000  0.65230  Biso   1.000  C
  C32      1.0000 0.71480  0.82110  0.82170  Biso   1.000  C
  C33      1.0000 0.34990  0.17380  0.63010  Biso   1.000  C
  C34      1.0000 0.90010  0.62090  0.61810  Biso   1.000  C
  O1       1.0000 0.48310  0.13420  0.43900  Biso   1.000  O
  O2       1.0000 0.12190  0.79360  0.27060  Biso   1.000  O
  O3       1.0000 0.25500  0.06780  0.30620  Biso   1.000  O
  O4       1.0000 0.22020  0.88570  0.41670  Biso   1.000  O
  O5       1.0000 0.24870  0.08450  0.11020  Biso   1.000  O
  O6       1.0000 0.62370  0.92870  0.39870  Biso   1.000  O
  O7       1.0000 0.16770  0.23530  0.19590  Biso   1.000  O
  O8       1.0000 0.79190  0.81230  0.33770  Biso   1.000  O
  O9       1.0000 0.16500  0.32240  0.42950  Biso   1.000  O
  O10      1.0000 0.08260  0.12670  0.93610  Biso   1.000  O
  O11      1.0000 0.14870  0.88990  0.93300  Biso   1.000  O
  O12      1.0000 0.84680  0.99000  0.23440  Biso   1.000  O
  O13      1.0000 0.01990  0.08960  0.44180  Biso   1.000  O
  O14      1.0000 0.51690  0.86580  0.56100  Biso   1.000  O
  O15      1.0000 0.87810  0.20640  0.72940  Biso   1.000  O
  O16      1.0000 0.74500  0.93220  0.69380  Biso   1.000  O
  O17      1.0000 0.77980  0.11430  0.58330  Biso   1.000  O
  O18      1.0000 0.75130  0.91550  0.88980  Biso   1.000  O
  O19      1.0000 0.37630  0.07130  0.60130  Biso   1.000  O
  O20      1.0000 0.83230  0.76470  0.80410  Biso   1.000  O
  O21      1.0000 0.20810  0.18770  0.66230  Biso   1.000  O
  O22      1.0000 0.83500  0.67760  0.57050  Biso   1.000  O
  O23      1.0000 0.91740  0.87330  0.06390  Biso   1.000  O
  O24      1.0000 0.85130  0.11010  0.06700  Biso   1.000  O
  O25      1.0000 0.15320  0.01000  0.76560  Biso   1.000  O
  O26      1.0000 0.98010  0.91040  0.55820  Biso   1.000  O
