data_OXOLAP_clean5b
_audit_creation_date              2015-05-15
_audit_creation_method            'Materials Studio'
_symmetry_space_group_name_H-M    'P1'
_symmetry_Int_Tables_number       1
_symmetry_cell_setting            triclinic
loop_
_symmetry_equiv_pos_as_xyz
  x,y,z
_cell_length_a                    28.1747
_cell_length_b                    28.1747
_cell_length_c                    28.1747
_cell_angle_alpha                 60.0000
_cell_angle_beta                  60.0000
_cell_angle_gamma                 60.0000
loop_
_atom_site_label
_atom_site_type_symbol
_atom_site_fract_x
_atom_site_fract_y
_atom_site_fract_z
_atom_site_U_iso_or_equiv
_atom_site_adp_type
_atom_site_occupancy
H1     H     0.18202   0.02714   0.33552   0.01267  Uiso   1.00
H2     H     0.19083   0.92891   0.34461   0.01267  Uiso   1.00
C3     C     0.21903   0.00505   0.30251   0.01267  Uiso   1.00
C4     C     0.22408   0.95074   0.30772   0.01267  Uiso   1.00
C5     C     0.32280   0.74260   0.24440   0.01267  Uiso   1.00
O6     O     0.21009   0.11141   0.29115   0.01267  Uiso   1.00
H7     H     0.36067   0.75973   0.21274   0.01267  Uiso   1.00
H8     H     0.72286   0.56798   0.41448   0.01267  Uiso   1.00
H9     H     0.82109   0.55917   0.40539   0.01267  Uiso   1.00
C10    C     0.74495   0.53097   0.44749   0.01267  Uiso   1.00
C11    C     0.79926   0.52592   0.44228   0.01267  Uiso   1.00
C12    C     0.00740   0.42720   0.50560   0.01267  Uiso   1.00
O13    O     0.63859   0.53991   0.45885   0.01267  Uiso   1.00
H14    H     0.99027   0.38933   0.53726   0.01267  Uiso   1.00
H15    H     0.02714   0.18202   0.45532   0.01267  Uiso   1.00
H16    H     0.92891   0.19083   0.53565   0.01267  Uiso   1.00
C17    C     0.00505   0.21903   0.47341   0.01267  Uiso   1.00
C18    C     0.95074   0.22408   0.51746   0.01267  Uiso   1.00
C19    C     0.74260   0.32280   0.69020   0.01267  Uiso   1.00
O20    O     0.11141   0.21009   0.38735   0.01267  Uiso   1.00
H21    H     0.75973   0.36067   0.66687   0.01267  Uiso   1.00
H22    H     0.56798   0.72286   0.29468   0.01267  Uiso   1.00
H23    H     0.55917   0.82109   0.21435   0.01267  Uiso   1.00
C24    C     0.53097   0.74495   0.27659   0.01267  Uiso   1.00
C25    C     0.52592   0.79926   0.23254   0.01267  Uiso   1.00
C26    C     0.42720   0.00740   0.05980   0.01267  Uiso   1.00
O27    O     0.53991   0.63859   0.36265   0.01267  Uiso   1.00
H28    H     0.38933   0.99027   0.08313   0.01267  Uiso   1.00
H29    H     0.33552   0.45532   0.18202   0.01267  Uiso   1.00
H30    H     0.34461   0.53565   0.19083   0.01267  Uiso   1.00
C31    C     0.30251   0.47341   0.21903   0.01267  Uiso   1.00
C32    C     0.30772   0.51746   0.22408   0.01267  Uiso   1.00
C33    C     0.24440   0.69020   0.32280   0.01267  Uiso   1.00
O34    O     0.29115   0.38735   0.21009   0.01267  Uiso   1.00
H35    H     0.21274   0.66687   0.36067   0.01267  Uiso   1.00
H36    H     0.41448   0.29468   0.72286   0.01267  Uiso   1.00
H37    H     0.40539   0.21435   0.82109   0.01267  Uiso   1.00
C38    C     0.44749   0.27659   0.74495   0.01267  Uiso   1.00
C39    C     0.44228   0.23254   0.79926   0.01267  Uiso   1.00
C40    C     0.50560   0.05980   0.00740   0.01267  Uiso   1.00
O41    O     0.45885   0.36265   0.63859   0.01267  Uiso   1.00
H42    H     0.53726   0.08313   0.99027   0.01267  Uiso   1.00
H43    H     0.45532   0.33552   0.02714   0.01267  Uiso   1.00
H44    H     0.53565   0.34461   0.92891   0.01267  Uiso   1.00
C45    C     0.47341   0.30251   0.00505   0.01267  Uiso   1.00
C46    C     0.51746   0.30772   0.95074   0.01267  Uiso   1.00
C47    C     0.69020   0.24440   0.74260   0.01267  Uiso   1.00
O48    O     0.38735   0.29115   0.11141   0.01267  Uiso   1.00
H49    H     0.66687   0.21274   0.75973   0.01267  Uiso   1.00
H50    H     0.29468   0.41448   0.56798   0.01267  Uiso   1.00
H51    H     0.21435   0.40539   0.55917   0.01267  Uiso   1.00
C52    C     0.27659   0.44749   0.53097   0.01267  Uiso   1.00
C53    C     0.23254   0.44228   0.52592   0.01267  Uiso   1.00
C54    C     0.05980   0.50560   0.42720   0.01267  Uiso   1.00
O55    O     0.36265   0.45885   0.53991   0.01267  Uiso   1.00
H56    H     0.08313   0.53726   0.38933   0.01267  Uiso   1.00
H57    H     0.33552   0.18202   0.02714   0.01267  Uiso   1.00
H58    H     0.34461   0.19083   0.92891   0.01267  Uiso   1.00
C59    C     0.30251   0.21903   0.00505   0.01267  Uiso   1.00
C60    C     0.30772   0.22408   0.95074   0.01267  Uiso   1.00
C61    C     0.24440   0.32280   0.74260   0.01267  Uiso   1.00
O62    O     0.29115   0.21009   0.11141   0.01267  Uiso   1.00
H63    H     0.21274   0.36067   0.75973   0.01267  Uiso   1.00
H64    H     0.41448   0.72286   0.56798   0.01267  Uiso   1.00
H65    H     0.40539   0.82109   0.55917   0.01267  Uiso   1.00
C66    C     0.44749   0.74495   0.53097   0.01267  Uiso   1.00
C67    C     0.44228   0.79926   0.52592   0.01267  Uiso   1.00
C68    C     0.50560   0.00740   0.42720   0.01267  Uiso   1.00
O69    O     0.45885   0.63859   0.53991   0.01267  Uiso   1.00
H70    H     0.53726   0.99027   0.38933   0.01267  Uiso   1.00
H71    H     0.45532   0.02714   0.18202   0.01267  Uiso   1.00
H72    H     0.53565   0.92891   0.19083   0.01267  Uiso   1.00
C73    C     0.47341   0.00505   0.21903   0.01267  Uiso   1.00
C74    C     0.51746   0.95074   0.22408   0.01267  Uiso   1.00
C75    C     0.69020   0.74260   0.32280   0.01267  Uiso   1.00
O76    O     0.38735   0.11141   0.21009   0.01267  Uiso   1.00
H77    H     0.66687   0.75973   0.36067   0.01267  Uiso   1.00
H78    H     0.29468   0.56798   0.72286   0.01267  Uiso   1.00
H79    H     0.21435   0.55917   0.82109   0.01267  Uiso   1.00
C80    C     0.27659   0.53097   0.74495   0.01267  Uiso   1.00
C81    C     0.23254   0.52592   0.79926   0.01267  Uiso   1.00
C82    C     0.05980   0.42720   0.00740   0.01267  Uiso   1.00
O83    O     0.36265   0.53991   0.63859   0.01267  Uiso   1.00
H84    H     0.08313   0.38933   0.99027   0.01267  Uiso   1.00
H85    H     0.18202   0.33552   0.45532   0.01267  Uiso   1.00
H86    H     0.19083   0.34461   0.53565   0.01267  Uiso   1.00
C87    C     0.21903   0.30251   0.47341   0.01267  Uiso   1.00
C88    C     0.22408   0.30772   0.51746   0.01267  Uiso   1.00
C89    C     0.32280   0.24440   0.69020   0.01267  Uiso   1.00
O90    O     0.21009   0.29115   0.38735   0.01267  Uiso   1.00
H91    H     0.36067   0.21274   0.66687   0.01267  Uiso   1.00
H92    H     0.72286   0.41448   0.29468   0.01267  Uiso   1.00
H93    H     0.82109   0.40539   0.21435   0.01267  Uiso   1.00
C94    C     0.74495   0.44749   0.27659   0.01267  Uiso   1.00
C95    C     0.79926   0.44228   0.23254   0.01267  Uiso   1.00
C96    C     0.00740   0.50560   0.05980   0.01267  Uiso   1.00
O97    O     0.63859   0.45885   0.36265   0.01267  Uiso   1.00
H98    H     0.99027   0.53726   0.08313   0.01267  Uiso   1.00
H99    H     0.02714   0.45532   0.33552   0.01267  Uiso   1.00
H100   H     0.92891   0.53565   0.34461   0.01267  Uiso   1.00
C101   C     0.00505   0.47341   0.30251   0.01267  Uiso   1.00
C102   C     0.95074   0.51746   0.30772   0.01267  Uiso   1.00
C103   C     0.74260   0.69020   0.24440   0.01267  Uiso   1.00
O104   O     0.11141   0.38735   0.29115   0.01267  Uiso   1.00
H105   H     0.75973   0.66687   0.21274   0.01267  Uiso   1.00
H106   H     0.56798   0.29468   0.41448   0.01267  Uiso   1.00
H107   H     0.55917   0.21435   0.40539   0.01267  Uiso   1.00
C108   C     0.53097   0.27659   0.44749   0.01267  Uiso   1.00
C109   C     0.52592   0.23254   0.44228   0.01267  Uiso   1.00
C110   C     0.42720   0.05980   0.50560   0.01267  Uiso   1.00
O111   O     0.53991   0.36265   0.45885   0.01267  Uiso   1.00
H112   H     0.38933   0.08313   0.53726   0.01267  Uiso   1.00
H113   H     0.02714   0.33552   0.18202   0.01267  Uiso   1.00
H114   H     0.92891   0.34461   0.19083   0.01267  Uiso   1.00
C115   C     0.00505   0.30251   0.21903   0.01267  Uiso   1.00
C116   C     0.95074   0.30772   0.22408   0.01267  Uiso   1.00
C117   C     0.74260   0.24440   0.32280   0.01267  Uiso   1.00
O118   O     0.11141   0.29115   0.21009   0.01267  Uiso   1.00
H119   H     0.75973   0.21274   0.36067   0.01267  Uiso   1.00
H120   H     0.56798   0.41448   0.72286   0.01267  Uiso   1.00
H121   H     0.55917   0.40539   0.82109   0.01267  Uiso   1.00
C122   C     0.53097   0.44749   0.74495   0.01267  Uiso   1.00
C123   C     0.52592   0.44228   0.79926   0.01267  Uiso   1.00
C124   C     0.42720   0.50560   0.00740   0.01267  Uiso   1.00
O125   O     0.53991   0.45885   0.63859   0.01267  Uiso   1.00
H126   H     0.38933   0.53726   0.99027   0.01267  Uiso   1.00
H127   H     0.18202   0.45532   0.02714   0.01267  Uiso   1.00
H128   H     0.19083   0.53565   0.92891   0.01267  Uiso   1.00
C129   C     0.21903   0.47341   0.00505   0.01267  Uiso   1.00
C130   C     0.22408   0.51746   0.95074   0.01267  Uiso   1.00
C131   C     0.32280   0.69020   0.74260   0.01267  Uiso   1.00
O132   O     0.21009   0.38735   0.11141   0.01267  Uiso   1.00
H133   H     0.36067   0.66687   0.75973   0.01267  Uiso   1.00
H134   H     0.72286   0.29468   0.56798   0.01267  Uiso   1.00
H135   H     0.82109   0.21435   0.55917   0.01267  Uiso   1.00
C136   C     0.74495   0.27659   0.53097   0.01267  Uiso   1.00
C137   C     0.79926   0.23254   0.52592   0.01267  Uiso   1.00
C138   C     0.00740   0.05980   0.42720   0.01267  Uiso   1.00
O139   O     0.63859   0.36265   0.53991   0.01267  Uiso   1.00
H140   H     0.99027   0.08313   0.38933   0.01267  Uiso   1.00
H141   H     0.45532   0.18202   0.33552   0.01267  Uiso   1.00
H142   H     0.53565   0.19083   0.34461   0.01267  Uiso   1.00
C143   C     0.47341   0.21903   0.30251   0.01267  Uiso   1.00
C144   C     0.51746   0.22408   0.30772   0.01267  Uiso   1.00
C145   C     0.69020   0.32280   0.24440   0.01267  Uiso   1.00
O146   O     0.38735   0.21009   0.29115   0.01267  Uiso   1.00
H147   H     0.66687   0.36067   0.21274   0.01267  Uiso   1.00
H148   H     0.29468   0.72286   0.41448   0.01267  Uiso   1.00
H149   H     0.21435   0.82109   0.40539   0.01267  Uiso   1.00
C150   C     0.27659   0.74495   0.44749   0.01267  Uiso   1.00
C151   C     0.23254   0.79926   0.44228   0.01267  Uiso   1.00
C152   C     0.05980   0.00740   0.50560   0.01267  Uiso   1.00
O153   O     0.36265   0.63859   0.45885   0.01267  Uiso   1.00
H154   H     0.08313   0.99027   0.53726   0.01267  Uiso   1.00
H155   H     0.33552   0.02714   0.45532   0.01267  Uiso   1.00
H156   H     0.34461   0.92891   0.53565   0.01267  Uiso   1.00
C157   C     0.30251   0.00505   0.47341   0.01267  Uiso   1.00
C158   C     0.30772   0.95074   0.51746   0.01267  Uiso   1.00
C159   C     0.24440   0.74260   0.69020   0.01267  Uiso   1.00
O160   O     0.29115   0.11141   0.38735   0.01267  Uiso   1.00
H161   H     0.21274   0.75973   0.66687   0.01267  Uiso   1.00
H162   H     0.41448   0.56798   0.29468   0.01267  Uiso   1.00
H163   H     0.40539   0.55917   0.21435   0.01267  Uiso   1.00
C164   C     0.44749   0.53097   0.27659   0.01267  Uiso   1.00
C165   C     0.44228   0.52592   0.23254   0.01267  Uiso   1.00
C166   C     0.50560   0.42720   0.05980   0.01267  Uiso   1.00
O167   O     0.45885   0.53991   0.36265   0.01267  Uiso   1.00
H168   H     0.53726   0.38933   0.08313   0.01267  Uiso   1.00
H169   H     0.02714   0.18202   0.33552   0.01267  Uiso   1.00
H170   H     0.92891   0.19083   0.34461   0.01267  Uiso   1.00
C171   C     0.00505   0.21903   0.30251   0.01267  Uiso   1.00
C172   C     0.95074   0.22408   0.30772   0.01267  Uiso   1.00
C173   C     0.74260   0.32280   0.24440   0.01267  Uiso   1.00
O174   O     0.11141   0.21009   0.29115   0.01267  Uiso   1.00
H175   H     0.75973   0.36067   0.21274   0.01267  Uiso   1.00
H176   H     0.56798   0.72286   0.41448   0.01267  Uiso   1.00
H177   H     0.55917   0.82109   0.40539   0.01267  Uiso   1.00
C178   C     0.53097   0.74495   0.44749   0.01267  Uiso   1.00
C179   C     0.52592   0.79926   0.44228   0.01267  Uiso   1.00
C180   C     0.42720   0.00740   0.50560   0.01267  Uiso   1.00
O181   O     0.53991   0.63859   0.45885   0.01267  Uiso   1.00
H182   H     0.38933   0.99027   0.53726   0.01267  Uiso   1.00
H183   H     0.18202   0.02714   0.45532   0.01267  Uiso   1.00
H184   H     0.19083   0.92891   0.53565   0.01267  Uiso   1.00
C185   C     0.21903   0.00505   0.47341   0.01267  Uiso   1.00
C186   C     0.22408   0.95074   0.51746   0.01267  Uiso   1.00
C187   C     0.32280   0.74260   0.69020   0.01267  Uiso   1.00
O188   O     0.21009   0.11141   0.38735   0.01267  Uiso   1.00
H189   H     0.36067   0.75973   0.66687   0.01267  Uiso   1.00
H190   H     0.72286   0.56798   0.29468   0.01267  Uiso   1.00
H191   H     0.82109   0.55917   0.21435   0.01267  Uiso   1.00
C192   C     0.74495   0.53097   0.27659   0.01267  Uiso   1.00
C193   C     0.79926   0.52592   0.23254   0.01267  Uiso   1.00
C194   C     0.00740   0.42720   0.05980   0.01267  Uiso   1.00
O195   O     0.63859   0.53991   0.36265   0.01267  Uiso   1.00
H196   H     0.99027   0.38933   0.08313   0.01267  Uiso   1.00
H197   H     0.45532   0.33552   0.18202   0.01267  Uiso   1.00
H198   H     0.53565   0.34461   0.19083   0.01267  Uiso   1.00
C199   C     0.47341   0.30251   0.21903   0.01267  Uiso   1.00
C200   C     0.51746   0.30772   0.22408   0.01267  Uiso   1.00
C201   C     0.69020   0.24440   0.32280   0.01267  Uiso   1.00
O202   O     0.38735   0.29115   0.21009   0.01267  Uiso   1.00
H203   H     0.66687   0.21274   0.36067   0.01267  Uiso   1.00
H204   H     0.29468   0.41448   0.72286   0.01267  Uiso   1.00
H205   H     0.21435   0.40539   0.82109   0.01267  Uiso   1.00
C206   C     0.27659   0.44749   0.74495   0.01267  Uiso   1.00
C207   C     0.23254   0.44228   0.79926   0.01267  Uiso   1.00
C208   C     0.05980   0.50560   0.00740   0.01267  Uiso   1.00
O209   O     0.36265   0.45885   0.63859   0.01267  Uiso   1.00
H210   H     0.08313   0.53726   0.99027   0.01267  Uiso   1.00
H211   H     0.33552   0.45532   0.02714   0.01267  Uiso   1.00
H212   H     0.34461   0.53565   0.92891   0.01267  Uiso   1.00
C213   C     0.30251   0.47341   0.00505   0.01267  Uiso   1.00
C214   C     0.30772   0.51746   0.95074   0.01267  Uiso   1.00
C215   C     0.24440   0.69020   0.74260   0.01267  Uiso   1.00
O216   O     0.29115   0.38735   0.11141   0.01267  Uiso   1.00
H217   H     0.21274   0.66687   0.75973   0.01267  Uiso   1.00
H218   H     0.41448   0.29468   0.56798   0.01267  Uiso   1.00
H219   H     0.40539   0.21435   0.55917   0.01267  Uiso   1.00
C220   C     0.44749   0.27659   0.53097   0.01267  Uiso   1.00
C221   C     0.44228   0.23254   0.52592   0.01267  Uiso   1.00
C222   C     0.50560   0.05980   0.42720   0.01267  Uiso   1.00
O223   O     0.45885   0.36265   0.53991   0.01267  Uiso   1.00
H224   H     0.53726   0.08313   0.38933   0.01267  Uiso   1.00
H225   H     0.18202   0.33552   0.02714   0.01267  Uiso   1.00
H226   H     0.19083   0.34461   0.92891   0.01267  Uiso   1.00
C227   C     0.21903   0.30251   0.00505   0.01267  Uiso   1.00
C228   C     0.22408   0.30772   0.95074   0.01267  Uiso   1.00
C229   C     0.32280   0.24440   0.74260   0.01267  Uiso   1.00
O230   O     0.21009   0.29115   0.11141   0.01267  Uiso   1.00
H231   H     0.36067   0.21274   0.75973   0.01267  Uiso   1.00
H232   H     0.72286   0.41448   0.56798   0.01267  Uiso   1.00
H233   H     0.82109   0.40539   0.55917   0.01267  Uiso   1.00
C234   C     0.74495   0.44749   0.53097   0.01267  Uiso   1.00
C235   C     0.79926   0.44228   0.52592   0.01267  Uiso   1.00
C236   C     0.00740   0.50560   0.42720   0.01267  Uiso   1.00
O237   O     0.63859   0.45885   0.53991   0.01267  Uiso   1.00
H238   H     0.99027   0.53726   0.38933   0.01267  Uiso   1.00
H239   H     0.02714   0.45532   0.18202   0.01267  Uiso   1.00
H240   H     0.92891   0.53565   0.19083   0.01267  Uiso   1.00
C241   C     0.00505   0.47341   0.21903   0.01267  Uiso   1.00
C242   C     0.95074   0.51746   0.22408   0.01267  Uiso   1.00
C243   C     0.74260   0.69020   0.32280   0.01267  Uiso   1.00
O244   O     0.11141   0.38735   0.21009   0.01267  Uiso   1.00
H245   H     0.75973   0.66687   0.36067   0.01267  Uiso   1.00
H246   H     0.56798   0.29468   0.72286   0.01267  Uiso   1.00
H247   H     0.55917   0.21435   0.82109   0.01267  Uiso   1.00
C248   C     0.53097   0.27659   0.74495   0.01267  Uiso   1.00
C249   C     0.52592   0.23254   0.79926   0.01267  Uiso   1.00
C250   C     0.42720   0.05980   0.00740   0.01267  Uiso   1.00
O251   O     0.53991   0.36265   0.63859   0.01267  Uiso   1.00
H252   H     0.38933   0.08313   0.99027   0.01267  Uiso   1.00
H253   H     0.33552   0.18202   0.45532   0.01267  Uiso   1.00
H254   H     0.34461   0.19083   0.53565   0.01267  Uiso   1.00
C255   C     0.30251   0.21903   0.47341   0.01267  Uiso   1.00
C256   C     0.30772   0.22408   0.51746   0.01267  Uiso   1.00
C257   C     0.24440   0.32280   0.69020   0.01267  Uiso   1.00
O258   O     0.29115   0.21009   0.38735   0.01267  Uiso   1.00
H259   H     0.21274   0.36067   0.66687   0.01267  Uiso   1.00
H260   H     0.41448   0.72286   0.29468   0.01267  Uiso   1.00
H261   H     0.40539   0.82109   0.21435   0.01267  Uiso   1.00
C262   C     0.44749   0.74495   0.27659   0.01267  Uiso   1.00
C263   C     0.44228   0.79926   0.23254   0.01267  Uiso   1.00
C264   C     0.50560   0.00740   0.05980   0.01267  Uiso   1.00
O265   O     0.45885   0.63859   0.36265   0.01267  Uiso   1.00
H266   H     0.53726   0.99027   0.08313   0.01267  Uiso   1.00
H267   H     0.45532   0.02714   0.33552   0.01267  Uiso   1.00
H268   H     0.53565   0.92891   0.34461   0.01267  Uiso   1.00
C269   C     0.47341   0.00505   0.30251   0.01267  Uiso   1.00
C270   C     0.51746   0.95074   0.30772   0.01267  Uiso   1.00
C271   C     0.69020   0.74260   0.24440   0.01267  Uiso   1.00
O272   O     0.38735   0.11141   0.29115   0.01267  Uiso   1.00
H273   H     0.66687   0.75973   0.21274   0.01267  Uiso   1.00
H274   H     0.29468   0.56798   0.41448   0.01267  Uiso   1.00
H275   H     0.21435   0.55917   0.40539   0.01267  Uiso   1.00
C276   C     0.27659   0.53097   0.44749   0.01267  Uiso   1.00
C277   C     0.23254   0.52592   0.44228   0.01267  Uiso   1.00
C278   C     0.05980   0.42720   0.50560   0.01267  Uiso   1.00
O279   O     0.36265   0.53991   0.45885   0.01267  Uiso   1.00
H280   H     0.08313   0.38933   0.53726   0.01267  Uiso   1.00
H281   H     0.33552   0.02714   0.18202   0.01267  Uiso   1.00
H282   H     0.34461   0.92891   0.19083   0.01267  Uiso   1.00
C283   C     0.30251   0.00505   0.21903   0.01267  Uiso   1.00
C284   C     0.30772   0.95074   0.22408   0.01267  Uiso   1.00
C285   C     0.24440   0.74260   0.32280   0.01267  Uiso   1.00
O286   O     0.29115   0.11141   0.21009   0.01267  Uiso   1.00
H287   H     0.21274   0.75973   0.36067   0.01267  Uiso   1.00
H288   H     0.41448   0.56798   0.72286   0.01267  Uiso   1.00
H289   H     0.40539   0.55917   0.82109   0.01267  Uiso   1.00
C290   C     0.44749   0.53097   0.74495   0.01267  Uiso   1.00
C291   C     0.44228   0.52592   0.79926   0.01267  Uiso   1.00
C292   C     0.50560   0.42720   0.00740   0.01267  Uiso   1.00
O293   O     0.45885   0.53991   0.63859   0.01267  Uiso   1.00
H294   H     0.53726   0.38933   0.99027   0.01267  Uiso   1.00
H295   H     0.45532   0.18202   0.02714   0.01267  Uiso   1.00
H296   H     0.53565   0.19083   0.92891   0.01267  Uiso   1.00
C297   C     0.47341   0.21903   0.00505   0.01267  Uiso   1.00
C298   C     0.51746   0.22408   0.95074   0.01267  Uiso   1.00
C299   C     0.69020   0.32280   0.74260   0.01267  Uiso   1.00
O300   O     0.38735   0.21009   0.11141   0.01267  Uiso   1.00
H301   H     0.66687   0.36067   0.75973   0.01267  Uiso   1.00
H302   H     0.29468   0.72286   0.56798   0.01267  Uiso   1.00
H303   H     0.21435   0.82109   0.55917   0.01267  Uiso   1.00
C304   C     0.27659   0.74495   0.53097   0.01267  Uiso   1.00
C305   C     0.23254   0.79926   0.52592   0.01267  Uiso   1.00
C306   C     0.05980   0.00740   0.42720   0.01267  Uiso   1.00
O307   O     0.36265   0.63859   0.53991   0.01267  Uiso   1.00
H308   H     0.08313   0.99027   0.38933   0.01267  Uiso   1.00
H309   H     0.18202   0.45532   0.33552   0.01267  Uiso   1.00
H310   H     0.19083   0.53565   0.34461   0.01267  Uiso   1.00
C311   C     0.21903   0.47341   0.30251   0.01267  Uiso   1.00
C312   C     0.22408   0.51746   0.30772   0.01267  Uiso   1.00
C313   C     0.32280   0.69020   0.24440   0.01267  Uiso   1.00
O314   O     0.21009   0.38735   0.29115   0.01267  Uiso   1.00
H315   H     0.36067   0.66687   0.21274   0.01267  Uiso   1.00
H316   H     0.72286   0.29468   0.41448   0.01267  Uiso   1.00
H317   H     0.82109   0.21435   0.40539   0.01267  Uiso   1.00
C318   C     0.74495   0.27659   0.44749   0.01267  Uiso   1.00
C319   C     0.79926   0.23254   0.44228   0.01267  Uiso   1.00
C320   C     0.00740   0.05980   0.50560   0.01267  Uiso   1.00
O321   O     0.63859   0.36265   0.45885   0.01267  Uiso   1.00
H322   H     0.99027   0.08313   0.53726   0.01267  Uiso   1.00
H323   H     0.02714   0.33552   0.45532   0.01267  Uiso   1.00
H324   H     0.92891   0.34461   0.53565   0.01267  Uiso   1.00
C325   C     0.00505   0.30251   0.47341   0.01267  Uiso   1.00
C326   C     0.95074   0.30772   0.51746   0.01267  Uiso   1.00
C327   C     0.74260   0.24440   0.69020   0.01267  Uiso   1.00
O328   O     0.11141   0.29115   0.38735   0.01267  Uiso   1.00
H329   H     0.75973   0.21274   0.66687   0.01267  Uiso   1.00
H330   H     0.56798   0.41448   0.29468   0.01267  Uiso   1.00
H331   H     0.55917   0.40539   0.21435   0.01267  Uiso   1.00
C332   C     0.53097   0.44749   0.27659   0.01267  Uiso   1.00
C333   C     0.52592   0.44228   0.23254   0.01267  Uiso   1.00
C334   C     0.42720   0.50560   0.05980   0.01267  Uiso   1.00
O335   O     0.53991   0.45885   0.36265   0.01267  Uiso   1.00
H336   H     0.38933   0.53726   0.08313   0.01267  Uiso   1.00
Zr337  Zr    0.18779   0.18779   0.31221   0.01267  Uiso   1.00
Zr338  Zr    0.31221   0.31221   0.18779   0.01267  Uiso   1.00
Zr339  Zr    0.31221   0.18779   0.18779   0.01267  Uiso   1.00
Zr340  Zr    0.18779   0.31221   0.31221   0.01267  Uiso   1.00
Zr341  Zr    0.18779   0.31221   0.18779   0.01267  Uiso   1.00
Zr342  Zr    0.31221   0.18779   0.31221   0.01267  Uiso   1.00
Zr343  Zr    0.56221   0.56221   0.43779   0.01267  Uiso   1.00
Zr344  Zr    0.43779   0.43779   0.56221   0.01267  Uiso   1.00
Zr345  Zr    0.43779   0.56221   0.56221   0.01267  Uiso   1.00
Zr346  Zr    0.56221   0.43779   0.43779   0.01267  Uiso   1.00
Zr347  Zr    0.56221   0.43779   0.56221   0.01267  Uiso   1.00
Zr348  Zr    0.43779   0.56221   0.43779   0.01267  Uiso   1.00
C349   C     0.25339   0.08893   0.25339   0.01267  Uiso   1.00
C350   C     0.25816   0.03158   0.25816   0.01267  Uiso   1.00
C351   C     0.08893   0.25339   0.40429   0.01267  Uiso   1.00
C352   C     0.03158   0.25816   0.45210   0.01267  Uiso   1.00
C353   C     0.25339   0.40429   0.25339   0.01267  Uiso   1.00
C354   C     0.25816   0.45210   0.25816   0.01267  Uiso   1.00
C355   C     0.40429   0.25339   0.08893   0.01267  Uiso   1.00
C356   C     0.45210   0.25816   0.03158   0.01267  Uiso   1.00
C357   C     0.25339   0.25339   0.08893   0.01267  Uiso   1.00
C358   C     0.25816   0.25816   0.03158   0.01267  Uiso   1.00
C359   C     0.40429   0.08893   0.25339   0.01267  Uiso   1.00
C360   C     0.45210   0.03158   0.25816   0.01267  Uiso   1.00
C361   C     0.25339   0.25339   0.40429   0.01267  Uiso   1.00
C362   C     0.25816   0.25816   0.45210   0.01267  Uiso   1.00
C363   C     0.08893   0.40429   0.25339   0.01267  Uiso   1.00
C364   C     0.03158   0.45210   0.25816   0.01267  Uiso   1.00
C365   C     0.08893   0.25339   0.25339   0.01267  Uiso   1.00
C366   C     0.03158   0.25816   0.25816   0.01267  Uiso   1.00
C367   C     0.25339   0.40429   0.08893   0.01267  Uiso   1.00
C368   C     0.25816   0.45210   0.03158   0.01267  Uiso   1.00
C369   C     0.40429   0.25339   0.25339   0.01267  Uiso   1.00
C370   C     0.45210   0.25816   0.25816   0.01267  Uiso   1.00
C371   C     0.25339   0.08893   0.40429   0.01267  Uiso   1.00
C372   C     0.25816   0.03158   0.45210   0.01267  Uiso   1.00
C373   C     0.26880   0.92312   0.26880   0.01267  Uiso   1.00
C374   C     0.27400   0.86792   0.27400   0.01267  Uiso   1.00
C375   C     0.27810   0.82192   0.27810   0.01267  Uiso   1.00
C376   C     0.28010   0.76968   0.28010   0.01267  Uiso   1.00
C377   C     0.92312   0.26880   0.53928   0.01267  Uiso   1.00
C378   C     0.86792   0.27400   0.58408   0.01267  Uiso   1.00
C379   C     0.82192   0.27810   0.62188   0.01267  Uiso   1.00
C380   C     0.76968   0.28010   0.67012   0.01267  Uiso   1.00
C381   C     0.26880   0.53928   0.26880   0.01267  Uiso   1.00
C382   C     0.27400   0.58408   0.27400   0.01267  Uiso   1.00
C383   C     0.27810   0.62188   0.27810   0.01267  Uiso   1.00
C384   C     0.28010   0.67012   0.28010   0.01267  Uiso   1.00
C385   C     0.53928   0.26880   0.92312   0.01267  Uiso   1.00
C386   C     0.58408   0.27400   0.86792   0.01267  Uiso   1.00
C387   C     0.62188   0.27810   0.82192   0.01267  Uiso   1.00
C388   C     0.67012   0.28010   0.76968   0.01267  Uiso   1.00
C389   C     0.26880   0.26880   0.92312   0.01267  Uiso   1.00
C390   C     0.27400   0.27400   0.86792   0.01267  Uiso   1.00
C391   C     0.27810   0.27810   0.82192   0.01267  Uiso   1.00
C392   C     0.28010   0.28010   0.76968   0.01267  Uiso   1.00
C393   C     0.53928   0.92312   0.26880   0.01267  Uiso   1.00
C394   C     0.58408   0.86792   0.27400   0.01267  Uiso   1.00
C395   C     0.62188   0.82192   0.27810   0.01267  Uiso   1.00
C396   C     0.67012   0.76968   0.28010   0.01267  Uiso   1.00
C397   C     0.26880   0.26880   0.53928   0.01267  Uiso   1.00
C398   C     0.27400   0.27400   0.58408   0.01267  Uiso   1.00
C399   C     0.27810   0.27810   0.62188   0.01267  Uiso   1.00
C400   C     0.28010   0.28010   0.67012   0.01267  Uiso   1.00
C401   C     0.92312   0.53928   0.26880   0.01267  Uiso   1.00
C402   C     0.86792   0.58408   0.27400   0.01267  Uiso   1.00
C403   C     0.82192   0.62188   0.27810   0.01267  Uiso   1.00
C404   C     0.76968   0.67012   0.28010   0.01267  Uiso   1.00
C405   C     0.92312   0.26880   0.26880   0.01267  Uiso   1.00
C406   C     0.86792   0.27400   0.27400   0.01267  Uiso   1.00
C407   C     0.82192   0.27810   0.27810   0.01267  Uiso   1.00
C408   C     0.76968   0.28010   0.28010   0.01267  Uiso   1.00
C409   C     0.26880   0.53928   0.92312   0.01267  Uiso   1.00
C410   C     0.27400   0.58408   0.86792   0.01267  Uiso   1.00
C411   C     0.27810   0.62188   0.82192   0.01267  Uiso   1.00
C412   C     0.28010   0.67012   0.76968   0.01267  Uiso   1.00
C413   C     0.53928   0.26880   0.26880   0.01267  Uiso   1.00
C414   C     0.58408   0.27400   0.27400   0.01267  Uiso   1.00
C415   C     0.62188   0.27810   0.27810   0.01267  Uiso   1.00
C416   C     0.67012   0.28010   0.28010   0.01267  Uiso   1.00
C417   C     0.26880   0.92312   0.53928   0.01267  Uiso   1.00
C418   C     0.27400   0.86792   0.58408   0.01267  Uiso   1.00
C419   C     0.27810   0.82192   0.62188   0.01267  Uiso   1.00
C420   C     0.28010   0.76968   0.67012   0.01267  Uiso   1.00
C421   C     0.66107   0.49661   0.49661   0.01267  Uiso   1.00
C422   C     0.71842   0.49184   0.49184   0.01267  Uiso   1.00
C423   C     0.82688   0.48120   0.48120   0.01267  Uiso   1.00
C424   C     0.88208   0.47600   0.47600   0.01267  Uiso   1.00
C425   C     0.92808   0.47190   0.47190   0.01267  Uiso   1.00
C426   C     0.98032   0.46990   0.46990   0.01267  Uiso   1.00
C427   C     0.49661   0.66107   0.34571   0.01267  Uiso   1.00
C428   C     0.49184   0.71842   0.29790   0.01267  Uiso   1.00
C429   C     0.48120   0.82688   0.21072   0.01267  Uiso   1.00
C430   C     0.47600   0.88208   0.16592   0.01267  Uiso   1.00
C431   C     0.47190   0.92808   0.12812   0.01267  Uiso   1.00
C432   C     0.46990   0.98032   0.07988   0.01267  Uiso   1.00
C433   C     0.49661   0.34571   0.66107   0.01267  Uiso   1.00
C434   C     0.49184   0.29790   0.71842   0.01267  Uiso   1.00
C435   C     0.48120   0.21072   0.82688   0.01267  Uiso   1.00
C436   C     0.47600   0.16592   0.88208   0.01267  Uiso   1.00
C437   C     0.47190   0.12812   0.92808   0.01267  Uiso   1.00
C438   C     0.46990   0.07988   0.98032   0.01267  Uiso   1.00
C439   C     0.34571   0.49661   0.49661   0.01267  Uiso   1.00
C440   C     0.29790   0.49184   0.49184   0.01267  Uiso   1.00
C441   C     0.21072   0.48120   0.48120   0.01267  Uiso   1.00
C442   C     0.16592   0.47600   0.47600   0.01267  Uiso   1.00
C443   C     0.12812   0.47190   0.47190   0.01267  Uiso   1.00
C444   C     0.07988   0.46990   0.46990   0.01267  Uiso   1.00
C445   C     0.49661   0.66107   0.49661   0.01267  Uiso   1.00
C446   C     0.49184   0.71842   0.49184   0.01267  Uiso   1.00
C447   C     0.48120   0.82688   0.48120   0.01267  Uiso   1.00
C448   C     0.47600   0.88208   0.47600   0.01267  Uiso   1.00
C449   C     0.47190   0.92808   0.47190   0.01267  Uiso   1.00
C450   C     0.46990   0.98032   0.46990   0.01267  Uiso   1.00
C451   C     0.34571   0.49661   0.66107   0.01267  Uiso   1.00
C452   C     0.29790   0.49184   0.71842   0.01267  Uiso   1.00
C453   C     0.21072   0.48120   0.82688   0.01267  Uiso   1.00
C454   C     0.16592   0.47600   0.88208   0.01267  Uiso   1.00
C455   C     0.12812   0.47190   0.92808   0.01267  Uiso   1.00
C456   C     0.07988   0.46990   0.98032   0.01267  Uiso   1.00
C457   C     0.66107   0.49661   0.34571   0.01267  Uiso   1.00
C458   C     0.71842   0.49184   0.29790   0.01267  Uiso   1.00
C459   C     0.82688   0.48120   0.21072   0.01267  Uiso   1.00
C460   C     0.88208   0.47600   0.16592   0.01267  Uiso   1.00
C461   C     0.92808   0.47190   0.12812   0.01267  Uiso   1.00
C462   C     0.98032   0.46990   0.07988   0.01267  Uiso   1.00
C463   C     0.49661   0.34571   0.49661   0.01267  Uiso   1.00
C464   C     0.49184   0.29790   0.49184   0.01267  Uiso   1.00
C465   C     0.48120   0.21072   0.48120   0.01267  Uiso   1.00
C466   C     0.47600   0.16592   0.47600   0.01267  Uiso   1.00
C467   C     0.47190   0.12812   0.47190   0.01267  Uiso   1.00
C468   C     0.46990   0.07988   0.46990   0.01267  Uiso   1.00
C469   C     0.49661   0.49661   0.66107   0.01267  Uiso   1.00
C470   C     0.49184   0.49184   0.71842   0.01267  Uiso   1.00
C471   C     0.48120   0.48120   0.82688   0.01267  Uiso   1.00
C472   C     0.47600   0.47600   0.88208   0.01267  Uiso   1.00
C473   C     0.47190   0.47190   0.92808   0.01267  Uiso   1.00
C474   C     0.46990   0.46990   0.98032   0.01267  Uiso   1.00
C475   C     0.66107   0.34571   0.49661   0.01267  Uiso   1.00
C476   C     0.71842   0.29790   0.49184   0.01267  Uiso   1.00
C477   C     0.82688   0.21072   0.48120   0.01267  Uiso   1.00
C478   C     0.88208   0.16592   0.47600   0.01267  Uiso   1.00
C479   C     0.92808   0.12812   0.47190   0.01267  Uiso   1.00
C480   C     0.98032   0.07988   0.46990   0.01267  Uiso   1.00
C481   C     0.34571   0.66107   0.49661   0.01267  Uiso   1.00
C482   C     0.29790   0.71842   0.49184   0.01267  Uiso   1.00
C483   C     0.21072   0.82688   0.48120   0.01267  Uiso   1.00
C484   C     0.16592   0.88208   0.47600   0.01267  Uiso   1.00
C485   C     0.12812   0.92808   0.47190   0.01267  Uiso   1.00
C486   C     0.07988   0.98032   0.46990   0.01267  Uiso   1.00
C487   C     0.49661   0.49661   0.34571   0.01267  Uiso   1.00
C488   C     0.49184   0.49184   0.29790   0.01267  Uiso   1.00
C489   C     0.48120   0.48120   0.21072   0.01267  Uiso   1.00
C490   C     0.47600   0.47600   0.16592   0.01267  Uiso   1.00
C491   C     0.47190   0.47190   0.12812   0.01267  Uiso   1.00
C492   C     0.46990   0.46990   0.07988   0.01267  Uiso   1.00
O493   O     0.16267   0.27911   0.27911   0.01267  Uiso   1.00
O494   O     0.27911   0.16267   0.27911   0.01267  Uiso   1.00
O495   O     0.27911   0.27911   0.16267   0.01267  Uiso   1.00
O496   O     0.27911   0.27911   0.27911   0.01267  Uiso   1.00
O497   O     0.47089   0.58733   0.47089   0.01267  Uiso   1.00
O498   O     0.58733   0.47089   0.47089   0.01267  Uiso   1.00
O499   O     0.47089   0.47089   0.47089   0.01267  Uiso   1.00
O500   O     0.47089   0.47089   0.58733   0.01267  Uiso   1.00
O501   O     0.21741   0.21741   0.34777   0.01267  Uiso   1.00
H502   H     0.20353   0.20353   0.38941   0.01267  Uiso   1.00
O503   O     0.21741   0.21741   0.21741   0.01267  Uiso   1.00
H504   H     0.20353   0.20353   0.20353   0.01267  Uiso   1.00
O505   O     0.34777   0.21741   0.21741   0.01267  Uiso   1.00
H506   H     0.38941   0.20353   0.20353   0.01267  Uiso   1.00
O507   O     0.21741   0.34777   0.21741   0.01267  Uiso   1.00
H508   H     0.20353   0.38941   0.20353   0.01267  Uiso   1.00
O509   O     0.53259   0.53259   0.40223   0.01267  Uiso   1.00
O510   O     0.53259   0.53259   0.53259   0.01267  Uiso   1.00
O511   O     0.40223   0.53259   0.53259   0.01267  Uiso   1.00
O512   O     0.53259   0.40223   0.53259   0.01267  Uiso   1.00
H513   H     0.54422   0.54422   0.54422   0.01267  Uiso   1.00
H514   H     0.54422   0.54422   0.36734   0.01267  Uiso   1.00
H515   H     0.54422   0.36734   0.54422   0.01267  Uiso   1.00
H516   H     0.36734   0.54422   0.54422   0.01267  Uiso   1.00
