data_image0
_cell_length_a       7.801
_cell_length_b       20.3539
_cell_length_c       20.3539
_cell_angle_alpha    90
_cell_angle_beta     90
_cell_angle_gamma    90

_symmetry_space_group_name_H-M    P 1
_symmetry_int_tables_number       1

loop_
  _symmetry_equiv_pos_as_xyz
  'x, y, z'

loop_
  _atom_site_label
  _atom_site_occupancy
  _atom_site_fract_x
  _atom_site_fract_y
  _atom_site_fract_z
  _atom_site_thermal_displace_type
  _atom_site_B_iso_or_equiv
  _atom_site_type_symbol
  U1       1.0000 0.79162  0.59742  0.75000  Biso   1.000  U
  U2       1.0000 0.79162  0.90258  0.75000  Biso   1.000  U
  U3       1.0000 0.29162  0.75000  0.59742  Biso   1.000  U
  U4       1.0000 0.29162  0.75000  0.90258  Biso   1.000  U
  U5       1.0000 0.20838  0.40258  0.25000  Biso   1.000  U
  U6       1.0000 0.20838  0.09742  0.25000  Biso   1.000  U
  U7       1.0000 0.70838  0.25000  0.09742  Biso   1.000  U
  U8       1.0000 0.70838  0.25000  0.40258  Biso   1.000  U
  P1       1.0000 0.43150  0.57439  0.86427  Biso   1.000  P
  P2       1.0000 0.43150  0.92561  0.63573  Biso   1.000  P
  P3       1.0000 0.93150  0.63573  0.57439  Biso   1.000  P
  P4       1.0000 0.93150  0.86427  0.92561  Biso   1.000  P
  P5       1.0000 0.56850  0.42561  0.36427  Biso   1.000  P
  P6       1.0000 0.56850  0.07439  0.13573  Biso   1.000  P
  P7       1.0000 0.06850  0.36427  0.07439  Biso   1.000  P
  P8       1.0000 0.06850  0.13573  0.42561  Biso   1.000  P
  P9       1.0000 0.56850  0.42561  0.13573  Biso   1.000  P
  P10      1.0000 0.56850  0.07439  0.36427  Biso   1.000  P
  P11      1.0000 0.06850  0.36427  0.42561  Biso   1.000  P
  P12      1.0000 0.06850  0.13573  0.07439  Biso   1.000  P
  P13      1.0000 0.43150  0.57439  0.63573  Biso   1.000  P
  P14      1.0000 0.43150  0.92561  0.86427  Biso   1.000  P
  P15      1.0000 0.93150  0.63573  0.92561  Biso   1.000  P
  P16      1.0000 0.93150  0.86427  0.57439  Biso   1.000  P
  H1       1.0000 0.41900  0.60900  0.99850  Biso   1.000  H
  H2       1.0000 0.41900  0.89100  0.50150  Biso   1.000  H
  H3       1.0000 0.91900  0.50150  0.60900  Biso   1.000  H
  H4       1.0000 0.91900  0.99850  0.89100  Biso   1.000  H
  H5       1.0000 0.58100  0.39100  0.49850  Biso   1.000  H
  H6       1.0000 0.58100  0.10900  0.00150  Biso   1.000  H
  H7       1.0000 0.08100  0.49850  0.10900  Biso   1.000  H
  H8       1.0000 0.08100  0.00150  0.39100  Biso   1.000  H
  H9       1.0000 0.58100  0.39100  0.00150  Biso   1.000  H
  H10      1.0000 0.58100  0.10900  0.49850  Biso   1.000  H
  H11      1.0000 0.08100  0.49850  0.39100  Biso   1.000  H
  H12      1.0000 0.08100  0.00150  0.10900  Biso   1.000  H
  H13      1.0000 0.41900  0.60900  0.50150  Biso   1.000  H
  H14      1.0000 0.41900  0.89100  0.99850  Biso   1.000  H
  H15      1.0000 0.91900  0.50150  0.89100  Biso   1.000  H
  H16      1.0000 0.91900  0.99850  0.60900  Biso   1.000  H
  C1       1.0000 0.46710  0.53210  0.94070  Biso   1.000  C
  C2       1.0000 0.51050  0.46610  0.94200  Biso   1.000  C
  C3       1.0000 0.45380  0.56430  0.99850  Biso   1.000  C
  C4       1.0000 0.46710  0.96790  0.55930  Biso   1.000  C
  C5       1.0000 0.51050  0.03390  0.55800  Biso   1.000  C
  C6       1.0000 0.45380  0.93570  0.50150  Biso   1.000  C
  C7       1.0000 0.96710  0.55930  0.53210  Biso   1.000  C
  C8       1.0000 0.01050  0.55800  0.46610  Biso   1.000  C
  C9       1.0000 0.95380  0.50150  0.56430  Biso   1.000  C
  C10      1.0000 0.96710  0.94070  0.96790  Biso   1.000  C
  C11      1.0000 0.01050  0.94200  0.03390  Biso   1.000  C
  C12      1.0000 0.95380  0.99850  0.93570  Biso   1.000  C
  C13      1.0000 0.53290  0.46790  0.44070  Biso   1.000  C
  C14      1.0000 0.48950  0.53390  0.44200  Biso   1.000  C
  C15      1.0000 0.54620  0.43570  0.49850  Biso   1.000  C
  C16      1.0000 0.53290  0.03210  0.05930  Biso   1.000  C
  C17      1.0000 0.48950  0.96610  0.05800  Biso   1.000  C
  C18      1.0000 0.54620  0.06430  0.00150  Biso   1.000  C
  C19      1.0000 0.03290  0.44070  0.03210  Biso   1.000  C
  C20      1.0000 0.98950  0.44200  0.96610  Biso   1.000  C
  C21      1.0000 0.04620  0.49850  0.06430  Biso   1.000  C
  C22      1.0000 0.03290  0.05930  0.46790  Biso   1.000  C
  C23      1.0000 0.98950  0.05800  0.53390  Biso   1.000  C
  C24      1.0000 0.04620  0.00150  0.43570  Biso   1.000  C
  C25      1.0000 0.53290  0.46790  0.05930  Biso   1.000  C
  C26      1.0000 0.48950  0.53390  0.05800  Biso   1.000  C
  C27      1.0000 0.54620  0.43570  0.00150  Biso   1.000  C
  C28      1.0000 0.53290  0.03210  0.44070  Biso   1.000  C
  C29      1.0000 0.48950  0.96610  0.44200  Biso   1.000  C
  C30      1.0000 0.54620  0.06430  0.49850  Biso   1.000  C
  C31      1.0000 0.03290  0.44070  0.46790  Biso   1.000  C
  C32      1.0000 0.98950  0.44200  0.53390  Biso   1.000  C
  C33      1.0000 0.04620  0.49850  0.43570  Biso   1.000  C
  C34      1.0000 0.03290  0.05930  0.03210  Biso   1.000  C
  C35      1.0000 0.98950  0.05800  0.96610  Biso   1.000  C
  C36      1.0000 0.04620  0.00150  0.06430  Biso   1.000  C
  C37      1.0000 0.46710  0.53210  0.55930  Biso   1.000  C
  C38      1.0000 0.51050  0.46610  0.55800  Biso   1.000  C
  C39      1.0000 0.45380  0.56430  0.50150  Biso   1.000  C
  C40      1.0000 0.46710  0.96790  0.94070  Biso   1.000  C
  C41      1.0000 0.51050  0.03390  0.94200  Biso   1.000  C
  C42      1.0000 0.45380  0.93570  0.99850  Biso   1.000  C
  C43      1.0000 0.96710  0.55930  0.96790  Biso   1.000  C
  C44      1.0000 0.01050  0.55800  0.03390  Biso   1.000  C
  C45      1.0000 0.95380  0.50150  0.93570  Biso   1.000  C
  C46      1.0000 0.96710  0.94070  0.53210  Biso   1.000  C
  C47      1.0000 0.01050  0.94200  0.46610  Biso   1.000  C
  C48      1.0000 0.95380  0.99850  0.56430  Biso   1.000  C
  O1       1.0000 0.58150  0.56060  0.82010  Biso   1.000  O
  O2       1.0000 0.39840  0.64510  0.87830  Biso   1.000  O
  O3       1.0000 0.26630  0.54340  0.83360  Biso   1.000  O
  O4       1.0000 0.58150  0.93940  0.67990  Biso   1.000  O
  O5       1.0000 0.39840  0.85490  0.62170  Biso   1.000  O
  O6       1.0000 0.26630  0.95660  0.66640  Biso   1.000  O
  O7       1.0000 0.08150  0.67990  0.56060  Biso   1.000  O
  O8       1.0000 0.89840  0.62170  0.64510  Biso   1.000  O
  O9       1.0000 0.76630  0.66640  0.54340  Biso   1.000  O
  O10      1.0000 0.08150  0.82010  0.93940  Biso   1.000  O
  O11      1.0000 0.89840  0.87830  0.85490  Biso   1.000  O
  O12      1.0000 0.76630  0.83360  0.95660  Biso   1.000  O
  O13      1.0000 0.41850  0.43940  0.32010  Biso   1.000  O
  O14      1.0000 0.60160  0.35490  0.37830  Biso   1.000  O
  O15      1.0000 0.73370  0.45660  0.33360  Biso   1.000  O
  O16      1.0000 0.41850  0.06060  0.17990  Biso   1.000  O
  O17      1.0000 0.60160  0.14510  0.12170  Biso   1.000  O
  O18      1.0000 0.73370  0.04340  0.16640  Biso   1.000  O
  O19      1.0000 0.91850  0.32010  0.06060  Biso   1.000  O
  O20      1.0000 0.10160  0.37830  0.14510  Biso   1.000  O
  O21      1.0000 0.23370  0.33360  0.04340  Biso   1.000  O
  O22      1.0000 0.91850  0.17990  0.43940  Biso   1.000  O
  O23      1.0000 0.10160  0.12170  0.35490  Biso   1.000  O
  O24      1.0000 0.23370  0.16640  0.45660  Biso   1.000  O
  O25      1.0000 0.41850  0.43940  0.17990  Biso   1.000  O
  O26      1.0000 0.60160  0.35490  0.12170  Biso   1.000  O
  O27      1.0000 0.73370  0.45660  0.16640  Biso   1.000  O
  O28      1.0000 0.41850  0.06060  0.32010  Biso   1.000  O
  O29      1.0000 0.60160  0.14510  0.37830  Biso   1.000  O
  O30      1.0000 0.73370  0.04340  0.33360  Biso   1.000  O
  O31      1.0000 0.91850  0.32010  0.43940  Biso   1.000  O
  O32      1.0000 0.10160  0.37830  0.35490  Biso   1.000  O
  O33      1.0000 0.23370  0.33360  0.45660  Biso   1.000  O
  O34      1.0000 0.91850  0.17990  0.06060  Biso   1.000  O
  O35      1.0000 0.10160  0.12170  0.14510  Biso   1.000  O
  O36      1.0000 0.23370  0.16640  0.04340  Biso   1.000  O
  O37      1.0000 0.58150  0.56060  0.67990  Biso   1.000  O
  O38      1.0000 0.39840  0.64510  0.62170  Biso   1.000  O
  O39      1.0000 0.26630  0.54340  0.66640  Biso   1.000  O
  O40      1.0000 0.58150  0.93940  0.82010  Biso   1.000  O
  O41      1.0000 0.39840  0.85490  0.87830  Biso   1.000  O
  O42      1.0000 0.26630  0.95660  0.83360  Biso   1.000  O
  O43      1.0000 0.08150  0.67990  0.93940  Biso   1.000  O
  O44      1.0000 0.89840  0.62170  0.85490  Biso   1.000  O
  O45      1.0000 0.76630  0.66640  0.95660  Biso   1.000  O
  O46      1.0000 0.08150  0.82010  0.56060  Biso   1.000  O
  O47      1.0000 0.89840  0.87830  0.64510  Biso   1.000  O
  O48      1.0000 0.76630  0.83360  0.54340  Biso   1.000  O
  O49      1.0000 0.88680  0.51760  0.75000  Biso   1.000  O
  O50      1.0000 0.69990  0.67800  0.75000  Biso   1.000  O
  O51      1.0000 0.10570  0.63410  0.75000  Biso   1.000  O
  O52      1.0000 0.88680  0.98240  0.75000  Biso   1.000  O
  O53      1.0000 0.69990  0.82200  0.75000  Biso   1.000  O
  O54      1.0000 0.10570  0.86590  0.75000  Biso   1.000  O
  O55      1.0000 0.38680  0.75000  0.51760  Biso   1.000  O
  O56      1.0000 0.19990  0.75000  0.67800  Biso   1.000  O
  O57      1.0000 0.60570  0.75000  0.63410  Biso   1.000  O
  O58      1.0000 0.38680  0.75000  0.98240  Biso   1.000  O
  O59      1.0000 0.19990  0.75000  0.82200  Biso   1.000  O
  O60      1.0000 0.60570  0.75000  0.86590  Biso   1.000  O
  O61      1.0000 0.11320  0.48240  0.25000  Biso   1.000  O
  O62      1.0000 0.30010  0.32200  0.25000  Biso   1.000  O
  O63      1.0000 0.89430  0.36590  0.25000  Biso   1.000  O
  O64      1.0000 0.11320  0.01760  0.25000  Biso   1.000  O
  O65      1.0000 0.30010  0.17800  0.25000  Biso   1.000  O
  O66      1.0000 0.89430  0.13410  0.25000  Biso   1.000  O
  O67      1.0000 0.61320  0.25000  0.01760  Biso   1.000  O
  O68      1.0000 0.80010  0.25000  0.17800  Biso   1.000  O
  O69      1.0000 0.39430  0.25000  0.13410  Biso   1.000  O
  O70      1.0000 0.61320  0.25000  0.48240  Biso   1.000  O
  O71      1.0000 0.80010  0.25000  0.32200  Biso   1.000  O
  O72      1.0000 0.39430  0.25000  0.36590  Biso   1.000  O
