data_image0
_cell_length_a       7.185
_cell_length_b       9.1854
_cell_length_c       21.544
_cell_angle_alpha    90
_cell_angle_beta     90
_cell_angle_gamma    90

_symmetry_space_group_name_H-M    "P 1"
_symmetry_int_tables_number       1

loop_
  _symmetry_equiv_pos_as_xyz
  'x, y, z'

loop_
  _atom_site_label
  _atom_site_occupancy
  _atom_site_fract_x
  _atom_site_fract_y
  _atom_site_fract_z
  _atom_site_thermal_displace_type
  _atom_site_B_iso_or_equiv
  _atom_site_type_symbol
  C1       1.0000 0.91060  0.21040  0.09510  Biso   1.000  C
  C2       1.0000 0.91360  0.25700  0.15320  Biso   1.000  C
  H1       1.0000 0.02750  0.27970  0.17120  Biso   1.000  H
  N1       1.0000 0.64940  0.40080  0.33800  Biso   1.000  N
  N2       1.0000 0.59290  0.35150  0.28550  Biso   1.000  N
  O1       1.0000 0.60590  0.11790  0.97100  Biso   1.000  O
  F1       1.0000 0.09500  0.21000  0.07050  Biso   1.000  F
  C3       1.0000 0.41060  0.71040  0.59510  Biso   1.000  C
  C4       1.0000 0.41360  0.75700  0.65320  Biso   1.000  C
  H2       1.0000 0.52750  0.77970  0.67120  Biso   1.000  H
  N3       1.0000 0.14940  0.90080  0.83800  Biso   1.000  N
  N4       1.0000 0.09290  0.85150  0.78550  Biso   1.000  N
  O2       1.0000 0.10590  0.61790  0.47100  Biso   1.000  O
  F2       1.0000 0.59500  0.71000  0.57050  Biso   1.000  F
  C5       1.0000 0.08940  0.78960  0.09510  Biso   1.000  C
  C6       1.0000 0.08640  0.74300  0.15320  Biso   1.000  C
  H3       1.0000 0.97250  0.72030  0.17120  Biso   1.000  H
  N5       1.0000 0.35060  0.59920  0.33800  Biso   1.000  N
  N6       1.0000 0.40710  0.64850  0.28550  Biso   1.000  N
  O3       1.0000 0.39410  0.88210  0.97100  Biso   1.000  O
  F3       1.0000 0.90500  0.79000  0.07050  Biso   1.000  F
  C7       1.0000 0.58940  0.28960  0.59510  Biso   1.000  C
  C8       1.0000 0.58640  0.24300  0.65320  Biso   1.000  C
  H4       1.0000 0.47250  0.22030  0.67120  Biso   1.000  H
  N7       1.0000 0.85060  0.09920  0.83800  Biso   1.000  N
  N8       1.0000 0.90710  0.14850  0.78550  Biso   1.000  N
  O4       1.0000 0.89410  0.38210  0.47100  Biso   1.000  O
  F4       1.0000 0.40500  0.29000  0.57050  Biso   1.000  F
  C9       1.0000 0.41060  0.78960  0.09510  Biso   1.000  C
  C10      1.0000 0.41360  0.74300  0.15320  Biso   1.000  C
  H5       1.0000 0.52750  0.72030  0.17120  Biso   1.000  H
  N9       1.0000 0.14940  0.59920  0.33800  Biso   1.000  N
  N10      1.0000 0.09290  0.64850  0.28550  Biso   1.000  N
  O5       1.0000 0.10590  0.88210  0.97100  Biso   1.000  O
  F5       1.0000 0.59500  0.79000  0.07050  Biso   1.000  F
  C11      1.0000 0.91060  0.28960  0.59510  Biso   1.000  C
  C12      1.0000 0.91360  0.24300  0.65320  Biso   1.000  C
  H6       1.0000 0.02750  0.22030  0.67120  Biso   1.000  H
  N11      1.0000 0.64940  0.09920  0.83800  Biso   1.000  N
  N12      1.0000 0.59290  0.14850  0.78550  Biso   1.000  N
  O6       1.0000 0.60590  0.38210  0.47100  Biso   1.000  O
  F6       1.0000 0.09500  0.29000  0.57050  Biso   1.000  F
  C13      1.0000 0.58940  0.21040  0.09510  Biso   1.000  C
  C14      1.0000 0.58640  0.25700  0.15320  Biso   1.000  C
  H7       1.0000 0.47250  0.27970  0.17120  Biso   1.000  H
  N13      1.0000 0.85060  0.40080  0.33800  Biso   1.000  N
  N14      1.0000 0.90710  0.35150  0.28550  Biso   1.000  N
  O7       1.0000 0.89410  0.11790  0.97100  Biso   1.000  O
  F7       1.0000 0.40500  0.21000  0.07050  Biso   1.000  F
  C15      1.0000 0.08940  0.71040  0.59510  Biso   1.000  C
  C16      1.0000 0.08640  0.75700  0.65320  Biso   1.000  C
  H8       1.0000 0.97250  0.77970  0.67120  Biso   1.000  H
  N15      1.0000 0.35060  0.90080  0.83800  Biso   1.000  N
  N16      1.0000 0.40710  0.85150  0.78550  Biso   1.000  N
  O8       1.0000 0.39410  0.61790  0.47100  Biso   1.000  O
  F8       1.0000 0.90500  0.71000  0.57050  Biso   1.000  F
  C17      1.0000 0.75000  0.18240  0.06040  Biso   1.000  C
  C18      1.0000 0.75000  0.31400  0.25160  Biso   1.000  C
  C19      1.0000 0.75000  0.13880  0.99560  Biso   1.000  C
  C20      1.0000 0.75000  0.27330  0.18870  Biso   1.000  C
  C21      1.0000 0.25000  0.68240  0.56040  Biso   1.000  C
  C22      1.0000 0.25000  0.81400  0.75160  Biso   1.000  C
  C23      1.0000 0.25000  0.63880  0.49560  Biso   1.000  C
  C24      1.0000 0.25000  0.77330  0.68870  Biso   1.000  C
  C25      1.0000 0.25000  0.81760  0.06040  Biso   1.000  C
  C26      1.0000 0.25000  0.68600  0.25160  Biso   1.000  C
  C27      1.0000 0.25000  0.86120  0.99560  Biso   1.000  C
  C28      1.0000 0.25000  0.72670  0.18870  Biso   1.000  C
  C29      1.0000 0.75000  0.31760  0.56040  Biso   1.000  C
  C30      1.0000 0.75000  0.18600  0.75160  Biso   1.000  C
  C31      1.0000 0.75000  0.36120  0.49560  Biso   1.000  C
  C32      1.0000 0.75000  0.22670  0.68870  Biso   1.000  C
  Cu1      1.0000 0.50000  0.50000  0.40360  Biso   1.000  Cu
  Cu2      1.0000 0.00000  0.00000  0.90360  Biso   1.000  Cu
  Cu3      1.0000 0.00000  0.50000  0.40360  Biso   1.000  Cu
  Cu4      1.0000 0.50000  0.00000  0.90360  Biso   1.000  Cu
