data_image0
_cell_length_a       25.8761
_cell_length_b       25.8761
_cell_length_c       6.2626
_cell_angle_alpha    90
_cell_angle_beta     90
_cell_angle_gamma    120

_symmetry_space_group_name_H-M    "P 1"
_symmetry_int_tables_number       1

loop_
  _symmetry_equiv_pos_as_xyz
  'x, y, z'

loop_
  _atom_site_label
  _atom_site_occupancy
  _atom_site_fract_x
  _atom_site_fract_y
  _atom_site_fract_z
  _atom_site_thermal_displace_type
  _atom_site_B_iso_or_equiv
  _atom_site_type_symbol
  Cu1      1.0000 0.94730  0.62980  0.98400  Biso   1.000  Cu
  C1       1.0000 0.00720  0.58920  0.71100  Biso   1.000  C
  C2       1.0000 0.02030  0.50190  0.79500  Biso   1.000  C
  C3       1.0000 0.00530  0.54440  0.85900  Biso   1.000  C
  C4       1.0000 0.98500  0.54300  0.07100  Biso   1.000  C
  H1       1.0000 0.03650  0.50500  0.62900  Biso   1.000  H
  O1       1.0000 0.04090  0.59910  0.54700  Biso   1.000  O
  O2       1.0000 0.97960  0.61530  0.72400  Biso   1.000  O
  O3       1.0000 0.96870  0.58200  0.16500  Biso   1.000  O
  Cu2      1.0000 0.61397  0.96313  0.31733  Biso   1.000  Cu
  C5       1.0000 0.67387  0.92253  0.04433  Biso   1.000  C
  C6       1.0000 0.68697  0.83523  0.12833  Biso   1.000  C
  C7       1.0000 0.67197  0.87773  0.19233  Biso   1.000  C
  C8       1.0000 0.65167  0.87633  0.40433  Biso   1.000  C
  H2       1.0000 0.70317  0.83833  0.96233  Biso   1.000  H
  O4       1.0000 0.70757  0.93243  0.88033  Biso   1.000  O
  O5       1.0000 0.64627  0.94863  0.05733  Biso   1.000  O
  O6       1.0000 0.63537  0.91533  0.49833  Biso   1.000  O
  Cu3      1.0000 0.28063  0.29647  0.65067  Biso   1.000  Cu
  C9       1.0000 0.34053  0.25587  0.37767  Biso   1.000  C
  C10      1.0000 0.35363  0.16857  0.46167  Biso   1.000  C
  C11      1.0000 0.33863  0.21107  0.52567  Biso   1.000  C
  C12      1.0000 0.31833  0.20967  0.73767  Biso   1.000  C
  H3       1.0000 0.36983  0.17167  0.29567  Biso   1.000  H
  O7       1.0000 0.37423  0.26577  0.21367  Biso   1.000  O
  O8       1.0000 0.31293  0.28197  0.39067  Biso   1.000  O
  O9       1.0000 0.30203  0.24867  0.83167  Biso   1.000  O
  Cu4      1.0000 0.37020  0.31750  0.98400  Biso   1.000  Cu
  C13      1.0000 0.41080  0.41800  0.71100  Biso   1.000  C
  C14      1.0000 0.49810  0.51840  0.79500  Biso   1.000  C
  C15      1.0000 0.45560  0.46090  0.85900  Biso   1.000  C
  C16      1.0000 0.45700  0.44200  0.07100  Biso   1.000  C
  H4       1.0000 0.49500  0.53150  0.62900  Biso   1.000  H
  O10      1.0000 0.40090  0.44180  0.54700  Biso   1.000  O
  O11      1.0000 0.38470  0.36430  0.72400  Biso   1.000  O
  O12      1.0000 0.41800  0.38670  0.16500  Biso   1.000  O
  Cu5      1.0000 0.03687  0.65083  0.31733  Biso   1.000  Cu
  C17      1.0000 0.07747  0.75133  0.04433  Biso   1.000  C
  C18      1.0000 0.16477  0.85173  0.12833  Biso   1.000  C
  C19      1.0000 0.12227  0.79423  0.19233  Biso   1.000  C
  C20      1.0000 0.12367  0.77533  0.40433  Biso   1.000  C
  H5       1.0000 0.16167  0.86483  0.96233  Biso   1.000  H
  O13      1.0000 0.06757  0.77513  0.88033  Biso   1.000  O
  O14      1.0000 0.05137  0.69763  0.05733  Biso   1.000  O
  O15      1.0000 0.08467  0.72003  0.49833  Biso   1.000  O
  Cu6      1.0000 0.70353  0.98417  0.65067  Biso   1.000  Cu
  C21      1.0000 0.74413  0.08467  0.37767  Biso   1.000  C
  C22      1.0000 0.83143  0.18507  0.46167  Biso   1.000  C
  C23      1.0000 0.78893  0.12757  0.52567  Biso   1.000  C
  C24      1.0000 0.79033  0.10867  0.73767  Biso   1.000  C
  H6       1.0000 0.82833  0.19817  0.29567  Biso   1.000  H
  O16      1.0000 0.73423  0.10847  0.21367  Biso   1.000  O
  O17      1.0000 0.71803  0.03097  0.39067  Biso   1.000  O
  O18      1.0000 0.75133  0.05337  0.83167  Biso   1.000  O
  Cu7      1.0000 0.68250  0.05270  0.98400  Biso   1.000  Cu
  C25      1.0000 0.58200  0.99280  0.71100  Biso   1.000  C
  C26      1.0000 0.48160  0.97970  0.79500  Biso   1.000  C
  C27      1.0000 0.53910  0.99470  0.85900  Biso   1.000  C
  C28      1.0000 0.55800  0.01500  0.07100  Biso   1.000  C
  H7       1.0000 0.46850  0.96350  0.62900  Biso   1.000  H
  O19      1.0000 0.55820  0.95910  0.54700  Biso   1.000  O
  O20      1.0000 0.63570  0.02040  0.72400  Biso   1.000  O
  O21      1.0000 0.61330  0.03130  0.16500  Biso   1.000  O
  Cu8      1.0000 0.34917  0.38603  0.31733  Biso   1.000  Cu
  C29      1.0000 0.24867  0.32613  0.04433  Biso   1.000  C
  C30      1.0000 0.14827  0.31303  0.12833  Biso   1.000  C
  C31      1.0000 0.20577  0.32803  0.19233  Biso   1.000  C
  C32      1.0000 0.22467  0.34833  0.40433  Biso   1.000  C
  H8       1.0000 0.13517  0.29683  0.96233  Biso   1.000  H
  O22      1.0000 0.22487  0.29243  0.88033  Biso   1.000  O
  O23      1.0000 0.30237  0.35373  0.05733  Biso   1.000  O
  O24      1.0000 0.27997  0.36463  0.49833  Biso   1.000  O
  Cu9      1.0000 0.01583  0.71937  0.65067  Biso   1.000  Cu
  C33      1.0000 0.91533  0.65947  0.37767  Biso   1.000  C
  C34      1.0000 0.81493  0.64637  0.46167  Biso   1.000  C
  C35      1.0000 0.87243  0.66137  0.52567  Biso   1.000  C
  C36      1.0000 0.89133  0.68167  0.73767  Biso   1.000  C
  H9       1.0000 0.80183  0.63017  0.29567  Biso   1.000  H
  O25      1.0000 0.89153  0.62577  0.21367  Biso   1.000  O
  O26      1.0000 0.96903  0.68707  0.39067  Biso   1.000  O
  O27      1.0000 0.94663  0.69797  0.83167  Biso   1.000  O
  Cu10     1.0000 0.05270  0.37020  0.01600  Biso   1.000  Cu
  C37      1.0000 0.99280  0.41080  0.28900  Biso   1.000  C
  C38      1.0000 0.97970  0.49810  0.20500  Biso   1.000  C
  C39      1.0000 0.99470  0.45560  0.14100  Biso   1.000  C
  C40      1.0000 0.01500  0.45700  0.92900  Biso   1.000  C
  H10      1.0000 0.96350  0.49500  0.37100  Biso   1.000  H
  O28      1.0000 0.95910  0.40090  0.45300  Biso   1.000  O
  O29      1.0000 0.02040  0.38470  0.27600  Biso   1.000  O
  O30      1.0000 0.03130  0.41800  0.83500  Biso   1.000  O
  Cu11     1.0000 0.71937  0.70353  0.34933  Biso   1.000  Cu
  C41      1.0000 0.65947  0.74413  0.62233  Biso   1.000  C
  C42      1.0000 0.64637  0.83143  0.53833  Biso   1.000  C
  C43      1.0000 0.66137  0.78893  0.47433  Biso   1.000  C
  C44      1.0000 0.68167  0.79033  0.26233  Biso   1.000  C
  H11      1.0000 0.63017  0.82833  0.70433  Biso   1.000  H
  O31      1.0000 0.62577  0.73423  0.78633  Biso   1.000  O
  O32      1.0000 0.68707  0.71803  0.60933  Biso   1.000  O
  O33      1.0000 0.69797  0.75133  0.16833  Biso   1.000  O
  Cu12     1.0000 0.38603  0.03687  0.68267  Biso   1.000  Cu
  C45      1.0000 0.32613  0.07747  0.95567  Biso   1.000  C
  C46      1.0000 0.31303  0.16477  0.87167  Biso   1.000  C
  C47      1.0000 0.32803  0.12227  0.80767  Biso   1.000  C
  C48      1.0000 0.34833  0.12367  0.59567  Biso   1.000  C
  H12      1.0000 0.29683  0.16167  0.03767  Biso   1.000  H
  O34      1.0000 0.29243  0.06757  0.11967  Biso   1.000  O
  O35      1.0000 0.35373  0.05137  0.94267  Biso   1.000  O
  O36      1.0000 0.36463  0.08467  0.50167  Biso   1.000  O
  Cu13     1.0000 0.62980  0.68250  0.01600  Biso   1.000  Cu
  C49      1.0000 0.58920  0.58200  0.28900  Biso   1.000  C
  C50      1.0000 0.50190  0.48160  0.20500  Biso   1.000  C
  C51      1.0000 0.54440  0.53910  0.14100  Biso   1.000  C
  C52      1.0000 0.54300  0.55800  0.92900  Biso   1.000  C
  H13      1.0000 0.50500  0.46850  0.37100  Biso   1.000  H
  O37      1.0000 0.59910  0.55820  0.45300  Biso   1.000  O
  O38      1.0000 0.61530  0.63570  0.27600  Biso   1.000  O
  O39      1.0000 0.58200  0.61330  0.83500  Biso   1.000  O
  Cu14     1.0000 0.29647  0.01583  0.34933  Biso   1.000  Cu
  C53      1.0000 0.25587  0.91533  0.62233  Biso   1.000  C
  C54      1.0000 0.16857  0.81493  0.53833  Biso   1.000  C
  C55      1.0000 0.21107  0.87243  0.47433  Biso   1.000  C
  C56      1.0000 0.20967  0.89133  0.26233  Biso   1.000  C
  H14      1.0000 0.17167  0.80183  0.70433  Biso   1.000  H
  O40      1.0000 0.26577  0.89153  0.78633  Biso   1.000  O
  O41      1.0000 0.28197  0.96903  0.60933  Biso   1.000  O
  O42      1.0000 0.24867  0.94663  0.16833  Biso   1.000  O
  Cu15     1.0000 0.96313  0.34917  0.68267  Biso   1.000  Cu
  C57      1.0000 0.92253  0.24867  0.95567  Biso   1.000  C
  C58      1.0000 0.83523  0.14827  0.87167  Biso   1.000  C
  C59      1.0000 0.87773  0.20577  0.80767  Biso   1.000  C
  C60      1.0000 0.87633  0.22467  0.59567  Biso   1.000  C
  H15      1.0000 0.83833  0.13517  0.03767  Biso   1.000  H
  O43      1.0000 0.93243  0.22487  0.11967  Biso   1.000  O
  O44      1.0000 0.94863  0.30237  0.94267  Biso   1.000  O
  O45      1.0000 0.91533  0.27997  0.50167  Biso   1.000  O
  Cu16     1.0000 0.31750  0.94730  0.01600  Biso   1.000  Cu
  C61      1.0000 0.41800  0.00720  0.28900  Biso   1.000  C
  C62      1.0000 0.51840  0.02030  0.20500  Biso   1.000  C
  C63      1.0000 0.46090  0.00530  0.14100  Biso   1.000  C
  C64      1.0000 0.44200  0.98500  0.92900  Biso   1.000  C
  H16      1.0000 0.53150  0.03650  0.37100  Biso   1.000  H
  O46      1.0000 0.44180  0.04090  0.45300  Biso   1.000  O
  O47      1.0000 0.36430  0.97960  0.27600  Biso   1.000  O
  O48      1.0000 0.38670  0.96870  0.83500  Biso   1.000  O
  Cu17     1.0000 0.98417  0.28063  0.34933  Biso   1.000  Cu
  C65      1.0000 0.08467  0.34053  0.62233  Biso   1.000  C
  C66      1.0000 0.18507  0.35363  0.53833  Biso   1.000  C
  C67      1.0000 0.12757  0.33863  0.47433  Biso   1.000  C
  C68      1.0000 0.10867  0.31833  0.26233  Biso   1.000  C
  H17      1.0000 0.19817  0.36983  0.70433  Biso   1.000  H
  O49      1.0000 0.10847  0.37423  0.78633  Biso   1.000  O
  O50      1.0000 0.03097  0.31293  0.60933  Biso   1.000  O
  O51      1.0000 0.05337  0.30203  0.16833  Biso   1.000  O
  Cu18     1.0000 0.65083  0.61397  0.68267  Biso   1.000  Cu
  C69      1.0000 0.75133  0.67387  0.95567  Biso   1.000  C
  C70      1.0000 0.85173  0.68697  0.87167  Biso   1.000  C
  C71      1.0000 0.79423  0.67197  0.80767  Biso   1.000  C
  C72      1.0000 0.77533  0.65167  0.59567  Biso   1.000  C
  H18      1.0000 0.86483  0.70317  0.03767  Biso   1.000  H
  O52      1.0000 0.77513  0.70757  0.11967  Biso   1.000  O
  O53      1.0000 0.69763  0.64627  0.94267  Biso   1.000  O
  O54      1.0000 0.72003  0.63537  0.50167  Biso   1.000  O
