data_image0
_cell_length_a       25.8592
_cell_length_b       25.8592
_cell_length_c       6.2696
_cell_angle_alpha    90
_cell_angle_beta     90
_cell_angle_gamma    120

_symmetry_space_group_name_H-M    "P 1"
_symmetry_int_tables_number       1

loop_
  _symmetry_equiv_pos_as_xyz
  'x, y, z'

loop_
  _atom_site_label
  _atom_site_occupancy
  _atom_site_fract_x
  _atom_site_fract_y
  _atom_site_fract_z
  _atom_site_thermal_displace_type
  _atom_site_B_iso_or_equiv
  _atom_site_type_symbol
  Cu1      1.0000 0.94590  0.62950  0.98600  Biso   1.000  Cu
  C1       1.0000 0.00500  0.58730  0.71000  Biso   1.000  C
  C2       1.0000 0.02230  0.50190  0.79200  Biso   1.000  C
  C3       1.0000 0.00720  0.54320  0.85600  Biso   1.000  C
  C4       1.0000 0.98760  0.54510  0.07200  Biso   1.000  C
  H1       1.0000 0.03490  0.50700  0.63400  Biso   1.000  H
  O1       1.0000 0.03870  0.59770  0.54900  Biso   1.000  O
  O2       1.0000 0.98160  0.61710  0.73800  Biso   1.000  O
  O3       1.0000 0.97000  0.58300  0.15200  Biso   1.000  O
  Cu2      1.0000 0.61257  0.96283  0.31933  Biso   1.000  Cu
  C5       1.0000 0.67167  0.92063  0.04333  Biso   1.000  C
  C6       1.0000 0.68897  0.83523  0.12533  Biso   1.000  C
  C7       1.0000 0.67387  0.87653  0.18933  Biso   1.000  C
  C8       1.0000 0.65427  0.87843  0.40533  Biso   1.000  C
  H2       1.0000 0.70157  0.84033  0.96733  Biso   1.000  H
  O4       1.0000 0.70537  0.93103  0.88233  Biso   1.000  O
  O5       1.0000 0.64827  0.95043  0.07133  Biso   1.000  O
  O6       1.0000 0.63667  0.91633  0.48533  Biso   1.000  O
  Cu3      1.0000 0.27923  0.29617  0.65267  Biso   1.000  Cu
  C9       1.0000 0.33833  0.25397  0.37667  Biso   1.000  C
  C10      1.0000 0.35563  0.16857  0.45867  Biso   1.000  C
  C11      1.0000 0.34053  0.20987  0.52267  Biso   1.000  C
  C12      1.0000 0.32093  0.21177  0.73867  Biso   1.000  C
  H3       1.0000 0.36823  0.17367  0.30067  Biso   1.000  H
  O7       1.0000 0.37203  0.26437  0.21567  Biso   1.000  O
  O8       1.0000 0.31493  0.28377  0.40467  Biso   1.000  O
  O9       1.0000 0.30333  0.24967  0.81867  Biso   1.000  O
  Cu4      1.0000 0.37050  0.31640  0.98600  Biso   1.000  Cu
  C13      1.0000 0.41270  0.41770  0.71000  Biso   1.000  C
  C14      1.0000 0.49810  0.52040  0.79200  Biso   1.000  C
  C15      1.0000 0.45680  0.46400  0.85600  Biso   1.000  C
  C16      1.0000 0.45490  0.44250  0.07200  Biso   1.000  C
  H4       1.0000 0.49300  0.52790  0.63400  Biso   1.000  H
  O10      1.0000 0.40230  0.44100  0.54900  Biso   1.000  O
  O11      1.0000 0.38290  0.36450  0.73800  Biso   1.000  O
  O12      1.0000 0.41700  0.38700  0.15200  Biso   1.000  O
  Cu5      1.0000 0.03717  0.64973  0.31933  Biso   1.000  Cu
  C17      1.0000 0.07937  0.75103  0.04333  Biso   1.000  C
  C18      1.0000 0.16477  0.85373  0.12533  Biso   1.000  C
  C19      1.0000 0.12347  0.79733  0.18933  Biso   1.000  C
  C20      1.0000 0.12157  0.77583  0.40533  Biso   1.000  C
  H5       1.0000 0.15967  0.86123  0.96733  Biso   1.000  H
  O13      1.0000 0.06897  0.77433  0.88233  Biso   1.000  O
  O14      1.0000 0.04957  0.69783  0.07133  Biso   1.000  O
  O15      1.0000 0.08367  0.72033  0.48533  Biso   1.000  O
  Cu6      1.0000 0.70383  0.98307  0.65267  Biso   1.000  Cu
  C21      1.0000 0.74603  0.08437  0.37667  Biso   1.000  C
  C22      1.0000 0.83143  0.18707  0.45867  Biso   1.000  C
  C23      1.0000 0.79013  0.13067  0.52267  Biso   1.000  C
  C24      1.0000 0.78823  0.10917  0.73867  Biso   1.000  C
  H6       1.0000 0.82633  0.19457  0.30067  Biso   1.000  H
  O16      1.0000 0.73563  0.10767  0.21567  Biso   1.000  O
  O17      1.0000 0.71623  0.03117  0.40467  Biso   1.000  O
  O18      1.0000 0.75033  0.05367  0.81867  Biso   1.000  O
  Cu7      1.0000 0.68360  0.05410  0.98600  Biso   1.000  Cu
  C25      1.0000 0.58230  0.99500  0.71000  Biso   1.000  C
  C26      1.0000 0.47960  0.97770  0.79200  Biso   1.000  C
  C27      1.0000 0.53600  0.99280  0.85600  Biso   1.000  C
  C28      1.0000 0.55750  0.01240  0.07200  Biso   1.000  C
  H7       1.0000 0.47210  0.96510  0.63400  Biso   1.000  H
  O19      1.0000 0.55900  0.96130  0.54900  Biso   1.000  O
  O20      1.0000 0.63550  0.01840  0.73800  Biso   1.000  O
  O21      1.0000 0.61300  0.03000  0.15200  Biso   1.000  O
  Cu8      1.0000 0.35027  0.38743  0.31933  Biso   1.000  Cu
  C29      1.0000 0.24897  0.32833  0.04333  Biso   1.000  C
  C30      1.0000 0.14627  0.31103  0.12533  Biso   1.000  C
  C31      1.0000 0.20267  0.32613  0.18933  Biso   1.000  C
  C32      1.0000 0.22417  0.34573  0.40533  Biso   1.000  C
  H8       1.0000 0.13877  0.29843  0.96733  Biso   1.000  H
  O22      1.0000 0.22567  0.29463  0.88233  Biso   1.000  O
  O23      1.0000 0.30217  0.35173  0.07133  Biso   1.000  O
  O24      1.0000 0.27967  0.36333  0.48533  Biso   1.000  O
  Cu9      1.0000 0.01693  0.72077  0.65267  Biso   1.000  Cu
  C33      1.0000 0.91563  0.66167  0.37667  Biso   1.000  C
  C34      1.0000 0.81293  0.64437  0.45867  Biso   1.000  C
  C35      1.0000 0.86933  0.65947  0.52267  Biso   1.000  C
  C36      1.0000 0.89083  0.67907  0.73867  Biso   1.000  C
  H9       1.0000 0.80543  0.63177  0.30067  Biso   1.000  H
  O25      1.0000 0.89233  0.62797  0.21567  Biso   1.000  O
  O26      1.0000 0.96883  0.68507  0.40467  Biso   1.000  O
  O27      1.0000 0.94633  0.69667  0.81867  Biso   1.000  O
  Cu10     1.0000 0.05410  0.37050  0.01400  Biso   1.000  Cu
  C37      1.0000 0.99500  0.41270  0.29000  Biso   1.000  C
  C38      1.0000 0.97770  0.49810  0.20800  Biso   1.000  C
  C39      1.0000 0.99280  0.45680  0.14400  Biso   1.000  C
  C40      1.0000 0.01240  0.45490  0.92800  Biso   1.000  C
  H10      1.0000 0.96510  0.49300  0.36600  Biso   1.000  H
  O28      1.0000 0.96130  0.40230  0.45100  Biso   1.000  O
  O29      1.0000 0.01840  0.38290  0.26200  Biso   1.000  O
  O30      1.0000 0.03000  0.41700  0.84800  Biso   1.000  O
  Cu11     1.0000 0.72077  0.70383  0.34733  Biso   1.000  Cu
  C41      1.0000 0.66167  0.74603  0.62333  Biso   1.000  C
  C42      1.0000 0.64437  0.83143  0.54133  Biso   1.000  C
  C43      1.0000 0.65947  0.79013  0.47733  Biso   1.000  C
  C44      1.0000 0.67907  0.78823  0.26133  Biso   1.000  C
  H11      1.0000 0.63177  0.82633  0.69933  Biso   1.000  H
  O31      1.0000 0.62797  0.73563  0.78433  Biso   1.000  O
  O32      1.0000 0.68507  0.71623  0.59533  Biso   1.000  O
  O33      1.0000 0.69667  0.75033  0.18133  Biso   1.000  O
  Cu12     1.0000 0.38743  0.03717  0.68067  Biso   1.000  Cu
  C45      1.0000 0.32833  0.07937  0.95667  Biso   1.000  C
  C46      1.0000 0.31103  0.16477  0.87467  Biso   1.000  C
  C47      1.0000 0.32613  0.12347  0.81067  Biso   1.000  C
  C48      1.0000 0.34573  0.12157  0.59467  Biso   1.000  C
  H12      1.0000 0.29843  0.15967  0.03267  Biso   1.000  H
  O34      1.0000 0.29463  0.06897  0.11767  Biso   1.000  O
  O35      1.0000 0.35173  0.04957  0.92867  Biso   1.000  O
  O36      1.0000 0.36333  0.08367  0.51467  Biso   1.000  O
  Cu13     1.0000 0.62950  0.68360  0.01400  Biso   1.000  Cu
  C49      1.0000 0.58730  0.58230  0.29000  Biso   1.000  C
  C50      1.0000 0.50190  0.47960  0.20800  Biso   1.000  C
  C51      1.0000 0.54320  0.53600  0.14400  Biso   1.000  C
  C52      1.0000 0.54510  0.55750  0.92800  Biso   1.000  C
  H13      1.0000 0.50700  0.47210  0.36600  Biso   1.000  H
  O37      1.0000 0.59770  0.55900  0.45100  Biso   1.000  O
  O38      1.0000 0.61710  0.63550  0.26200  Biso   1.000  O
  O39      1.0000 0.58300  0.61300  0.84800  Biso   1.000  O
  Cu14     1.0000 0.29617  0.01693  0.34733  Biso   1.000  Cu
  C53      1.0000 0.25397  0.91563  0.62333  Biso   1.000  C
  C54      1.0000 0.16857  0.81293  0.54133  Biso   1.000  C
  C55      1.0000 0.20987  0.86933  0.47733  Biso   1.000  C
  C56      1.0000 0.21177  0.89083  0.26133  Biso   1.000  C
  H14      1.0000 0.17367  0.80543  0.69933  Biso   1.000  H
  O40      1.0000 0.26437  0.89233  0.78433  Biso   1.000  O
  O41      1.0000 0.28377  0.96883  0.59533  Biso   1.000  O
  O42      1.0000 0.24967  0.94633  0.18133  Biso   1.000  O
  Cu15     1.0000 0.96283  0.35027  0.68067  Biso   1.000  Cu
  C57      1.0000 0.92063  0.24897  0.95667  Biso   1.000  C
  C58      1.0000 0.83523  0.14627  0.87467  Biso   1.000  C
  C59      1.0000 0.87653  0.20267  0.81067  Biso   1.000  C
  C60      1.0000 0.87843  0.22417  0.59467  Biso   1.000  C
  H15      1.0000 0.84033  0.13877  0.03267  Biso   1.000  H
  O43      1.0000 0.93103  0.22567  0.11767  Biso   1.000  O
  O44      1.0000 0.95043  0.30217  0.92867  Biso   1.000  O
  O45      1.0000 0.91633  0.27967  0.51467  Biso   1.000  O
  Cu16     1.0000 0.31640  0.94590  0.01400  Biso   1.000  Cu
  C61      1.0000 0.41770  0.00500  0.29000  Biso   1.000  C
  C62      1.0000 0.52040  0.02230  0.20800  Biso   1.000  C
  C63      1.0000 0.46400  0.00720  0.14400  Biso   1.000  C
  C64      1.0000 0.44250  0.98760  0.92800  Biso   1.000  C
  H16      1.0000 0.52790  0.03490  0.36600  Biso   1.000  H
  O46      1.0000 0.44100  0.03870  0.45100  Biso   1.000  O
  O47      1.0000 0.36450  0.98160  0.26200  Biso   1.000  O
  O48      1.0000 0.38700  0.97000  0.84800  Biso   1.000  O
  Cu17     1.0000 0.98307  0.27923  0.34733  Biso   1.000  Cu
  C65      1.0000 0.08437  0.33833  0.62333  Biso   1.000  C
  C66      1.0000 0.18707  0.35563  0.54133  Biso   1.000  C
  C67      1.0000 0.13067  0.34053  0.47733  Biso   1.000  C
  C68      1.0000 0.10917  0.32093  0.26133  Biso   1.000  C
  H17      1.0000 0.19457  0.36823  0.69933  Biso   1.000  H
  O49      1.0000 0.10767  0.37203  0.78433  Biso   1.000  O
  O50      1.0000 0.03117  0.31493  0.59533  Biso   1.000  O
  O51      1.0000 0.05367  0.30333  0.18133  Biso   1.000  O
  Cu18     1.0000 0.64973  0.61257  0.68067  Biso   1.000  Cu
  C69      1.0000 0.75103  0.67167  0.95667  Biso   1.000  C
  C70      1.0000 0.85373  0.68897  0.87467  Biso   1.000  C
  C71      1.0000 0.79733  0.67387  0.81067  Biso   1.000  C
  C72      1.0000 0.77583  0.65427  0.59467  Biso   1.000  C
  H18      1.0000 0.86123  0.70157  0.03267  Biso   1.000  H
  O52      1.0000 0.77433  0.70537  0.11767  Biso   1.000  O
  O53      1.0000 0.69783  0.64827  0.92867  Biso   1.000  O
  O54      1.0000 0.72033  0.63667  0.51467  Biso   1.000  O
