data_image0
_cell_length_a       12.514
_cell_length_b       15.767
_cell_length_c       16.171
_cell_angle_alpha    114.13
_cell_angle_beta     104.06
_cell_angle_gamma    103.72

_symmetry_space_group_name_H-M    P 1
_symmetry_int_tables_number       1

loop_
  _symmetry_equiv_pos_as_xyz
  'x, y, z'

loop_
  _atom_site_label
  _atom_site_occupancy
  _atom_site_fract_x
  _atom_site_fract_y
  _atom_site_fract_z
  _atom_site_thermal_displace_type
  _atom_site_B_iso_or_equiv
  _atom_site_type_symbol
  Pr1      1.0000 0.53441  0.89374  0.03187  Biso   1.000  Pr
  Pr2      1.0000 0.99719  0.97634  0.36568  Biso   1.000  Pr
  Pr3      1.0000 0.86863  0.36322  0.90212  Biso   1.000  Pr
  Pr4      1.0000 0.46559  0.10626  0.96813  Biso   1.000  Pr
  Pr5      1.0000 0.00281  0.02366  0.63432  Biso   1.000  Pr
  Pr6      1.0000 0.13137  0.63678  0.09788  Biso   1.000  Pr
  H1       1.0000 0.17950  0.43150  0.21240  Biso   1.000  H
  H2       1.0000 0.09030  0.43230  0.26440  Biso   1.000  H
  H3       1.0000 0.02660  0.29090  0.20970  Biso   1.000  H
  H4       1.0000 0.15090  0.30410  0.20310  Biso   1.000  H
  H5       1.0000 0.36900  0.90160  0.31490  Biso   1.000  H
  H6       1.0000 0.27230  0.92170  0.25270  Biso   1.000  H
  H7       1.0000 0.39310  0.06540  0.29200  Biso   1.000  H
  H8       1.0000 0.41930  0.06050  0.38900  Biso   1.000  H
  H9       1.0000 0.68700  0.19790  0.41120  Biso   1.000  H
  H10      1.0000 0.56450  0.20530  0.40730  Biso   1.000  H
  H11      1.0000 0.53130  0.21730  0.28840  Biso   1.000  H
  H12      1.0000 0.66950  0.26560  0.33340  Biso   1.000  H
  H13      1.0000 0.57330  0.01300  0.44030  Biso   1.000  H
  H14      1.0000 0.67070  0.11930  0.48210  Biso   1.000  H
  H15      1.0000 0.66570  0.93870  0.34700  Biso   1.000  H
  H16      1.0000 0.75670  0.04280  0.37540  Biso   1.000  H
  H17      1.0000 0.59520  0.66500  0.08900  Biso   1.000  H
  H18      1.0000 0.52400  0.72640  0.13620  Biso   1.000  H
  H19      1.0000 0.61150  0.73420  0.28190  Biso   1.000  H
  H20      1.0000 0.54670  0.62220  0.19760  Biso   1.000  H
  H21      1.0000 0.70440  0.58630  0.32300  Biso   1.000  H
  H22      1.0000 0.72200  0.69880  0.38630  Biso   1.000  H
  H23      1.0000 0.88940  0.66490  0.44630  Biso   1.000  H
  H24      1.0000 0.90830  0.64010  0.34780  Biso   1.000  H
  H25      1.0000 0.74970  0.53320  0.18810  Biso   1.000  H
  H26      1.0000 0.65230  0.54200  0.11340  Biso   1.000  H
  H27      1.0000 0.90000  0.65150  0.18200  Biso   1.000  H
  H28      1.0000 0.80220  0.65880  0.10630  Biso   1.000  H
  H29      1.0000 0.11930  0.12200  0.89950  Biso   1.000  H
  H30      1.0000 0.00300  0.06640  0.90600  Biso   1.000  H
  H31      1.0000 0.14530  0.16750  0.06280  Biso   1.000  H
  H32      1.0000 0.16990  0.26190  0.04870  Biso   1.000  H
  H33      1.0000 0.93620  0.07570  0.01600  Biso   1.000  H
  H34      1.0000 0.95280  0.13730  0.12590  Biso   1.000  H
  H35      1.0000 0.78700  0.12850  0.96870  Biso   1.000  H
  H36      1.0000 0.80380  0.19070  0.07840  Biso   1.000  H
  H37      1.0000 0.62930  0.74260  0.94200  Biso   1.000  H
  H38      1.0000 0.34850  0.72600  0.00490  Biso   1.000  H
  H39      1.0000 0.16060  0.08680  0.30960  Biso   1.000  H
  H40      1.0000 0.82710  0.99690  0.22650  Biso   1.000  H
  H41      1.0000 0.65320  0.31930  0.74620  Biso   1.000  H
  H42      1.0000 0.83450  0.27790  0.69870  Biso   1.000  H
  H43      1.0000 0.82050  0.56850  0.78760  Biso   1.000  H
  H44      1.0000 0.90970  0.56770  0.73560  Biso   1.000  H
  H45      1.0000 0.97340  0.70910  0.79030  Biso   1.000  H
  H46      1.0000 0.84910  0.69590  0.79690  Biso   1.000  H
  H47      1.0000 0.63100  0.09840  0.68510  Biso   1.000  H
  H48      1.0000 0.72770  0.07830  0.74730  Biso   1.000  H
  H49      1.0000 0.60690  0.93460  0.70800  Biso   1.000  H
  H50      1.0000 0.58070  0.93950  0.61100  Biso   1.000  H
  H51      1.0000 0.31300  0.80210  0.58880  Biso   1.000  H
  H52      1.0000 0.43550  0.79470  0.59270  Biso   1.000  H
  H53      1.0000 0.46870  0.78270  0.71160  Biso   1.000  H
  H54      1.0000 0.33050  0.73440  0.66660  Biso   1.000  H
  H55      1.0000 0.42670  0.98700  0.55970  Biso   1.000  H
  H56      1.0000 0.32930  0.88070  0.51790  Biso   1.000  H
  H57      1.0000 0.33430  0.06130  0.65300  Biso   1.000  H
  H58      1.0000 0.24330  0.95720  0.62460  Biso   1.000  H
  H59      1.0000 0.40480  0.33500  0.91100  Biso   1.000  H
  H60      1.0000 0.47600  0.27360  0.86380  Biso   1.000  H
  H61      1.0000 0.38850  0.26580  0.71810  Biso   1.000  H
  H62      1.0000 0.45330  0.37780  0.80240  Biso   1.000  H
  H63      1.0000 0.29560  0.41370  0.67700  Biso   1.000  H
  H64      1.0000 0.27800  0.30120  0.61370  Biso   1.000  H
  H65      1.0000 0.11060  0.33510  0.55370  Biso   1.000  H
  H66      1.0000 0.09170  0.35990  0.65220  Biso   1.000  H
  H67      1.0000 0.25030  0.46680  0.81190  Biso   1.000  H
  H68      1.0000 0.34770  0.45800  0.88660  Biso   1.000  H
  H69      1.0000 0.10000  0.34850  0.81800  Biso   1.000  H
  H70      1.0000 0.19780  0.34120  0.89370  Biso   1.000  H
  H71      1.0000 0.88070  0.87800  0.10050  Biso   1.000  H
  H72      1.0000 0.99700  0.93360  0.09400  Biso   1.000  H
  H73      1.0000 0.85470  0.83250  0.93720  Biso   1.000  H
  H74      1.0000 0.83010  0.73810  0.95130  Biso   1.000  H
  H75      1.0000 0.06380  0.92430  0.98400  Biso   1.000  H
  H76      1.0000 0.04720  0.86270  0.87410  Biso   1.000  H
  H77      1.0000 0.21300  0.87150  0.03130  Biso   1.000  H
  H78      1.0000 0.19620  0.80930  0.92160  Biso   1.000  H
  H79      1.0000 0.37070  0.25740  0.05800  Biso   1.000  H
  H80      1.0000 0.65150  0.27400  0.99510  Biso   1.000  H
  H81      1.0000 0.83940  0.91320  0.69040  Biso   1.000  H
  H82      1.0000 0.17290  0.00310  0.77350  Biso   1.000  H
  H83      1.0000 0.34680  0.68070  0.25380  Biso   1.000  H
  H84      1.0000 0.16550  0.72210  0.30130  Biso   1.000  H
  C1       1.0000 0.09600  0.40200  0.20080  Biso   1.000  C
  C2       1.0000 0.07500  0.30760  0.17570  Biso   1.000  C
  C3       1.0000 0.03260  0.44070  0.14420  Biso   1.000  C
  C4       1.0000 0.36980  0.86080  0.17710  Biso   1.000  C
  C5       1.0000 0.35500  0.92860  0.27100  Biso   1.000  C
  C6       1.0000 0.42670  0.03360  0.32580  Biso   1.000  C
  C7       1.0000 0.60410  0.17090  0.36800  Biso   1.000  C
  C8       1.0000 0.60230  0.20220  0.30080  Biso   1.000  C
  C9       1.0000 0.60490  0.14160  0.20270  Biso   1.000  C
  C10      1.0000 0.62690  0.05350  0.42420  Biso   1.000  C
  C11      1.0000 0.71060  0.00740  0.39990  Biso   1.000  C
  C12      1.0000 0.79530  0.00580  0.48190  Biso   1.000  C
  C13      1.0000 0.69900  0.81600  0.17960  Biso   1.000  C
  C14      1.0000 0.59930  0.71770  0.14950  Biso   1.000  C
  C15      1.0000 0.61360  0.68410  0.22300  Biso   1.000  C
  C16      1.0000 0.74960  0.65500  0.34190  Biso   1.000  C
  C17      1.0000 0.87920  0.68050  0.39350  Biso   1.000  C
  C18      1.0000 0.95110  0.79160  0.43510  Biso   1.000  C
  C19      1.0000 0.73030  0.57850  0.16620  Biso   1.000  C
  C20      1.0000 0.82230  0.61410  0.12880  Biso   1.000  C
  C21      1.0000 0.82690  0.52730  0.04650  Biso   1.000  C
  C22      1.0000 0.98530  0.16600  0.86040  Biso   1.000  C
  C23      1.0000 0.05480  0.13160  0.92060  Biso   1.000  C
  C24      1.0000 0.10820  0.20040  0.03220  Biso   1.000  C
  C25      1.0000 0.93130  0.13560  0.06320  Biso   1.000  C
  C26      1.0000 0.80780  0.13010  0.03130  Biso   1.000  C
  C27      1.0000 0.71750  0.04100  0.02090  Biso   1.000  C
  C28      1.0000 0.90400  0.59800  0.79920  Biso   1.000  C
  C29      1.0000 0.92500  0.69240  0.82430  Biso   1.000  C
  C30      1.0000 0.96740  0.55930  0.85580  Biso   1.000  C
  C31      1.0000 0.63020  0.13920  0.82290  Biso   1.000  C
  C32      1.0000 0.64500  0.07140  0.72900  Biso   1.000  C
  C33      1.0000 0.57330  0.96640  0.67420  Biso   1.000  C
  C34      1.0000 0.39590  0.82910  0.63200  Biso   1.000  C
  C35      1.0000 0.39770  0.79780  0.69920  Biso   1.000  C
  C36      1.0000 0.39510  0.85840  0.79730  Biso   1.000  C
  C37      1.0000 0.37310  0.94650  0.57580  Biso   1.000  C
  C38      1.0000 0.28940  0.99260  0.60010  Biso   1.000  C
  C39      1.0000 0.20470  0.99420  0.51810  Biso   1.000  C
  C40      1.0000 0.30100  0.18400  0.82040  Biso   1.000  C
  C41      1.0000 0.40070  0.28230  0.85050  Biso   1.000  C
  C42      1.0000 0.38640  0.31590  0.77700  Biso   1.000  C
  C43      1.0000 0.25040  0.34500  0.65810  Biso   1.000  C
  C44      1.0000 0.12080  0.31950  0.60650  Biso   1.000  C
  C45      1.0000 0.04890  0.20840  0.56490  Biso   1.000  C
  C46      1.0000 0.26970  0.42150  0.83380  Biso   1.000  C
  C47      1.0000 0.17770  0.38590  0.87120  Biso   1.000  C
  C48      1.0000 0.17310  0.47270  0.95350  Biso   1.000  C
  C49      1.0000 0.01470  0.83400  0.13960  Biso   1.000  C
  C50      1.0000 0.94520  0.86840  0.07940  Biso   1.000  C
  C51      1.0000 0.89180  0.79960  0.96780  Biso   1.000  C
  C52      1.0000 0.06870  0.86440  0.93680  Biso   1.000  C
  C53      1.0000 0.19220  0.86990  0.96870  Biso   1.000  C
  C54      1.0000 0.28250  0.95900  0.97910  Biso   1.000  C
  N1       1.0000 0.55500  0.06470  0.34400  Biso   1.000  N
  N2       1.0000 0.72800  0.66680  0.25000  Biso   1.000  N
  N3       1.0000 0.01790  0.22610  0.07310  Biso   1.000  N
  N4       1.0000 0.44500  0.93530  0.65600  Biso   1.000  N
  N5       1.0000 0.27200  0.33320  0.75000  Biso   1.000  N
  N6       1.0000 0.98210  0.77390  0.92690  Biso   1.000  N
  O1       1.0000 0.45680  0.89460  0.16180  Biso   1.000  O
  O2       1.0000 0.62130  0.06180  0.18550  Biso   1.000  O
  O3       1.0000 0.74730  0.98920  0.05440  Biso   1.000  O
  O4       1.0000 0.67720  0.86640  0.13870  Biso   1.000  O
  O5       1.0000 0.60440  0.77370  0.91720  Biso   1.000  O
  O6       1.0000 0.38250  0.72380  0.96710  Biso   1.000  O
  O7       1.0000 0.59100  0.17620  0.14530  Biso   1.000  O
  O8       1.0000 0.60670  0.02190  0.97720  Biso   1.000  O
  O9       1.0000 0.87050  0.96730  0.46050  Biso   1.000  O
  O10      1.0000 0.79730  0.84100  0.24200  Biso   1.000  O
  O11      1.0000 0.96440  0.81800  0.37420  Biso   1.000  O
  O12      1.0000 0.79520  0.04020  0.56430  Biso   1.000  O
  O13      1.0000 0.16590  0.10400  0.36620  Biso   1.000  O
  O14      1.0000 0.98500  0.84860  0.52630  Biso   1.000  O
  O15      1.0000 0.89180  0.04100  0.26730  Biso   1.000  O
  O16      1.0000 0.95240  0.23560  0.90210  Biso   1.000  O
  O17      1.0000 0.29530  0.77290  0.12270  Biso   1.000  O
  O18      1.0000 0.94370  0.37790  0.06770  Biso   1.000  O
  O19      1.0000 0.75210  0.44040  0.00690  Biso   1.000  O
  O20      1.0000 0.68600  0.37080  0.79970  Biso   1.000  O
  O21      1.0000 0.07120  0.53340  0.17640  Biso   1.000  O
  O22      1.0000 0.85160  0.25270  0.73300  Biso   1.000  O
  O23      1.0000 0.91380  0.54590  0.01960  Biso   1.000  O
  O24      1.0000 0.96180  0.12340  0.77100  Biso   1.000  O
  O25      1.0000 0.54320  0.10540  0.83820  Biso   1.000  O
  O26      1.0000 0.37870  0.93820  0.81450  Biso   1.000  O
  O27      1.0000 0.25270  0.01080  0.94560  Biso   1.000  O
  O28      1.0000 0.32280  0.13360  0.86130  Biso   1.000  O
  O29      1.0000 0.39560  0.22630  0.08280  Biso   1.000  O
  O30      1.0000 0.61750  0.27620  0.03290  Biso   1.000  O
  O31      1.0000 0.40900  0.82380  0.85470  Biso   1.000  O
  O32      1.0000 0.39330  0.97810  0.02280  Biso   1.000  O
  O33      1.0000 0.12950  0.03270  0.53950  Biso   1.000  O
  O34      1.0000 0.20270  0.15900  0.75800  Biso   1.000  O
  O35      1.0000 0.03560  0.18200  0.62580  Biso   1.000  O
  O36      1.0000 0.20480  0.95980  0.43570  Biso   1.000  O
  O37      1.0000 0.83410  0.89600  0.63380  Biso   1.000  O
  O38      1.0000 0.01500  0.15140  0.47370  Biso   1.000  O
  O39      1.0000 0.10820  0.95900  0.73270  Biso   1.000  O
  O40      1.0000 0.04760  0.76440  0.09790  Biso   1.000  O
  O41      1.0000 0.70470  0.22710  0.87730  Biso   1.000  O
  O42      1.0000 0.05630  0.62210  0.93230  Biso   1.000  O
  O43      1.0000 0.24790  0.55960  0.99310  Biso   1.000  O
  O44      1.0000 0.31400  0.62920  0.20030  Biso   1.000  O
  O45      1.0000 0.92880  0.46660  0.82360  Biso   1.000  O
  O46      1.0000 0.14840  0.74730  0.26700  Biso   1.000  O
  O47      1.0000 0.08620  0.45410  0.98040  Biso   1.000  O
  O48      1.0000 0.03820  0.87660  0.22900  Biso   1.000  O
