data_image0
_cell_length_a       26.5068
_cell_length_b       26.5068
_cell_length_c       26.5068
_cell_angle_alpha    90
_cell_angle_beta     90
_cell_angle_gamma    90

_symmetry_space_group_name_H-M    "P 1"
_symmetry_int_tables_number       1

loop_
  _symmetry_equiv_pos_as_xyz
  'x, y, z'

loop_
  _atom_site_label
  _atom_site_occupancy
  _atom_site_fract_x
  _atom_site_fract_y
  _atom_site_fract_z
  _atom_site_thermal_displace_type
  _atom_site_B_iso_or_equiv
  _atom_site_type_symbol
  O1       1.0000 0.22976  0.29603  0.04732  Biso   1.000  O
  O2       1.0000 0.35850  0.28950  0.10500  Biso   1.000  O
  O3       1.0000 0.22410  0.39770  0.95130  Biso   1.000  O
  O4       1.0000 0.72976  0.79603  0.54732  Biso   1.000  O
  O5       1.0000 0.85850  0.78950  0.60500  Biso   1.000  O
  O6       1.0000 0.72410  0.89770  0.45130  Biso   1.000  O
  O7       1.0000 0.77024  0.70397  0.04732  Biso   1.000  O
  O8       1.0000 0.64150  0.71050  0.10500  Biso   1.000  O
  O9       1.0000 0.77590  0.60230  0.95130  Biso   1.000  O
  O10      1.0000 0.27024  0.20397  0.54732  Biso   1.000  O
  O11      1.0000 0.14150  0.21050  0.60500  Biso   1.000  O
  O12      1.0000 0.27590  0.10230  0.45130  Biso   1.000  O
  O13      1.0000 0.77024  0.29603  0.95268  Biso   1.000  O
  O14      1.0000 0.64150  0.28950  0.89500  Biso   1.000  O
  O15      1.0000 0.77590  0.39770  0.04870  Biso   1.000  O
  O16      1.0000 0.27024  0.79603  0.45268  Biso   1.000  O
  O17      1.0000 0.14150  0.78950  0.39500  Biso   1.000  O
  O18      1.0000 0.27590  0.89770  0.54870  Biso   1.000  O
  O19      1.0000 0.22976  0.70397  0.95268  Biso   1.000  O
  O20      1.0000 0.35850  0.71050  0.89500  Biso   1.000  O
  O21      1.0000 0.22410  0.60230  0.04870  Biso   1.000  O
  O22      1.0000 0.72976  0.20397  0.45268  Biso   1.000  O
  O23      1.0000 0.85850  0.21050  0.39500  Biso   1.000  O
  O24      1.0000 0.72410  0.10230  0.54870  Biso   1.000  O
  O25      1.0000 0.04732  0.22976  0.29603  Biso   1.000  O
  O26      1.0000 0.10500  0.35850  0.28950  Biso   1.000  O
  O27      1.0000 0.95130  0.22410  0.39770  Biso   1.000  O
  O28      1.0000 0.54732  0.72976  0.79603  Biso   1.000  O
  O29      1.0000 0.60500  0.85850  0.78950  Biso   1.000  O
  O30      1.0000 0.45130  0.72410  0.89770  Biso   1.000  O
  O31      1.0000 0.04732  0.77024  0.70397  Biso   1.000  O
  O32      1.0000 0.10500  0.64150  0.71050  Biso   1.000  O
  O33      1.0000 0.95130  0.77590  0.60230  Biso   1.000  O
  O34      1.0000 0.54732  0.27024  0.20397  Biso   1.000  O
  O35      1.0000 0.60500  0.14150  0.21050  Biso   1.000  O
  O36      1.0000 0.45130  0.27590  0.10230  Biso   1.000  O
  O37      1.0000 0.95268  0.77024  0.29603  Biso   1.000  O
  O38      1.0000 0.89500  0.64150  0.28950  Biso   1.000  O
  O39      1.0000 0.04870  0.77590  0.39770  Biso   1.000  O
  O40      1.0000 0.45268  0.27024  0.79603  Biso   1.000  O
  O41      1.0000 0.39500  0.14150  0.78950  Biso   1.000  O
  O42      1.0000 0.54870  0.27590  0.89770  Biso   1.000  O
  O43      1.0000 0.95268  0.22976  0.70397  Biso   1.000  O
  O44      1.0000 0.89500  0.35850  0.71050  Biso   1.000  O
  O45      1.0000 0.04870  0.22410  0.60230  Biso   1.000  O
  O46      1.0000 0.45268  0.72976  0.20397  Biso   1.000  O
  O47      1.0000 0.39500  0.85850  0.21050  Biso   1.000  O
  O48      1.0000 0.54870  0.72410  0.10230  Biso   1.000  O
  O49      1.0000 0.29603  0.04732  0.22976  Biso   1.000  O
  O50      1.0000 0.28950  0.10500  0.35850  Biso   1.000  O
  O51      1.0000 0.39770  0.95130  0.22410  Biso   1.000  O
  O52      1.0000 0.79603  0.54732  0.72976  Biso   1.000  O
  O53      1.0000 0.78950  0.60500  0.85850  Biso   1.000  O
  O54      1.0000 0.89770  0.45130  0.72410  Biso   1.000  O
  O55      1.0000 0.70397  0.04732  0.77024  Biso   1.000  O
  O56      1.0000 0.71050  0.10500  0.64150  Biso   1.000  O
  O57      1.0000 0.60230  0.95130  0.77590  Biso   1.000  O
  O58      1.0000 0.20397  0.54732  0.27024  Biso   1.000  O
  O59      1.0000 0.21050  0.60500  0.14150  Biso   1.000  O
  O60      1.0000 0.10230  0.45130  0.27590  Biso   1.000  O
  O61      1.0000 0.29603  0.95268  0.77024  Biso   1.000  O
  O62      1.0000 0.28950  0.89500  0.64150  Biso   1.000  O
  O63      1.0000 0.39770  0.04870  0.77590  Biso   1.000  O
  O64      1.0000 0.79603  0.45268  0.27024  Biso   1.000  O
  O65      1.0000 0.78950  0.39500  0.14150  Biso   1.000  O
  O66      1.0000 0.89770  0.54870  0.27590  Biso   1.000  O
  O67      1.0000 0.70397  0.95268  0.22976  Biso   1.000  O
  O68      1.0000 0.71050  0.89500  0.35850  Biso   1.000  O
  O69      1.0000 0.60230  0.04870  0.22410  Biso   1.000  O
  O70      1.0000 0.20397  0.45268  0.72976  Biso   1.000  O
  O71      1.0000 0.21050  0.39500  0.85850  Biso   1.000  O
  O72      1.0000 0.10230  0.54870  0.72410  Biso   1.000  O
  O73      1.0000 0.29603  0.22976  0.95268  Biso   1.000  O
  O74      1.0000 0.28950  0.35850  0.89500  Biso   1.000  O
  O75      1.0000 0.39770  0.22410  0.04870  Biso   1.000  O
  O76      1.0000 0.79603  0.72976  0.45268  Biso   1.000  O
  O77      1.0000 0.78950  0.85850  0.39500  Biso   1.000  O
  O78      1.0000 0.89770  0.72410  0.54870  Biso   1.000  O
  O79      1.0000 0.70397  0.77024  0.95268  Biso   1.000  O
  O80      1.0000 0.71050  0.64150  0.89500  Biso   1.000  O
  O81      1.0000 0.60230  0.77590  0.04870  Biso   1.000  O
  O82      1.0000 0.20397  0.27024  0.45268  Biso   1.000  O
  O83      1.0000 0.21050  0.14150  0.39500  Biso   1.000  O
  O84      1.0000 0.10230  0.27590  0.54870  Biso   1.000  O
  O85      1.0000 0.29603  0.77024  0.04732  Biso   1.000  O
  O86      1.0000 0.28950  0.64150  0.10500  Biso   1.000  O
  O87      1.0000 0.39770  0.77590  0.95130  Biso   1.000  O
  O88      1.0000 0.79603  0.27024  0.54732  Biso   1.000  O
  O89      1.0000 0.78950  0.14150  0.60500  Biso   1.000  O
  O90      1.0000 0.89770  0.27590  0.45130  Biso   1.000  O
  O91      1.0000 0.70397  0.22976  0.04732  Biso   1.000  O
  O92      1.0000 0.71050  0.35850  0.10500  Biso   1.000  O
  O93      1.0000 0.60230  0.22410  0.95130  Biso   1.000  O
  O94      1.0000 0.20397  0.72976  0.54732  Biso   1.000  O
  O95      1.0000 0.21050  0.85850  0.60500  Biso   1.000  O
  O96      1.0000 0.10230  0.72410  0.45130  Biso   1.000  O
  O97      1.0000 0.22976  0.04732  0.70397  Biso   1.000  O
  O98      1.0000 0.35850  0.10500  0.71050  Biso   1.000  O
  O99      1.0000 0.22410  0.95130  0.60230  Biso   1.000  O
  O100     1.0000 0.72976  0.54732  0.20397  Biso   1.000  O
  O101     1.0000 0.85850  0.60500  0.21050  Biso   1.000  O
  O102     1.0000 0.72410  0.45130  0.10230  Biso   1.000  O
  O103     1.0000 0.77024  0.04732  0.29603  Biso   1.000  O
  O104     1.0000 0.64150  0.10500  0.28950  Biso   1.000  O
  O105     1.0000 0.77590  0.95130  0.39770  Biso   1.000  O
  O106     1.0000 0.27024  0.54732  0.79603  Biso   1.000  O
  O107     1.0000 0.14150  0.60500  0.78950  Biso   1.000  O
  O108     1.0000 0.27590  0.45130  0.89770  Biso   1.000  O
  O109     1.0000 0.77024  0.95268  0.70397  Biso   1.000  O
  O110     1.0000 0.64150  0.89500  0.71050  Biso   1.000  O
  O111     1.0000 0.77590  0.04870  0.60230  Biso   1.000  O
  O112     1.0000 0.27024  0.45268  0.20397  Biso   1.000  O
  O113     1.0000 0.14150  0.39500  0.21050  Biso   1.000  O
  O114     1.0000 0.27590  0.54870  0.10230  Biso   1.000  O
  O115     1.0000 0.22976  0.95268  0.29603  Biso   1.000  O
  O116     1.0000 0.35850  0.89500  0.28950  Biso   1.000  O
  O117     1.0000 0.22410  0.04870  0.39770  Biso   1.000  O
  O118     1.0000 0.72976  0.45268  0.79603  Biso   1.000  O
  O119     1.0000 0.85850  0.39500  0.78950  Biso   1.000  O
  O120     1.0000 0.72410  0.54870  0.89770  Biso   1.000  O
  O121     1.0000 0.04732  0.29603  0.77024  Biso   1.000  O
  O122     1.0000 0.10500  0.28950  0.64150  Biso   1.000  O
  O123     1.0000 0.95130  0.39770  0.77590  Biso   1.000  O
  O124     1.0000 0.54732  0.79603  0.27024  Biso   1.000  O
  O125     1.0000 0.60500  0.78950  0.14150  Biso   1.000  O
  O126     1.0000 0.45130  0.89770  0.27590  Biso   1.000  O
  O127     1.0000 0.04732  0.70397  0.22976  Biso   1.000  O
  O128     1.0000 0.10500  0.71050  0.35850  Biso   1.000  O
  O129     1.0000 0.95130  0.60230  0.22410  Biso   1.000  O
  O130     1.0000 0.54732  0.20397  0.72976  Biso   1.000  O
  O131     1.0000 0.60500  0.21050  0.85850  Biso   1.000  O
  O132     1.0000 0.45130  0.10230  0.72410  Biso   1.000  O
  O133     1.0000 0.95268  0.29603  0.22976  Biso   1.000  O
  O134     1.0000 0.89500  0.28950  0.35850  Biso   1.000  O
  O135     1.0000 0.04870  0.39770  0.22410  Biso   1.000  O
  O136     1.0000 0.45268  0.79603  0.72976  Biso   1.000  O
  O137     1.0000 0.39500  0.78950  0.85850  Biso   1.000  O
  O138     1.0000 0.54870  0.89770  0.72410  Biso   1.000  O
  O139     1.0000 0.95268  0.70397  0.77024  Biso   1.000  O
  O140     1.0000 0.89500  0.71050  0.64150  Biso   1.000  O
  O141     1.0000 0.04870  0.60230  0.77590  Biso   1.000  O
  O142     1.0000 0.45268  0.20397  0.27024  Biso   1.000  O
  O143     1.0000 0.39500  0.21050  0.14150  Biso   1.000  O
  O144     1.0000 0.54870  0.10230  0.27590  Biso   1.000  O
  O145     1.0000 0.77024  0.70397  0.95268  Biso   1.000  O
  O146     1.0000 0.64150  0.71050  0.89500  Biso   1.000  O
  O147     1.0000 0.77590  0.60230  0.04870  Biso   1.000  O
  O148     1.0000 0.27024  0.20397  0.45268  Biso   1.000  O
  O149     1.0000 0.14150  0.21050  0.39500  Biso   1.000  O
  O150     1.0000 0.27590  0.10230  0.54870  Biso   1.000  O
  O151     1.0000 0.22976  0.29603  0.95268  Biso   1.000  O
  O152     1.0000 0.35850  0.28950  0.89500  Biso   1.000  O
  O153     1.0000 0.22410  0.39770  0.04870  Biso   1.000  O
  O154     1.0000 0.72976  0.79603  0.45268  Biso   1.000  O
  O155     1.0000 0.85850  0.78950  0.39500  Biso   1.000  O
  O156     1.0000 0.72410  0.89770  0.54870  Biso   1.000  O
  O157     1.0000 0.22976  0.70397  0.04732  Biso   1.000  O
  O158     1.0000 0.35850  0.71050  0.10500  Biso   1.000  O
  O159     1.0000 0.22410  0.60230  0.95130  Biso   1.000  O
  O160     1.0000 0.72976  0.20397  0.54732  Biso   1.000  O
  O161     1.0000 0.85850  0.21050  0.60500  Biso   1.000  O
  O162     1.0000 0.72410  0.10230  0.45130  Biso   1.000  O
  O163     1.0000 0.77024  0.29603  0.04732  Biso   1.000  O
  O164     1.0000 0.64150  0.28950  0.10500  Biso   1.000  O
  O165     1.0000 0.77590  0.39770  0.95130  Biso   1.000  O
  O166     1.0000 0.27024  0.79603  0.54732  Biso   1.000  O
  O167     1.0000 0.14150  0.78950  0.60500  Biso   1.000  O
  O168     1.0000 0.27590  0.89770  0.45130  Biso   1.000  O
  O169     1.0000 0.95268  0.77024  0.70397  Biso   1.000  O
  O170     1.0000 0.89500  0.64150  0.71050  Biso   1.000  O
  O171     1.0000 0.04870  0.77590  0.60230  Biso   1.000  O
  O172     1.0000 0.45268  0.27024  0.20397  Biso   1.000  O
  O173     1.0000 0.39500  0.14150  0.21050  Biso   1.000  O
  O174     1.0000 0.54870  0.27590  0.10230  Biso   1.000  O
  O175     1.0000 0.95268  0.22976  0.29603  Biso   1.000  O
  O176     1.0000 0.89500  0.35850  0.28950  Biso   1.000  O
  O177     1.0000 0.04870  0.22410  0.39770  Biso   1.000  O
  O178     1.0000 0.45268  0.72976  0.79603  Biso   1.000  O
  O179     1.0000 0.39500  0.85850  0.78950  Biso   1.000  O
  O180     1.0000 0.54870  0.72410  0.89770  Biso   1.000  O
  O181     1.0000 0.04732  0.22976  0.70397  Biso   1.000  O
  O182     1.0000 0.10500  0.35850  0.71050  Biso   1.000  O
  O183     1.0000 0.95130  0.22410  0.60230  Biso   1.000  O
  O184     1.0000 0.54732  0.72976  0.20397  Biso   1.000  O
  O185     1.0000 0.60500  0.85850  0.21050  Biso   1.000  O
  O186     1.0000 0.45130  0.72410  0.10230  Biso   1.000  O
  O187     1.0000 0.04732  0.77024  0.29603  Biso   1.000  O
  O188     1.0000 0.10500  0.64150  0.28950  Biso   1.000  O
  O189     1.0000 0.95130  0.77590  0.39770  Biso   1.000  O
  O190     1.0000 0.54732  0.27024  0.79603  Biso   1.000  O
  O191     1.0000 0.60500  0.14150  0.78950  Biso   1.000  O
  O192     1.0000 0.45130  0.27590  0.89770  Biso   1.000  O
  O193     1.0000 0.70397  0.95268  0.77024  Biso   1.000  O
  O194     1.0000 0.71050  0.89500  0.64150  Biso   1.000  O
  O195     1.0000 0.60230  0.04870  0.77590  Biso   1.000  O
  O196     1.0000 0.20397  0.45268  0.27024  Biso   1.000  O
  O197     1.0000 0.21050  0.39500  0.14150  Biso   1.000  O
  O198     1.0000 0.10230  0.54870  0.27590  Biso   1.000  O
  O199     1.0000 0.29603  0.95268  0.22976  Biso   1.000  O
  O200     1.0000 0.28950  0.89500  0.35850  Biso   1.000  O
  O201     1.0000 0.39770  0.04870  0.22410  Biso   1.000  O
  O202     1.0000 0.79603  0.45268  0.72976  Biso   1.000  O
  O203     1.0000 0.78950  0.39500  0.85850  Biso   1.000  O
  O204     1.0000 0.89770  0.54870  0.72410  Biso   1.000  O
  O205     1.0000 0.70397  0.04732  0.22976  Biso   1.000  O
  O206     1.0000 0.71050  0.10500  0.35850  Biso   1.000  O
  O207     1.0000 0.60230  0.95130  0.22410  Biso   1.000  O
  O208     1.0000 0.20397  0.54732  0.72976  Biso   1.000  O
  O209     1.0000 0.21050  0.60500  0.85850  Biso   1.000  O
  O210     1.0000 0.10230  0.45130  0.72410  Biso   1.000  O
  O211     1.0000 0.29603  0.04732  0.77024  Biso   1.000  O
  O212     1.0000 0.28950  0.10500  0.64150  Biso   1.000  O
  O213     1.0000 0.39770  0.95130  0.77590  Biso   1.000  O
  O214     1.0000 0.79603  0.54732  0.27024  Biso   1.000  O
  O215     1.0000 0.78950  0.60500  0.14150  Biso   1.000  O
  O216     1.0000 0.89770  0.45130  0.27590  Biso   1.000  O
  O217     1.0000 0.70397  0.77024  0.04732  Biso   1.000  O
  O218     1.0000 0.71050  0.64150  0.10500  Biso   1.000  O
  O219     1.0000 0.60230  0.77590  0.95130  Biso   1.000  O
  O220     1.0000 0.20397  0.27024  0.54732  Biso   1.000  O
  O221     1.0000 0.21050  0.14150  0.60500  Biso   1.000  O
  O222     1.0000 0.10230  0.27590  0.45130  Biso   1.000  O
  O223     1.0000 0.29603  0.22976  0.04732  Biso   1.000  O
  O224     1.0000 0.28950  0.35850  0.10500  Biso   1.000  O
  O225     1.0000 0.39770  0.22410  0.95130  Biso   1.000  O
  O226     1.0000 0.79603  0.72976  0.54732  Biso   1.000  O
  O227     1.0000 0.78950  0.85850  0.60500  Biso   1.000  O
  O228     1.0000 0.89770  0.72410  0.45130  Biso   1.000  O
  O229     1.0000 0.70397  0.22976  0.95268  Biso   1.000  O
  O230     1.0000 0.71050  0.35850  0.89500  Biso   1.000  O
  O231     1.0000 0.60230  0.22410  0.04870  Biso   1.000  O
  O232     1.0000 0.20397  0.72976  0.45268  Biso   1.000  O
  O233     1.0000 0.21050  0.85850  0.39500  Biso   1.000  O
  O234     1.0000 0.10230  0.72410  0.54870  Biso   1.000  O
  O235     1.0000 0.29603  0.77024  0.95268  Biso   1.000  O
  O236     1.0000 0.28950  0.64150  0.89500  Biso   1.000  O
  O237     1.0000 0.39770  0.77590  0.04870  Biso   1.000  O
  O238     1.0000 0.79603  0.27024  0.45268  Biso   1.000  O
  O239     1.0000 0.78950  0.14150  0.39500  Biso   1.000  O
  O240     1.0000 0.89770  0.27590  0.54870  Biso   1.000  O
  O241     1.0000 0.77024  0.95268  0.29603  Biso   1.000  O
  O242     1.0000 0.64150  0.89500  0.28950  Biso   1.000  O
  O243     1.0000 0.77590  0.04870  0.39770  Biso   1.000  O
  O244     1.0000 0.27024  0.45268  0.79603  Biso   1.000  O
  O245     1.0000 0.14150  0.39500  0.78950  Biso   1.000  O
  O246     1.0000 0.27590  0.54870  0.89770  Biso   1.000  O
  O247     1.0000 0.22976  0.95268  0.70397  Biso   1.000  O
  O248     1.0000 0.35850  0.89500  0.71050  Biso   1.000  O
  O249     1.0000 0.22410  0.04870  0.60230  Biso   1.000  O
  O250     1.0000 0.72976  0.45268  0.20397  Biso   1.000  O
  O251     1.0000 0.85850  0.39500  0.21050  Biso   1.000  O
  O252     1.0000 0.72410  0.54870  0.10230  Biso   1.000  O
  O253     1.0000 0.22976  0.04732  0.29603  Biso   1.000  O
  O254     1.0000 0.35850  0.10500  0.28950  Biso   1.000  O
  O255     1.0000 0.22410  0.95130  0.39770  Biso   1.000  O
  O256     1.0000 0.72976  0.54732  0.79603  Biso   1.000  O
  O257     1.0000 0.85850  0.60500  0.78950  Biso   1.000  O
  O258     1.0000 0.72410  0.45130  0.89770  Biso   1.000  O
  O259     1.0000 0.77024  0.04732  0.70397  Biso   1.000  O
  O260     1.0000 0.64150  0.10500  0.71050  Biso   1.000  O
  O261     1.0000 0.77590  0.95130  0.60230  Biso   1.000  O
  O262     1.0000 0.27024  0.54732  0.20397  Biso   1.000  O
  O263     1.0000 0.14150  0.60500  0.21050  Biso   1.000  O
  O264     1.0000 0.27590  0.45130  0.10230  Biso   1.000  O
  O265     1.0000 0.95268  0.70397  0.22976  Biso   1.000  O
  O266     1.0000 0.89500  0.71050  0.35850  Biso   1.000  O
  O267     1.0000 0.04870  0.60230  0.22410  Biso   1.000  O
  O268     1.0000 0.45268  0.20397  0.72976  Biso   1.000  O
  O269     1.0000 0.39500  0.21050  0.85850  Biso   1.000  O
  O270     1.0000 0.54870  0.10230  0.72410  Biso   1.000  O
  O271     1.0000 0.95268  0.29603  0.77024  Biso   1.000  O
  O272     1.0000 0.89500  0.28950  0.64150  Biso   1.000  O
  O273     1.0000 0.04870  0.39770  0.77590  Biso   1.000  O
  O274     1.0000 0.45268  0.79603  0.27024  Biso   1.000  O
  O275     1.0000 0.39500  0.78950  0.14150  Biso   1.000  O
  O276     1.0000 0.54870  0.89770  0.27590  Biso   1.000  O
  O277     1.0000 0.04732  0.70397  0.77024  Biso   1.000  O
  O278     1.0000 0.10500  0.71050  0.64150  Biso   1.000  O
  O279     1.0000 0.95130  0.60230  0.77590  Biso   1.000  O
  O280     1.0000 0.54732  0.20397  0.27024  Biso   1.000  O
  O281     1.0000 0.60500  0.21050  0.14150  Biso   1.000  O
  O282     1.0000 0.45130  0.10230  0.27590  Biso   1.000  O
  O283     1.0000 0.04732  0.29603  0.22976  Biso   1.000  O
  O284     1.0000 0.10500  0.28950  0.35850  Biso   1.000  O
  O285     1.0000 0.95130  0.39770  0.22410  Biso   1.000  O
  O286     1.0000 0.54732  0.79603  0.72976  Biso   1.000  O
  O287     1.0000 0.60500  0.78950  0.85850  Biso   1.000  O
  O288     1.0000 0.45130  0.89770  0.72410  Biso   1.000  O
  V1       1.0000 0.28579  0.28579  0.09440  Biso   1.000  V
  O289     1.0000 0.26190  0.26190  0.14380  Biso   1.000  O
  V2       1.0000 0.78579  0.78579  0.59440  Biso   1.000  V
  O290     1.0000 0.76190  0.76190  0.64380  Biso   1.000  O
  V3       1.0000 0.71421  0.71421  0.09440  Biso   1.000  V
  O291     1.0000 0.73810  0.73810  0.14380  Biso   1.000  O
  V4       1.0000 0.21421  0.21421  0.59440  Biso   1.000  V
  O292     1.0000 0.23810  0.23810  0.64380  Biso   1.000  O
  V5       1.0000 0.71421  0.28579  0.90560  Biso   1.000  V
  O293     1.0000 0.73810  0.26190  0.85620  Biso   1.000  O
  V6       1.0000 0.21421  0.78579  0.40560  Biso   1.000  V
  O294     1.0000 0.23810  0.76190  0.35620  Biso   1.000  O
  V7       1.0000 0.28579  0.71421  0.90560  Biso   1.000  V
  O295     1.0000 0.26190  0.73810  0.85620  Biso   1.000  O
  V8       1.0000 0.78579  0.21421  0.40560  Biso   1.000  V
  O296     1.0000 0.76190  0.23810  0.35620  Biso   1.000  O
  V9       1.0000 0.09440  0.28579  0.28579  Biso   1.000  V
  O297     1.0000 0.14380  0.26190  0.26190  Biso   1.000  O
  V10      1.0000 0.59440  0.78579  0.78579  Biso   1.000  V
  O298     1.0000 0.64380  0.76190  0.76190  Biso   1.000  O
  V11      1.0000 0.09440  0.71421  0.71421  Biso   1.000  V
  O299     1.0000 0.14380  0.73810  0.73810  Biso   1.000  O
  V12      1.0000 0.59440  0.21421  0.21421  Biso   1.000  V
  O300     1.0000 0.64380  0.23810  0.23810  Biso   1.000  O
  V13      1.0000 0.90560  0.71421  0.28579  Biso   1.000  V
  O301     1.0000 0.85620  0.73810  0.26190  Biso   1.000  O
  V14      1.0000 0.40560  0.21421  0.78579  Biso   1.000  V
  O302     1.0000 0.35620  0.23810  0.76190  Biso   1.000  O
  V15      1.0000 0.90560  0.28579  0.71421  Biso   1.000  V
  O303     1.0000 0.85620  0.26190  0.73810  Biso   1.000  O
  V16      1.0000 0.40560  0.78579  0.21421  Biso   1.000  V
  O304     1.0000 0.35620  0.76190  0.23810  Biso   1.000  O
  V17      1.0000 0.28579  0.09440  0.28579  Biso   1.000  V
  O305     1.0000 0.26190  0.14380  0.26190  Biso   1.000  O
  V18      1.0000 0.78579  0.59440  0.78579  Biso   1.000  V
  O306     1.0000 0.76190  0.64380  0.76190  Biso   1.000  O
  V19      1.0000 0.71421  0.09440  0.71421  Biso   1.000  V
  O307     1.0000 0.73810  0.14380  0.73810  Biso   1.000  O
  V20      1.0000 0.21421  0.59440  0.21421  Biso   1.000  V
  O308     1.0000 0.23810  0.64380  0.23810  Biso   1.000  O
  V21      1.0000 0.28579  0.90560  0.71421  Biso   1.000  V
  O309     1.0000 0.26190  0.85620  0.73810  Biso   1.000  O
  V22      1.0000 0.78579  0.40560  0.21421  Biso   1.000  V
  O310     1.0000 0.76190  0.35620  0.23810  Biso   1.000  O
  V23      1.0000 0.71421  0.90560  0.28579  Biso   1.000  V
  O311     1.0000 0.73810  0.85620  0.26190  Biso   1.000  O
  V24      1.0000 0.21421  0.40560  0.78579  Biso   1.000  V
  O312     1.0000 0.23810  0.35620  0.76190  Biso   1.000  O
  V25      1.0000 0.28579  0.28579  0.90560  Biso   1.000  V
  O313     1.0000 0.26190  0.26190  0.85620  Biso   1.000  O
  V26      1.0000 0.78579  0.78579  0.40560  Biso   1.000  V
  O314     1.0000 0.76190  0.76190  0.35620  Biso   1.000  O
  V27      1.0000 0.71421  0.71421  0.90560  Biso   1.000  V
  O315     1.0000 0.73810  0.73810  0.85620  Biso   1.000  O
  V28      1.0000 0.21421  0.21421  0.40560  Biso   1.000  V
  O316     1.0000 0.23810  0.23810  0.35620  Biso   1.000  O
  V29      1.0000 0.28579  0.71421  0.09440  Biso   1.000  V
  O317     1.0000 0.26190  0.73810  0.14380  Biso   1.000  O
  V30      1.0000 0.78579  0.21421  0.59440  Biso   1.000  V
  O318     1.0000 0.76190  0.23810  0.64380  Biso   1.000  O
  V31      1.0000 0.71421  0.28579  0.09440  Biso   1.000  V
  O319     1.0000 0.73810  0.26190  0.14380  Biso   1.000  O
  V32      1.0000 0.21421  0.78579  0.59440  Biso   1.000  V
  O320     1.0000 0.23810  0.76190  0.64380  Biso   1.000  O
  V33      1.0000 0.28579  0.09440  0.71421  Biso   1.000  V
  O321     1.0000 0.26190  0.14380  0.73810  Biso   1.000  O
  V34      1.0000 0.78579  0.59440  0.21421  Biso   1.000  V
  O322     1.0000 0.76190  0.64380  0.23810  Biso   1.000  O
  V35      1.0000 0.71421  0.09440  0.28579  Biso   1.000  V
  O323     1.0000 0.73810  0.14380  0.26190  Biso   1.000  O
  V36      1.0000 0.21421  0.59440  0.78579  Biso   1.000  V
  O324     1.0000 0.23810  0.64380  0.76190  Biso   1.000  O
  V37      1.0000 0.71421  0.90560  0.71421  Biso   1.000  V
  O325     1.0000 0.73810  0.85620  0.73810  Biso   1.000  O
  V38      1.0000 0.21421  0.40560  0.21421  Biso   1.000  V
  O326     1.0000 0.23810  0.35620  0.23810  Biso   1.000  O
  V39      1.0000 0.28579  0.90560  0.28579  Biso   1.000  V
  O327     1.0000 0.26190  0.85620  0.26190  Biso   1.000  O
  V40      1.0000 0.78579  0.40560  0.78579  Biso   1.000  V
  O328     1.0000 0.76190  0.35620  0.76190  Biso   1.000  O
  V41      1.0000 0.09440  0.28579  0.71421  Biso   1.000  V
  O329     1.0000 0.14380  0.26190  0.73810  Biso   1.000  O
  V42      1.0000 0.59440  0.78579  0.21421  Biso   1.000  V
  O330     1.0000 0.64380  0.76190  0.23810  Biso   1.000  O
  V43      1.0000 0.09440  0.71421  0.28579  Biso   1.000  V
  O331     1.0000 0.14380  0.73810  0.26190  Biso   1.000  O
  V44      1.0000 0.59440  0.21421  0.78579  Biso   1.000  V
  O332     1.0000 0.64380  0.23810  0.76190  Biso   1.000  O
  V45      1.0000 0.90560  0.28579  0.28579  Biso   1.000  V
  O333     1.0000 0.85620  0.26190  0.26190  Biso   1.000  O
  V46      1.0000 0.40560  0.78579  0.78579  Biso   1.000  V
  O334     1.0000 0.35620  0.76190  0.76190  Biso   1.000  O
  V47      1.0000 0.90560  0.71421  0.71421  Biso   1.000  V
  O335     1.0000 0.85620  0.73810  0.73810  Biso   1.000  O
  V48      1.0000 0.40560  0.21421  0.21421  Biso   1.000  V
  O336     1.0000 0.35620  0.23810  0.23810  Biso   1.000  O
  V49      1.0000 0.24572  0.24572  0.00000  Biso   1.000  V
  O337     1.0000 0.20300  0.20300  0.00000  Biso   1.000  O
  V50      1.0000 0.74572  0.74572  0.50000  Biso   1.000  V
  O338     1.0000 0.70300  0.70300  0.50000  Biso   1.000  O
  V51      1.0000 0.75428  0.75428  0.00000  Biso   1.000  V
  O339     1.0000 0.79700  0.79700  0.00000  Biso   1.000  O
  V52      1.0000 0.25428  0.25428  0.50000  Biso   1.000  V
  O340     1.0000 0.29700  0.29700  0.50000  Biso   1.000  O
  V53      1.0000 0.75428  0.24572  0.00000  Biso   1.000  V
  O341     1.0000 0.79700  0.20300  0.00000  Biso   1.000  O
  V54      1.0000 0.25428  0.74572  0.50000  Biso   1.000  V
  O342     1.0000 0.29700  0.70300  0.50000  Biso   1.000  O
  V55      1.0000 0.24572  0.75428  0.00000  Biso   1.000  V
  O343     1.0000 0.20300  0.79700  0.00000  Biso   1.000  O
  V56      1.0000 0.74572  0.25428  0.50000  Biso   1.000  V
  O344     1.0000 0.70300  0.29700  0.50000  Biso   1.000  O
  V57      1.0000 0.00000  0.24572  0.24572  Biso   1.000  V
  O345     1.0000 0.00000  0.20300  0.20300  Biso   1.000  O
  V58      1.0000 0.50000  0.74572  0.74572  Biso   1.000  V
  O346     1.0000 0.50000  0.70300  0.70300  Biso   1.000  O
  V59      1.0000 0.00000  0.75428  0.75428  Biso   1.000  V
  O347     1.0000 0.00000  0.79700  0.79700  Biso   1.000  O
  V60      1.0000 0.50000  0.25428  0.25428  Biso   1.000  V
  O348     1.0000 0.50000  0.29700  0.29700  Biso   1.000  O
  V61      1.0000 0.00000  0.75428  0.24572  Biso   1.000  V
  O349     1.0000 0.00000  0.79700  0.20300  Biso   1.000  O
  V62      1.0000 0.50000  0.25428  0.74572  Biso   1.000  V
  O350     1.0000 0.50000  0.29700  0.70300  Biso   1.000  O
  V63      1.0000 0.00000  0.24572  0.75428  Biso   1.000  V
  O351     1.0000 0.00000  0.20300  0.79700  Biso   1.000  O
  V64      1.0000 0.50000  0.74572  0.25428  Biso   1.000  V
  O352     1.0000 0.50000  0.70300  0.29700  Biso   1.000  O
  V65      1.0000 0.24572  0.00000  0.24572  Biso   1.000  V
  O353     1.0000 0.20300  0.00000  0.20300  Biso   1.000  O
  V66      1.0000 0.74572  0.50000  0.74572  Biso   1.000  V
  O354     1.0000 0.70300  0.50000  0.70300  Biso   1.000  O
  V67      1.0000 0.75428  0.00000  0.75428  Biso   1.000  V
  O355     1.0000 0.79700  0.00000  0.79700  Biso   1.000  O
  V68      1.0000 0.25428  0.50000  0.25428  Biso   1.000  V
  O356     1.0000 0.29700  0.50000  0.29700  Biso   1.000  O
  V69      1.0000 0.24572  0.00000  0.75428  Biso   1.000  V
  O357     1.0000 0.20300  0.00000  0.79700  Biso   1.000  O
  V70      1.0000 0.74572  0.50000  0.25428  Biso   1.000  V
  O358     1.0000 0.70300  0.50000  0.29700  Biso   1.000  O
  V71      1.0000 0.75428  0.00000  0.24572  Biso   1.000  V
  O359     1.0000 0.79700  0.00000  0.20300  Biso   1.000  O
  V72      1.0000 0.25428  0.50000  0.74572  Biso   1.000  V
  O360     1.0000 0.29700  0.50000  0.70300  Biso   1.000  O
  V73      1.0000 0.20591  0.34661  0.00000  Biso   1.000  V
  O361     1.0000 0.14660  0.34450  0.00000  Biso   1.000  O
  V74      1.0000 0.70591  0.84661  0.50000  Biso   1.000  V
  O362     1.0000 0.64660  0.84450  0.50000  Biso   1.000  O
  V75      1.0000 0.79409  0.65339  0.00000  Biso   1.000  V
  O363     1.0000 0.85340  0.65550  0.00000  Biso   1.000  O
  V76      1.0000 0.29409  0.15339  0.50000  Biso   1.000  V
  O364     1.0000 0.35340  0.15550  0.50000  Biso   1.000  O
  V77      1.0000 0.79409  0.34661  0.00000  Biso   1.000  V
  O365     1.0000 0.85340  0.34450  0.00000  Biso   1.000  O
  V78      1.0000 0.29409  0.84661  0.50000  Biso   1.000  V
  O366     1.0000 0.35340  0.84450  0.50000  Biso   1.000  O
  V79      1.0000 0.20591  0.65339  0.00000  Biso   1.000  V
  O367     1.0000 0.14660  0.65550  0.00000  Biso   1.000  O
  V80      1.0000 0.70591  0.15339  0.50000  Biso   1.000  V
  O368     1.0000 0.64660  0.15550  0.50000  Biso   1.000  O
  V81      1.0000 0.00000  0.20591  0.34661  Biso   1.000  V
  O369     1.0000 0.00000  0.14660  0.34450  Biso   1.000  O
  V82      1.0000 0.50000  0.70591  0.84661  Biso   1.000  V
  O370     1.0000 0.50000  0.64660  0.84450  Biso   1.000  O
  V83      1.0000 0.00000  0.79409  0.65339  Biso   1.000  V
  O371     1.0000 0.00000  0.85340  0.65550  Biso   1.000  O
  V84      1.0000 0.50000  0.29409  0.15339  Biso   1.000  V
  O372     1.0000 0.50000  0.35340  0.15550  Biso   1.000  O
  V85      1.0000 0.00000  0.79409  0.34661  Biso   1.000  V
  O373     1.0000 0.00000  0.85340  0.34450  Biso   1.000  O
  V86      1.0000 0.50000  0.29409  0.84661  Biso   1.000  V
  O374     1.0000 0.50000  0.35340  0.84450  Biso   1.000  O
  V87      1.0000 0.00000  0.20591  0.65339  Biso   1.000  V
  O375     1.0000 0.00000  0.14660  0.65550  Biso   1.000  O
  V88      1.0000 0.50000  0.70591  0.15339  Biso   1.000  V
  O376     1.0000 0.50000  0.64660  0.15550  Biso   1.000  O
  V89      1.0000 0.34661  0.00000  0.20591  Biso   1.000  V
  O377     1.0000 0.34450  0.00000  0.14660  Biso   1.000  O
  V90      1.0000 0.84661  0.50000  0.70591  Biso   1.000  V
  O378     1.0000 0.84450  0.50000  0.64660  Biso   1.000  O
  V91      1.0000 0.65339  0.00000  0.79409  Biso   1.000  V
  O379     1.0000 0.65550  0.00000  0.85340  Biso   1.000  O
  V92      1.0000 0.15339  0.50000  0.29409  Biso   1.000  V
  O380     1.0000 0.15550  0.50000  0.35340  Biso   1.000  O
  V93      1.0000 0.34661  0.00000  0.79409  Biso   1.000  V
  O381     1.0000 0.34450  0.00000  0.85340  Biso   1.000  O
  V94      1.0000 0.84661  0.50000  0.29409  Biso   1.000  V
  O382     1.0000 0.84450  0.50000  0.35340  Biso   1.000  O
  V95      1.0000 0.65339  0.00000  0.20591  Biso   1.000  V
  O383     1.0000 0.65550  0.00000  0.14660  Biso   1.000  O
  V96      1.0000 0.15339  0.50000  0.70591  Biso   1.000  V
  O384     1.0000 0.15550  0.50000  0.64660  Biso   1.000  O
  V97      1.0000 0.34661  0.20591  0.00000  Biso   1.000  V
  O385     1.0000 0.34450  0.14660  0.00000  Biso   1.000  O
  V98      1.0000 0.84661  0.70591  0.50000  Biso   1.000  V
  O386     1.0000 0.84450  0.64660  0.50000  Biso   1.000  O
  V99      1.0000 0.65339  0.79409  0.00000  Biso   1.000  V
  O387     1.0000 0.65550  0.85340  0.00000  Biso   1.000  O
  V100     1.0000 0.15339  0.29409  0.50000  Biso   1.000  V
  O388     1.0000 0.15550  0.35340  0.50000  Biso   1.000  O
  V101     1.0000 0.34661  0.79409  0.00000  Biso   1.000  V
  O389     1.0000 0.34450  0.85340  0.00000  Biso   1.000  O
  V102     1.0000 0.84661  0.29409  0.50000  Biso   1.000  V
  O390     1.0000 0.84450  0.35340  0.50000  Biso   1.000  O
  V103     1.0000 0.65339  0.20591  0.00000  Biso   1.000  V
  O391     1.0000 0.65550  0.14660  0.00000  Biso   1.000  O
  V104     1.0000 0.15339  0.70591  0.50000  Biso   1.000  V
  O392     1.0000 0.15550  0.64660  0.50000  Biso   1.000  O
  V105     1.0000 0.20591  0.00000  0.65339  Biso   1.000  V
  O393     1.0000 0.14660  0.00000  0.65550  Biso   1.000  O
  V106     1.0000 0.70591  0.50000  0.15339  Biso   1.000  V
  O394     1.0000 0.64660  0.50000  0.15550  Biso   1.000  O
  V107     1.0000 0.79409  0.00000  0.34661  Biso   1.000  V
  O395     1.0000 0.85340  0.00000  0.34450  Biso   1.000  O
  V108     1.0000 0.29409  0.50000  0.84661  Biso   1.000  V
  O396     1.0000 0.35340  0.50000  0.84450  Biso   1.000  O
  V109     1.0000 0.79409  0.00000  0.65339  Biso   1.000  V
  O397     1.0000 0.85340  0.00000  0.65550  Biso   1.000  O
  V110     1.0000 0.29409  0.50000  0.15339  Biso   1.000  V
  O398     1.0000 0.35340  0.50000  0.15550  Biso   1.000  O
  V111     1.0000 0.20591  0.00000  0.34661  Biso   1.000  V
  O399     1.0000 0.14660  0.00000  0.34450  Biso   1.000  O
  V112     1.0000 0.70591  0.50000  0.84661  Biso   1.000  V
  O400     1.0000 0.64660  0.50000  0.84450  Biso   1.000  O
  V113     1.0000 0.00000  0.34661  0.79409  Biso   1.000  V
  O401     1.0000 0.00000  0.34450  0.85340  Biso   1.000  O
  V114     1.0000 0.50000  0.84661  0.29409  Biso   1.000  V
  O402     1.0000 0.50000  0.84450  0.35340  Biso   1.000  O
  V115     1.0000 0.00000  0.65339  0.20591  Biso   1.000  V
  O403     1.0000 0.00000  0.65550  0.14660  Biso   1.000  O
  V116     1.0000 0.50000  0.15339  0.70591  Biso   1.000  V
  O404     1.0000 0.50000  0.15550  0.64660  Biso   1.000  O
  V117     1.0000 0.00000  0.34661  0.20591  Biso   1.000  V
  O405     1.0000 0.00000  0.34450  0.14660  Biso   1.000  O
  V118     1.0000 0.50000  0.84661  0.70591  Biso   1.000  V
  O406     1.0000 0.50000  0.84450  0.64660  Biso   1.000  O
  V119     1.0000 0.00000  0.65339  0.79409  Biso   1.000  V
  O407     1.0000 0.00000  0.65550  0.85340  Biso   1.000  O
  V120     1.0000 0.50000  0.15339  0.29409  Biso   1.000  V
  O408     1.0000 0.50000  0.15550  0.35340  Biso   1.000  O
  P1       1.0000 0.40019  0.25000  0.09981  Biso   1.000  P
  P2       1.0000 0.59981  0.75000  0.09981  Biso   1.000  P
  P3       1.0000 0.59981  0.25000  0.90019  Biso   1.000  P
  P4       1.0000 0.40019  0.75000  0.90019  Biso   1.000  P
  P5       1.0000 0.09981  0.40019  0.25000  Biso   1.000  P
  P6       1.0000 0.09981  0.59981  0.75000  Biso   1.000  P
  P7       1.0000 0.90019  0.59981  0.25000  Biso   1.000  P
  P8       1.0000 0.90019  0.40019  0.75000  Biso   1.000  P
  P9       1.0000 0.25000  0.09981  0.40019  Biso   1.000  P
  P10      1.0000 0.75000  0.09981  0.59981  Biso   1.000  P
  P11      1.0000 0.25000  0.90019  0.59981  Biso   1.000  P
  P12      1.0000 0.75000  0.90019  0.40019  Biso   1.000  P
  P13      1.0000 0.25000  0.40019  0.90019  Biso   1.000  P
  P14      1.0000 0.75000  0.59981  0.90019  Biso   1.000  P
  P15      1.0000 0.25000  0.59981  0.09981  Biso   1.000  P
  P16      1.0000 0.75000  0.40019  0.09981  Biso   1.000  P
  P17      1.0000 0.40019  0.09981  0.75000  Biso   1.000  P
  P18      1.0000 0.59981  0.09981  0.25000  Biso   1.000  P
  P19      1.0000 0.59981  0.90019  0.75000  Biso   1.000  P
  P20      1.0000 0.40019  0.90019  0.25000  Biso   1.000  P
  P21      1.0000 0.09981  0.25000  0.59981  Biso   1.000  P
  P22      1.0000 0.09981  0.75000  0.40019  Biso   1.000  P
  P23      1.0000 0.90019  0.25000  0.40019  Biso   1.000  P
  P24      1.0000 0.90019  0.75000  0.59981  Biso   1.000  P
  P25      1.0000 0.59981  0.75000  0.90019  Biso   1.000  P
  P26      1.0000 0.09981  0.25000  0.40019  Biso   1.000  P
  P27      1.0000 0.40019  0.25000  0.90019  Biso   1.000  P
  P28      1.0000 0.40019  0.75000  0.09981  Biso   1.000  P
  P29      1.0000 0.59981  0.25000  0.09981  Biso   1.000  P
  P30      1.0000 0.90019  0.59981  0.75000  Biso   1.000  P
  P31      1.0000 0.40019  0.09981  0.25000  Biso   1.000  P
  P32      1.0000 0.90019  0.40019  0.25000  Biso   1.000  P
  P33      1.0000 0.09981  0.40019  0.75000  Biso   1.000  P
  P34      1.0000 0.09981  0.59981  0.25000  Biso   1.000  P
  P35      1.0000 0.75000  0.90019  0.59981  Biso   1.000  P
  P36      1.0000 0.25000  0.40019  0.09981  Biso   1.000  P
  P37      1.0000 0.25000  0.90019  0.40019  Biso   1.000  P
  P38      1.0000 0.75000  0.09981  0.40019  Biso   1.000  P
  P39      1.0000 0.25000  0.09981  0.59981  Biso   1.000  P
  P40      1.0000 0.75000  0.59981  0.09981  Biso   1.000  P
  P41      1.0000 0.75000  0.40019  0.90019  Biso   1.000  P
  P42      1.0000 0.25000  0.59981  0.90019  Biso   1.000  P
  P43      1.0000 0.59981  0.90019  0.25000  Biso   1.000  P
  P44      1.0000 0.40019  0.90019  0.75000  Biso   1.000  P
  P45      1.0000 0.59981  0.09981  0.75000  Biso   1.000  P
  P46      1.0000 0.90019  0.75000  0.40019  Biso   1.000  P
  P47      1.0000 0.90019  0.25000  0.59981  Biso   1.000  P
  P48      1.0000 0.09981  0.75000  0.59981  Biso   1.000  P
