data_PADBAZ_charged
_audit_creation_date              2014-07-02
_audit_creation_method            'Materials Studio'
_symmetry_space_group_name_H-M    'P1'
_symmetry_Int_Tables_number       1
_symmetry_cell_setting            triclinic
loop_
_symmetry_equiv_pos_as_xyz
  x,y,z
_cell_length_a                    12.6810
_cell_length_b                    16.1637
_cell_length_c                    16.1637
_cell_angle_alpha                 66.5832
_cell_angle_beta                  74.8402
_cell_angle_gamma                 105.1600
loop_
_atom_site_label
_atom_site_type_symbol
_atom_site_fract_x
_atom_site_fract_y
_atom_site_fract_z
_atom_site_U_iso_or_equiv
_atom_site_adp_type
_atom_site_occupancy
Nd1    Nd    0.00196   0.13637   0.46464   0.01267  Uiso   1.00
Nd2    Nd    0.46660   0.46464   0.39899   0.01267  Uiso   1.00
Nd3    Nd    0.86559   0.39899   0.13637   0.01267  Uiso   1.00
Nd4    Nd    0.99804   0.86363   0.53536   0.01267  Uiso   1.00
Nd5    Nd    0.53340   0.53536   0.60101   0.01267  Uiso   1.00
Nd6    Nd    0.13441   0.60101   0.86363   0.01267  Uiso   1.00
H1     H     0.68570   0.84200   0.53630   0.01267  Uiso   1.00
H2     H     0.77450   0.88590   0.42690   0.01267  Uiso   1.00
H3     H     0.39720   0.82420   0.59290   0.01267  Uiso   1.00
H4     H     0.28160   0.76190   0.59120   0.01267  Uiso   1.00
H5     H     0.69600   0.90650   0.29840   0.01267  Uiso   1.00
H6     H     0.57740   0.90930   0.29010   0.01267  Uiso   1.00
H7     H     0.58410   0.93600   0.48300   0.01267  Uiso   1.00
H8     H     0.67450   0.98290   0.37300   0.01267  Uiso   1.00
H9     H     0.66040   0.82840   0.23140   0.01267  Uiso   1.00
H10    H     0.52270   0.77860   0.29500   0.01267  Uiso   1.00
H11    H     0.22200   0.53630   0.62170   0.01267  Uiso   1.00
H12    H     0.20140   0.42690   0.68720   0.01267  Uiso   1.00
H13    H     0.99010   0.59290   0.58290   0.01267  Uiso   1.00
H14    H     0.87280   0.59120   0.64690   0.01267  Uiso   1.00
H15    H     0.99440   0.29840   0.79510   0.01267  Uiso   1.00
H16    H     0.86750   0.29010   0.80060   0.01267  Uiso   1.00
H17    H     0.06710   0.48300   0.58100   0.01267  Uiso   1.00
H18    H     0.04750   0.37300   0.64410   0.01267  Uiso   1.00
H19    H     0.89180   0.23140   0.94020   0.01267  Uiso   1.00
H20    H     0.81770   0.29500   0.92640   0.01267  Uiso   1.00
H21    H     0.84370   0.62170   0.84200   0.01267  Uiso   1.00
H22    H     0.88860   0.68720   0.88590   0.01267  Uiso   1.00
H23    H     0.57300   0.58290   0.82420   0.01267  Uiso   1.00
H24    H     0.51970   0.64690   0.76190   0.01267  Uiso   1.00
H25    H     0.78950   0.79510   0.90650   0.01267  Uiso   1.00
H26    H     0.66810   0.80060   0.90930   0.01267  Uiso   1.00
H27    H     0.64810   0.58100   0.93600   0.01267  Uiso   1.00
H28    H     0.69160   0.64410   0.98290   0.01267  Uiso   1.00
H29    H     0.83200   0.94020   0.82840   0.01267  Uiso   1.00
H30    H     0.74410   0.92640   0.77860   0.01267  Uiso   1.00
H31    H     0.31430   0.15800   0.46370   0.01267  Uiso   1.00
H32    H     0.22550   0.11410   0.57310   0.01267  Uiso   1.00
H33    H     0.60280   0.17580   0.40710   0.01267  Uiso   1.00
H34    H     0.71840   0.23810   0.40880   0.01267  Uiso   1.00
H35    H     0.30400   0.09350   0.70160   0.01267  Uiso   1.00
H36    H     0.42260   0.09070   0.70990   0.01267  Uiso   1.00
H37    H     0.41590   0.06400   0.51700   0.01267  Uiso   1.00
H38    H     0.32550   0.01710   0.62700   0.01267  Uiso   1.00
H39    H     0.33960   0.17160   0.76860   0.01267  Uiso   1.00
H40    H     0.47730   0.22140   0.70500   0.01267  Uiso   1.00
H41    H     0.77800   0.46370   0.37830   0.01267  Uiso   1.00
H42    H     0.79860   0.57310   0.31280   0.01267  Uiso   1.00
H43    H     0.00990   0.40710   0.41710   0.01267  Uiso   1.00
H44    H     0.12720   0.40880   0.35310   0.01267  Uiso   1.00
H45    H     0.00560   0.70160   0.20490   0.01267  Uiso   1.00
H46    H     0.13250   0.70990   0.19940   0.01267  Uiso   1.00
H47    H     0.93290   0.51700   0.41900   0.01267  Uiso   1.00
H48    H     0.95250   0.62700   0.35590   0.01267  Uiso   1.00
H49    H     0.10820   0.76860   0.05980   0.01267  Uiso   1.00
H50    H     0.18230   0.70500   0.07360   0.01267  Uiso   1.00
H51    H     0.15630   0.37830   0.15800   0.01267  Uiso   1.00
H52    H     0.11140   0.31280   0.11410   0.01267  Uiso   1.00
H53    H     0.42700   0.41710   0.17580   0.01267  Uiso   1.00
H54    H     0.48030   0.35310   0.23810   0.01267  Uiso   1.00
H55    H     0.21050   0.20490   0.09350   0.01267  Uiso   1.00
H56    H     0.33190   0.19940   0.09070   0.01267  Uiso   1.00
H57    H     0.35190   0.41900   0.06400   0.01267  Uiso   1.00
H58    H     0.30840   0.35590   0.01710   0.01267  Uiso   1.00
H59    H     0.16800   0.05980   0.17160   0.01267  Uiso   1.00
H60    H     0.25590   0.07360   0.22140   0.01267  Uiso   1.00
C1     C     0.80620   0.97700   0.47840   0.01267  Uiso   1.00
C2     C     0.72650   0.90110   0.47150   0.01267  Uiso   1.00
C3     C     0.37240   0.68170   0.64060   0.01267  Uiso   1.00
C4     C     0.36570   0.77520   0.57540   0.01267  Uiso   1.00
C5     C     0.42860   0.82000   0.46690   0.01267  Uiso   1.00
C6     C     0.61060   0.86660   0.32480   0.01267  Uiso   1.00
C7     C     0.63500   0.92340   0.43740   0.01267  Uiso   1.00
C8     C     0.60960   0.69980   0.35960   0.01267  Uiso   1.00
C9     C     0.59920   0.79690   0.29830   0.01267  Uiso   1.00
C10    C     0.28460   0.47840   0.54460   0.01267  Uiso   1.00
C11    C     0.19800   0.47150   0.62740   0.01267  Uiso   1.00
C12    C     0.01300   0.64060   0.67770   0.01267  Uiso   1.00
C13    C     0.94110   0.57540   0.64940   0.01267  Uiso   1.00
C14    C     0.89550   0.46690   0.71310   0.01267  Uiso   1.00
C15    C     0.93540   0.32480   0.80860   0.01267  Uiso   1.00
C16    C     0.07240   0.43740   0.63920   0.01267  Uiso   1.00
C17    C     0.96920   0.35960   0.94060   0.01267  Uiso   1.00
C18    C     0.89750   0.29830   0.90480   0.01267  Uiso   1.00
C19    C     0.82920   0.54460   0.97700   0.01267  Uiso   1.00
C20    C     0.82540   0.62740   0.90110   0.01267  Uiso   1.00
C21    C     0.69070   0.67770   0.68170   0.01267  Uiso   1.00
C22    C     0.59050   0.64940   0.77520   0.01267  Uiso   1.00
C23    C     0.60860   0.71310   0.82000   0.01267  Uiso   1.00
C24    C     0.74400   0.80860   0.86660   0.01267  Uiso   1.00
C25    C     0.71160   0.63920   0.92340   0.01267  Uiso   1.00
C26    C     0.90980   0.94060   0.69980   0.01267  Uiso   1.00
C27    C     0.80230   0.90480   0.79690   0.01267  Uiso   1.00
C28    C     0.19380   0.02300   0.52160   0.01267  Uiso   1.00
C29    C     0.27350   0.09890   0.52850   0.01267  Uiso   1.00
C30    C     0.62760   0.31830   0.35940   0.01267  Uiso   1.00
C31    C     0.63430   0.22480   0.42460   0.01267  Uiso   1.00
C32    C     0.57140   0.18000   0.53310   0.01267  Uiso   1.00
C33    C     0.38940   0.13340   0.67520   0.01267  Uiso   1.00
C34    C     0.36500   0.07660   0.56260   0.01267  Uiso   1.00
C35    C     0.39040   0.30020   0.64040   0.01267  Uiso   1.00
C36    C     0.40080   0.20310   0.70170   0.01267  Uiso   1.00
C37    C     0.71540   0.52160   0.45540   0.01267  Uiso   1.00
C38    C     0.80200   0.52850   0.37260   0.01267  Uiso   1.00
C39    C     0.98700   0.35940   0.32230   0.01267  Uiso   1.00
C40    C     0.05890   0.42460   0.35060   0.01267  Uiso   1.00
C41    C     0.10450   0.53310   0.28690   0.01267  Uiso   1.00
C42    C     0.06460   0.67520   0.19140   0.01267  Uiso   1.00
C43    C     0.92760   0.56260   0.36080   0.01267  Uiso   1.00
C44    C     0.03080   0.64040   0.05940   0.01267  Uiso   1.00
C45    C     0.10250   0.70170   0.09520   0.01267  Uiso   1.00
C46    C     0.17080   0.45540   0.02300   0.01267  Uiso   1.00
C47    C     0.17460   0.37260   0.09890   0.01267  Uiso   1.00
C48    C     0.30930   0.32230   0.31830   0.01267  Uiso   1.00
C49    C     0.40950   0.35060   0.22480   0.01267  Uiso   1.00
C50    C     0.39140   0.28690   0.18000   0.01267  Uiso   1.00
C51    C     0.25600   0.19140   0.13340   0.01267  Uiso   1.00
C52    C     0.28840   0.36080   0.07660   0.01267  Uiso   1.00
C53    C     0.09020   0.05940   0.30020   0.01267  Uiso   1.00
C54    C     0.19770   0.09520   0.20310   0.01267  Uiso   1.00
N1     N     0.55870   0.84120   0.43020   0.01267  Uiso   1.00
N2     N     0.98890   0.43020   0.72860   0.01267  Uiso   1.00
N3     N     0.71750   0.72860   0.84120   0.01267  Uiso   1.00
N4     N     0.44130   0.15880   0.56980   0.01267  Uiso   1.00
N5     N     0.01110   0.56980   0.27140   0.01267  Uiso   1.00
N6     N     0.28250   0.27140   0.15880   0.01267  Uiso   1.00
O1     O     0.81130   0.06310   0.43910   0.01267  Uiso   1.00
O2     O     0.62440   0.68620   0.43510   0.01267  Uiso   1.00
O3     O     0.30160   0.62950   0.72760   0.01267  Uiso   1.00
O4     O     0.45510   0.66040   0.60280   0.01267  Uiso   1.00
O5     O     0.87400   0.95770   0.52300   0.01267  Uiso   1.00
O6     O     0.09020   0.24030   0.52900   0.01267  Uiso   1.00
O7     O     0.60190   0.64320   0.32520   0.01267  Uiso   1.00
O8     O     0.81990   0.13980   0.57310   0.01267  Uiso   1.00
O9     O     0.25040   0.43910   0.49780   0.01267  Uiso   1.00
O10    O     0.05950   0.43510   0.87870   0.01267  Uiso   1.00
O11    O     0.02920   0.72760   0.64290   0.01267  Uiso   1.00
O12    O     0.05790   0.60280   0.73680   0.01267  Uiso   1.00
O13    O     0.39700   0.52300   0.51930   0.01267  Uiso   1.00
O14    O     0.61920   0.52900   0.23070   0.01267  Uiso   1.00
O15    O     0.92710   0.32520   0.03160   0.01267  Uiso   1.00
O16    O     0.39300   0.57310   0.28710   0.01267  Uiso   1.00
O17    O     0.74820   0.49780   0.06310   0.01267  Uiso   1.00
O18    O     0.93820   0.87870   0.68620   0.01267  Uiso   1.00
O19    O     0.67210   0.64290   0.62950   0.01267  Uiso   1.00
O20    O     0.79470   0.73680   0.66040   0.01267  Uiso   1.00
O21    O     0.91630   0.51930   0.95770   0.01267  Uiso   1.00
O22    O     0.84990   0.23070   0.24030   0.01267  Uiso   1.00
O23    O     0.95870   0.03160   0.64320   0.01267  Uiso   1.00
O24    O     0.68010   0.28710   0.13980   0.01267  Uiso   1.00
O25    O     0.18870   0.93690   0.56090   0.01267  Uiso   1.00
O26    O     0.37560   0.31380   0.56490   0.01267  Uiso   1.00
O27    O     0.69840   0.37050   0.27240   0.01267  Uiso   1.00
O28    O     0.54490   0.33960   0.39720   0.01267  Uiso   1.00
O29    O     0.12600   0.04230   0.47700   0.01267  Uiso   1.00
O30    O     0.90980   0.75970   0.47100   0.01267  Uiso   1.00
O31    O     0.39810   0.35680   0.67480   0.01267  Uiso   1.00
O32    O     0.18010   0.86020   0.42690   0.01267  Uiso   1.00
O33    O     0.74960   0.56090   0.50220   0.01267  Uiso   1.00
O34    O     0.94050   0.56490   0.12130   0.01267  Uiso   1.00
O35    O     0.97080   0.27240   0.35710   0.01267  Uiso   1.00
O36    O     0.94210   0.39720   0.26320   0.01267  Uiso   1.00
O37    O     0.60300   0.47700   0.48070   0.01267  Uiso   1.00
O38    O     0.38080   0.47100   0.76930   0.01267  Uiso   1.00
O39    O     0.07290   0.67480   0.96840   0.01267  Uiso   1.00
O40    O     0.60700   0.42690   0.71290   0.01267  Uiso   1.00
O41    O     0.25180   0.50220   0.93690   0.01267  Uiso   1.00
O42    O     0.06180   0.12130   0.31380   0.01267  Uiso   1.00
O43    O     0.32790   0.35710   0.37050   0.01267  Uiso   1.00
O44    O     0.20530   0.26320   0.33960   0.01267  Uiso   1.00
O45    O     0.08370   0.48070   0.04230   0.01267  Uiso   1.00
O46    O     0.15010   0.76930   0.75970   0.01267  Uiso   1.00
O47    O     0.04130   0.96840   0.35680   0.01267  Uiso   1.00
O48    O     0.31990   0.71290   0.86020   0.01267  Uiso   1.00
Br1    Br    0.61108   0.38135   0.93021   0.01267  Uiso   1.00
Br2    Br    0.54129   0.93021   0.68844   0.01267  Uiso   1.00
Br3    Br    0.22973   0.68844   0.38135   0.01267  Uiso   1.00
Br4    Br    0.38892   0.61865   0.06979   0.01267  Uiso   1.00
Br5    Br    0.45871   0.06979   0.31156   0.01267  Uiso   1.00
Br6    Br    0.77027   0.31156   0.61865   0.01267  Uiso   1.00
