data_image0
_cell_length_a       17.3266
_cell_length_b       21.9786
_cell_length_c       23.2172
_cell_angle_alpha    99.59
_cell_angle_beta     108.832
_cell_angle_gamma    107.228

_symmetry_space_group_name_H-M    "P 1"
_symmetry_int_tables_number       1

loop_
  _symmetry_equiv_pos_as_xyz
  'x, y, z'

loop_
  _atom_site_label
  _atom_site_occupancy
  _atom_site_fract_x
  _atom_site_fract_y
  _atom_site_fract_z
  _atom_site_thermal_displace_type
  _atom_site_B_iso_or_equiv
  _atom_site_type_symbol
  Ag1      1.0000 0.07168  0.87655  0.17179  Biso   1.000  Ag
  N1       1.0000 0.19190  0.88446  0.26521  Biso   1.000  N
  N2       1.0000 0.01000  0.76471  0.13771  Biso   1.000  N
  N3       1.0000 0.03090  0.96442  0.18317  Biso   1.000  N
  N4       1.0000 0.16300  0.91056  0.11276  Biso   1.000  N
  C1       1.0000 0.22880  0.83890  0.26020  Biso   1.000  C
  C2       1.0000 0.22360  0.92760  0.32180  Biso   1.000  C
  C3       1.0000 0.96330  0.72890  0.16430  Biso   1.000  C
  C4       1.0000 0.02860  0.73140  0.09340  Biso   1.000  C
  C5       1.0000 0.29660  0.83660  0.30980  Biso   1.000  C
  H1       1.0000 0.20690  0.80660  0.22020  Biso   1.000  H
  H2       1.0000 0.19900  0.96060  0.32620  Biso   1.000  H
  C6       1.0000 0.28940  0.92870  0.37480  Biso   1.000  C
  C7       1.0000 0.93350  0.66030  0.14920  Biso   1.000  C
  H3       1.0000 0.94960  0.75190  0.19560  Biso   1.000  H
  H4       1.0000 0.06160  0.75610  0.07360  Biso   1.000  H
  C8       1.0000 0.00180  0.66270  0.07520  Biso   1.000  C
  C9       1.0000 0.32790  0.88180  0.36884  Biso   1.000  C
  H5       1.0000 0.32160  0.80420  0.30360  Biso   1.000  H
  H6       1.0000 0.30820  0.96050  0.41450  Biso   1.000  H
  C10      1.0000 0.95420  0.62600  0.10360  Biso   1.000  C
  H7       1.0000 0.89980  0.63690  0.16930  Biso   1.000  H
  H8       1.0000 0.01610  0.64110  0.04340  Biso   1.000  H
  C11      1.0000 0.39820  0.88030  0.42360  Biso   1.000  C
  C12      1.0000 0.92130  0.55360  0.08200  Biso   1.000  C
  O1       1.0000 0.43735  0.83684  0.40972  Biso   1.000  O
  C13      1.0000 0.43190  0.91220  0.48660  Biso   1.000  C
  O2       1.0000 0.88640  0.52090  0.11901  Biso   1.000  O
  C14      1.0000 0.91160  0.50880  0.02930  Biso   1.000  C
  C15      1.0000 0.49900  0.84220  0.46726  Biso   1.000  C
  C16      1.0000 0.49760  0.88730  0.51620  Biso   1.000  C
  H9       1.0000 0.41540  0.94450  0.50690  Biso   1.000  H
  C17      1.0000 0.85170  0.45460  0.08690  Biso   1.000  C
  H10      1.0000 0.93230  0.51900  0.99750  Biso   1.000  H
  C18      1.0000 0.86510  0.44450  0.03050  Biso   1.000  C
  C19      1.0000 0.55500  0.80840  0.47616  Biso   1.000  C
  C20      1.0000 0.55540  0.89680  0.57786  Biso   1.000  C
  C21      1.0000 0.80460  0.40448  0.10380  Biso   1.000  C
  C22      1.0000 0.82830  0.37990  0.99070  Biso   1.000  C
  N5       1.0000 0.61060  0.81811  0.53513  Biso   1.000  N
  H11      1.0000 0.55420  0.77860  0.44100  Biso   1.000  H
  C23      1.0000 0.60930  0.86096  0.58561  Biso   1.000  C
  H12      1.0000 0.55760  0.92700  0.61330  Biso   1.000  H
  N6       1.0000 0.76530  0.34154  0.06330  Biso   1.000  N
  H13      1.0000 0.79930  0.41330  0.14360  Biso   1.000  H
  H14      1.0000 0.83770  0.36990  0.95260  Biso   1.000  H
  C24      1.0000 0.77720  0.33010  0.00790  Biso   1.000  C
  Fe1      1.0000 0.70133  0.77885  0.56034  Biso   1.000  Fe
  C25      1.0000 0.67000  0.86292  0.64719  Biso   1.000  C
  Fe2      1.0000 0.67591  0.26649  0.07026  Biso   1.000  Fe
  C26      1.0000 0.72580  0.26130  0.96720  Biso   1.000  C
  N7       1.0000 0.79120  0.74890  0.61156  Biso   1.000  N
  N8       1.0000 0.71480  0.82288  0.64161  Biso   1.000  N
  N9       1.0000 0.60800  0.69192  0.54245  Biso   1.000  N
  N10      1.0000 0.69100  0.73797  0.47848  Biso   1.000  N
  N11      1.0000 0.78610  0.85460  0.55043  Biso   1.000  N
  C27      1.0000 0.68420  0.89990  0.70747  Biso   1.000  C
  N12      1.0000 0.76100  0.23471  0.12385  Biso   1.000  N
  N13      1.0000 0.68500  0.30996  0.15070  Biso   1.000  N
  N14      1.0000 0.58960  0.30890  0.04262  Biso   1.000  N
  N15      1.0000 0.67240  0.22641  0.99072  Biso   1.000  N
  N16      1.0000 0.57970  0.18090  0.04880  Biso   1.000  N
  C28      1.0000 0.72700  0.23200  0.90950  Biso   1.000  C
  C29      1.0000 0.82000  0.70411  0.58862  Biso   1.000  C
  C30      1.0000 0.81570  0.77190  0.67598  Biso   1.000  C
  C31      1.0000 0.77470  0.81810  0.69370  Biso   1.000  C
  C32      1.0000 0.56770  0.67470  0.58107  Biso   1.000  C
  C33      1.0000 0.58070  0.64960  0.48297  Biso   1.000  C
  C34      1.0000 0.63210  0.67619  0.44739  Biso   1.000  C
  C35      1.0000 0.74100  0.77320  0.45220  Biso   1.000  C
  C36      1.0000 0.79340  0.84222  0.49241  Biso   1.000  C
  C37      1.0000 0.82340  0.91670  0.58861  Biso   1.000  C
  C38      1.0000 0.74360  0.89390  0.76040  Biso   1.000  C
  H15      1.0000 0.65340  0.92860  0.71190  Biso   1.000  H
  C39      1.0000 0.79230  0.19060  0.10320  Biso   1.000  C
  C40      1.0000 0.78150  0.25718  0.18816  Biso   1.000  C
  C41      1.0000 0.74110  0.30358  0.20319  Biso   1.000  C
  C42      1.0000 0.64050  0.35000  0.15469  Biso   1.000  C
  C43      1.0000 0.58560  0.35048  0.09155  Biso   1.000  C
  C44      1.0000 0.54030  0.30170  0.98230  Biso   1.000  C
  C45      1.0000 0.61520  0.16370  0.95830  Biso   1.000  C
  C46      1.0000 0.55860  0.13690  0.99120  Biso   1.000  C
  C47      1.0000 0.53130  0.16400  0.08299  Biso   1.000  C
  H16      1.0000 0.76590  0.25630  0.89310  Biso   1.000  H
  C48      1.0000 0.67100  0.16740  0.87680  Biso   1.000  C
  H17      1.0000 0.80510  0.68860  0.54430  Biso   1.000  H
  C49      1.0000 0.87180  0.68100  0.63100  Biso   1.000  C
  C50      1.0000 0.86870  0.75090  0.71960  Biso   1.000  C
  C51      1.0000 0.79040  0.85330  0.75420  Biso   1.000  C
  H18      1.0000 0.58710  0.70300  0.62270  Biso   1.000  H
  C52      1.0000 0.49760  0.61490  0.55890  Biso   1.000  C
  C53      1.0000 0.51030  0.58960  0.45900  Biso   1.000  C
  C54      1.0000 0.62230  0.64440  0.38700  Biso   1.000  C
  C55      1.0000 0.73550  0.74500  0.39240  Biso   1.000  C
  C56      1.0000 0.83940  0.89100  0.47220  Biso   1.000  C
  C57      1.0000 0.86670  0.96687  0.56910  Biso   1.000  C
  H19      1.0000 0.82000  0.92620  0.62900  Biso   1.000  H
  H20      1.0000 0.75260  0.91780  0.80150  Biso   1.000  H
  H21      1.0000 0.78000  0.17550  0.05920  Biso   1.000  H
  C58      1.0000 0.84290  0.16750  0.14660  Biso   1.000  C
  C59      1.0000 0.83470  0.23721  0.23314  Biso   1.000  C
  C60      1.0000 0.75390  0.33840  0.26380  Biso   1.000  C
  C61      1.0000 0.64930  0.38500  0.21320  Biso   1.000  C
  C62      1.0000 0.53450  0.38870  0.08175  Biso   1.000  C
  C63      1.0000 0.48700  0.33760  0.97132  Biso   1.000  C
  H22      1.0000 0.54210  0.27270  0.94800  Biso   1.000  H
  C64      1.0000 0.61390  0.13260  0.90110  Biso   1.000  C
  C65      1.0000 0.48960  0.07650  0.96540  Biso   1.000  C
  C66      1.0000 0.46320  0.10370  0.05910  Biso   1.000  C
  H23      1.0000 0.54420  0.19330  0.12280  Biso   1.000  H
  H24      1.0000 0.67110  0.14650  0.83760  Biso   1.000  H
  O3       1.0000 0.90060  0.63146  0.61512  Biso   1.000  O
  C67      1.0000 0.89780  0.70300  0.69630  Biso   1.000  C
  H25      1.0000 0.88500  0.76830  0.76390  Biso   1.000  H
  H26      1.0000 0.83210  0.84980  0.79070  Biso   1.000  H
  O4       1.0000 0.44840  0.59088  0.59061  Biso   1.000  O
  C68      1.0000 0.46580  0.57160  0.49820  Biso   1.000  C
  H27      1.0000 0.49250  0.56150  0.41740  Biso   1.000  H
  H28      1.0000 0.58080  0.60030  0.36470  Biso   1.000  H
  C69      1.0000 0.67560  0.67960  0.36020  Biso   1.000  C
  H29      1.0000 0.77110  0.76920  0.37380  Biso   1.000  H
  H30      1.0000 0.84580  0.88040  0.43300  Biso   1.000  H
  C70      1.0000 0.87590  0.95600  0.51120  Biso   1.000  C
  O5       1.0000 0.89840  0.03244  0.59993  Biso   1.000  O
  O6       1.0000 0.87610  0.12100  0.13270  Biso   1.000  O
  C71      1.0000 0.86540  0.19020  0.21190  Biso   1.000  C
  H31      1.0000 0.84970  0.25510  0.27720  Biso   1.000  H
  H32      1.0000 0.79350  0.33440  0.30100  Biso   1.000  H
  C72      1.0000 0.70700  0.37900  0.26790  Biso   1.000  C
  H33      1.0000 0.61670  0.41250  0.21610  Biso   1.000  H
  H34      1.0000 0.53390  0.41790  0.11660  Biso   1.000  H
  C73      1.0000 0.48420  0.38320  0.01941  Biso   1.000  C
  O7       1.0000 0.43280  0.33552  0.91292  Biso   1.000  O
  H35      1.0000 0.57460  0.08800  0.87860  Biso   1.000  H
  H36      1.0000 0.47680  0.04780  0.92530  Biso   1.000  H
  C74      1.0000 0.43830  0.05890  0.00080  Biso   1.000  C
  O8       1.0000 0.40820  0.07935  0.08826  Biso   1.000  O
  C75      1.0000 0.94570  0.62310  0.67250  Biso   1.000  C
  C76      1.0000 0.94570  0.66420  0.72230  Biso   1.000  C
  C77      1.0000 0.38220  0.53240  0.54830  Biso   1.000  C
  C78      1.0000 0.39050  0.51840  0.49240  Biso   1.000  C
  H37      1.0000 0.67120  0.65880  0.31930  Biso   1.000  H
  C79      1.0000 0.91760  0.02050  0.50670  Biso   1.000  C
  C80      1.0000 0.92890  0.06420  0.56010  Biso   1.000  C
  C81      1.0000 0.91980  0.11270  0.19110  Biso   1.000  C
  C82      1.0000 0.91640  0.15310  0.23970  Biso   1.000  C
  H38      1.0000 0.71410  0.40310  0.30850  Biso   1.000  H
  C83      1.0000 0.42480  0.41140  0.98720  Biso   1.000  C
  C84      1.0000 0.39610  0.38190  0.92500  Biso   1.000  C
  C85      1.0000 0.36200  0.00430  0.99270  Biso   1.000  C
  C86      1.0000 0.34680  0.01860  0.04660  Biso   1.000  C
  C87      1.0000 0.97820  0.56900  0.66910  Biso   1.000  C
  H39      1.0000 0.97210  0.66690  0.76590  Biso   1.000  H
  C88      1.0000 0.31980  0.49620  0.57180  Biso   1.000  C
  H40      1.0000 0.35360  0.48070  0.45650  Biso   1.000  H
  H41      1.0000 0.93410  0.03070  0.47310  Biso   1.000  H
  C89      1.0000 0.96470  0.13720  0.58350  Biso   1.000  C
  C90      1.0000 0.96100  0.06360  0.18840  Biso   1.000  C
  H42      1.0000 0.94240  0.15670  0.28350  Biso   1.000  H
  H43      1.0000 0.40870  0.44480  0.00630  Biso   1.000  H
  C91      1.0000 0.33040  0.38536  0.86823  Biso   1.000  C
  H44      1.0000 0.32870  0.96590  0.95700  Biso   1.000  H
  C92      1.0000 0.28330  0.98270  0.06900  Biso   1.000  C
  C93      1.0000 0.97560  0.53380  0.61390  Biso   1.000  C
  C94      1.0000 0.01370  0.55160  0.72370  Biso   1.000  C
  C95      1.0000 0.33970  0.50400  0.63560  Biso   1.000  C
  C96      1.0000 0.23670  0.45210  0.52900  Biso   1.000  C
  C97      1.0000 0.96190  0.17020  0.63720  Biso   1.000  C
  C98      1.0000 0.00260  0.17440  0.54940  Biso   1.000  C
  C99      1.0000 0.97460  0.03910  0.13520  Biso   1.000  C
  C100     1.0000 0.98600  0.03880  0.24020  Biso   1.000  C
  C101     1.0000 0.28970  0.33350  0.81270  Biso   1.000  C
  C102     1.0000 0.30860  0.44150  0.86920  Biso   1.000  C
  C103     1.0000 0.30330  0.99400  0.13360  Biso   1.000  C
  C104     1.0000 0.20150  0.93570  0.02670  Biso   1.000  C
  H45      1.0000 0.95210  0.54430  0.57550  Biso   1.000  H
  C105     1.0000 0.00710  0.48320  0.61340  Biso   1.000  C
  C106     1.0000 0.04250  0.49950  0.71950  Biso   1.000  C
  H46      1.0000 0.01820  0.57540  0.76350  Biso   1.000  H
  H47      1.0000 0.39540  0.53450  0.66640  Biso   1.000  H
  C107     1.0000 0.27690  0.46640  0.65420  Biso   1.000  C
  C108     1.0000 0.17810  0.41820  0.55120  Biso   1.000  C
  H48      1.0000 0.22070  0.44560  0.48460  Biso   1.000  H
  H49      1.0000 0.93620  0.14620  0.66110  Biso   1.000  H
  C109     1.0000 0.99690  0.23900  0.65680  Biso   1.000  C
  C110     1.0000 0.03610  0.24270  0.57240  Biso   1.000  C
  H50      1.0000 0.00510  0.15300  0.51140  Biso   1.000  H
  H51      1.0000 0.96000  0.05560  0.09950  Biso   1.000  H
  C111     1.0000 0.00970  0.99020  0.13460  Biso   1.000  C
  C112     1.0000 0.01940  0.98960  0.23460  Biso   1.000  C
  H52      1.0000 0.98000  0.05540  0.27830  Biso   1.000  H
  H53      1.0000 0.30410  0.29490  0.81020  Biso   1.000  H
  C113     1.0000 0.22760  0.33880  0.76080  Biso   1.000  C
  C114     1.0000 0.24700  0.44240  0.81530  Biso   1.000  C
  H54      1.0000 0.33590  0.47830  0.90650  Biso   1.000  H
  H55      1.0000 0.35750  0.02670  0.16420  Biso   1.000  H
  C115     1.0000 0.24040  0.95540  0.15170  Biso   1.000  C
  C116     1.0000 0.14440  0.90110  0.05030  Biso   1.000  C
  H56      1.0000 0.18530  0.92750  0.98220  Biso   1.000  H
  N17      1.0000 0.04030  0.46550  0.66560  Biso   1.000  N
  H57      1.0000 0.00500  0.45970  0.57430  Biso   1.000  H
  H58      1.0000 0.06490  0.48730  0.75700  Biso   1.000  H
  N18      1.0000 0.19750  0.42545  0.61309  Biso   1.000  N
  H59      1.0000 0.29170  0.47040  0.69810  Biso   1.000  H
  H60      1.0000 0.12140  0.38830  0.52150  Biso   1.000  H
  N19      1.0000 0.03400  0.27512  0.62512  Biso   1.000  N
  H61      1.0000 0.99440  0.26160  0.69450  Biso   1.000  H
  H62      1.0000 0.06210  0.26800  0.54940  Biso   1.000  H
  H63      1.0000 0.01920  0.97410  0.09790  Biso   1.000  H
  H64      1.0000 0.03540  0.97250  0.26980  Biso   1.000  H
  N20      1.0000 0.20550  0.39232  0.76048  Biso   1.000  N
  H65      1.0000 0.19880  0.30240  0.72310  Biso   1.000  H
  H66      1.0000 0.23240  0.48090  0.81640  Biso   1.000  H
  H67      1.0000 0.25490  0.96210  0.19600  Biso   1.000  H
  H68      1.0000 0.08900  0.86890  0.02090  Biso   1.000  H
  Ag2      1.0000 0.09824  0.38745  0.66252  Biso   1.000  Ag
  Ag3      1.0000 0.92832  0.12345  0.82821  Biso   1.000  Ag
  N21      1.0000 0.80810  0.11554  0.73479  Biso   1.000  N
  N22      1.0000 0.99000  0.23529  0.86229  Biso   1.000  N
  N23      1.0000 0.96910  0.03558  0.81683  Biso   1.000  N
  N24      1.0000 0.83700  0.08944  0.88724  Biso   1.000  N
  C117     1.0000 0.77120  0.16110  0.73980  Biso   1.000  C
  C118     1.0000 0.77640  0.07240  0.67820  Biso   1.000  C
  C119     1.0000 0.03670  0.27110  0.83570  Biso   1.000  C
  C120     1.0000 0.97140  0.26860  0.90660  Biso   1.000  C
  C121     1.0000 0.70340  0.16340  0.69020  Biso   1.000  C
  H69      1.0000 0.79310  0.19340  0.77980  Biso   1.000  H
  H70      1.0000 0.80100  0.03940  0.67380  Biso   1.000  H
  C122     1.0000 0.71060  0.07130  0.62520  Biso   1.000  C
  C123     1.0000 0.06650  0.33970  0.85080  Biso   1.000  C
  H71      1.0000 0.05040  0.24810  0.80440  Biso   1.000  H
  H72      1.0000 0.93840  0.24390  0.92640  Biso   1.000  H
  C124     1.0000 0.99820  0.33730  0.92480  Biso   1.000  C
  C125     1.0000 0.67210  0.11820  0.63116  Biso   1.000  C
  H73      1.0000 0.67840  0.19580  0.69640  Biso   1.000  H
  H74      1.0000 0.69180  0.03950  0.58550  Biso   1.000  H
  C126     1.0000 0.04580  0.37400  0.89640  Biso   1.000  C
  H75      1.0000 0.10020  0.36310  0.83070  Biso   1.000  H
  H76      1.0000 0.98390  0.35890  0.95660  Biso   1.000  H
  C127     1.0000 0.60180  0.11970  0.57640  Biso   1.000  C
  C128     1.0000 0.07870  0.44640  0.91800  Biso   1.000  C
  O9       1.0000 0.56265  0.16316  0.59028  Biso   1.000  O
  C129     1.0000 0.56810  0.08780  0.51340  Biso   1.000  C
  O10      1.0000 0.11360  0.47910  0.88099  Biso   1.000  O
  C130     1.0000 0.08840  0.49120  0.97070  Biso   1.000  C
  C131     1.0000 0.50100  0.15780  0.53274  Biso   1.000  C
  C132     1.0000 0.50240  0.11270  0.48380  Biso   1.000  C
  H77      1.0000 0.58460  0.05550  0.49310  Biso   1.000  H
  C133     1.0000 0.14830  0.54540  0.91310  Biso   1.000  C
  H78      1.0000 0.06770  0.48100  0.00250  Biso   1.000  H
  C134     1.0000 0.13490  0.55550  0.96950  Biso   1.000  C
  C135     1.0000 0.44500  0.19160  0.52384  Biso   1.000  C
  C136     1.0000 0.44460  0.10320  0.42214  Biso   1.000  C
  C137     1.0000 0.19540  0.59552  0.89620  Biso   1.000  C
  C138     1.0000 0.17170  0.62010  0.00930  Biso   1.000  C
  N25      1.0000 0.38940  0.18189  0.46487  Biso   1.000  N
  H79      1.0000 0.44580  0.22140  0.55900  Biso   1.000  H
  C139     1.0000 0.39070  0.13904  0.41439  Biso   1.000  C
  H80      1.0000 0.44240  0.07300  0.38670  Biso   1.000  H
  N26      1.0000 0.23470  0.65846  0.93670  Biso   1.000  N
  H81      1.0000 0.20070  0.58670  0.85640  Biso   1.000  H
  H82      1.0000 0.16230  0.63010  0.04740  Biso   1.000  H
  C140     1.0000 0.22280  0.66990  0.99210  Biso   1.000  C
  Fe3      1.0000 0.29867  0.22115  0.43966  Biso   1.000  Fe
  C141     1.0000 0.33000  0.13708  0.35281  Biso   1.000  C
  Fe4      1.0000 0.32409  0.73351  0.92974  Biso   1.000  Fe
  C142     1.0000 0.27420  0.73870  0.03280  Biso   1.000  C
  N27      1.0000 0.20880  0.25110  0.38844  Biso   1.000  N
  N28      1.0000 0.28520  0.17712  0.35839  Biso   1.000  N
  N29      1.0000 0.39200  0.30808  0.45755  Biso   1.000  N
  N30      1.0000 0.30900  0.26203  0.52152  Biso   1.000  N
  N31      1.0000 0.21390  0.14540  0.44957  Biso   1.000  N
  C143     1.0000 0.31580  0.10010  0.29253  Biso   1.000  C
  N32      1.0000 0.23900  0.76529  0.87615  Biso   1.000  N
  N33      1.0000 0.31500  0.69004  0.84930  Biso   1.000  N
  N34      1.0000 0.41040  0.69110  0.95738  Biso   1.000  N
  N35      1.0000 0.32760  0.77359  0.00928  Biso   1.000  N
  N36      1.0000 0.42030  0.81910  0.95120  Biso   1.000  N
  C144     1.0000 0.27300  0.76800  0.09050  Biso   1.000  C
  C145     1.0000 0.18000  0.29589  0.41138  Biso   1.000  C
  C146     1.0000 0.18430  0.22810  0.32402  Biso   1.000  C
  C147     1.0000 0.22530  0.18190  0.30630  Biso   1.000  C
  C148     1.0000 0.43230  0.32530  0.41893  Biso   1.000  C
  C149     1.0000 0.41930  0.35040  0.51703  Biso   1.000  C
  C150     1.0000 0.36790  0.32381  0.55261  Biso   1.000  C
  C151     1.0000 0.25900  0.22680  0.54780  Biso   1.000  C
  C152     1.0000 0.20660  0.15778  0.50759  Biso   1.000  C
  C153     1.0000 0.17660  0.08330  0.41139  Biso   1.000  C
  C154     1.0000 0.25640  0.10610  0.23960  Biso   1.000  C
  H83      1.0000 0.34660  0.07140  0.28810  Biso   1.000  H
  C155     1.0000 0.20770  0.80940  0.89680  Biso   1.000  C
  C156     1.0000 0.21850  0.74282  0.81184  Biso   1.000  C
  C157     1.0000 0.25890  0.69642  0.79681  Biso   1.000  C
  C158     1.0000 0.35950  0.65000  0.84531  Biso   1.000  C
  C159     1.0000 0.41440  0.64952  0.90845  Biso   1.000  C
  C160     1.0000 0.45970  0.69830  0.01770  Biso   1.000  C
  C161     1.0000 0.38480  0.83630  0.04170  Biso   1.000  C
  C162     1.0000 0.44140  0.86310  0.00880  Biso   1.000  C
  C163     1.0000 0.46870  0.83600  0.91701  Biso   1.000  C
  H84      1.0000 0.23410  0.74370  0.10690  Biso   1.000  H
  C164     1.0000 0.32900  0.83260  0.12320  Biso   1.000  C
  H85      1.0000 0.19490  0.31140  0.45570  Biso   1.000  H
  C165     1.0000 0.12820  0.31900  0.36900  Biso   1.000  C
  C166     1.0000 0.13130  0.24910  0.28040  Biso   1.000  C
  C167     1.0000 0.20960  0.14670  0.24580  Biso   1.000  C
  H86      1.0000 0.41290  0.29700  0.37730  Biso   1.000  H
  C168     1.0000 0.50240  0.38510  0.44110  Biso   1.000  C
  C169     1.0000 0.48970  0.41040  0.54100  Biso   1.000  C
  C170     1.0000 0.37770  0.35560  0.61300  Biso   1.000  C
  C171     1.0000 0.26450  0.25500  0.60760  Biso   1.000  C
  C172     1.0000 0.16060  0.10900  0.52780  Biso   1.000  C
  C173     1.0000 0.13330  0.03313  0.43090  Biso   1.000  C
  H87      1.0000 0.18000  0.07380  0.37100  Biso   1.000  H
  H88      1.0000 0.24740  0.08220  0.19850  Biso   1.000  H
  H89      1.0000 0.22000  0.82450  0.94080  Biso   1.000  H
  C174     1.0000 0.15710  0.83250  0.85340  Biso   1.000  C
  C175     1.0000 0.16530  0.76279  0.76686  Biso   1.000  C
  C176     1.0000 0.24610  0.66160  0.73620  Biso   1.000  C
  C177     1.0000 0.35070  0.61500  0.78680  Biso   1.000  C
  C178     1.0000 0.46550  0.61130  0.91825  Biso   1.000  C
  C179     1.0000 0.51300  0.66240  0.02868  Biso   1.000  C
  H90      1.0000 0.45790  0.72730  0.05200  Biso   1.000  H
  C180     1.0000 0.38610  0.86740  0.09890  Biso   1.000  C
  C181     1.0000 0.51040  0.92350  0.03460  Biso   1.000  C
  C182     1.0000 0.53680  0.89630  0.94090  Biso   1.000  C
  H91      1.0000 0.45580  0.80670  0.87720  Biso   1.000  H
  H92      1.0000 0.32890  0.85350  0.16240  Biso   1.000  H
  O11      1.0000 0.09940  0.36854  0.38488  Biso   1.000  O
  C183     1.0000 0.10220  0.29700  0.30370  Biso   1.000  C
  H93      1.0000 0.11500  0.23170  0.23610  Biso   1.000  H
  H94      1.0000 0.16790  0.15020  0.20930  Biso   1.000  H
  O12      1.0000 0.55160  0.40912  0.40939  Biso   1.000  O
  C184     1.0000 0.53420  0.42840  0.50180  Biso   1.000  C
  H95      1.0000 0.50750  0.43850  0.58260  Biso   1.000  H
  H96      1.0000 0.41920  0.39970  0.63530  Biso   1.000  H
  C185     1.0000 0.32440  0.32040  0.63980  Biso   1.000  C
  H97      1.0000 0.22890  0.23080  0.62620  Biso   1.000  H
  H98      1.0000 0.15420  0.11960  0.56700  Biso   1.000  H
  C186     1.0000 0.12410  0.04400  0.48880  Biso   1.000  C
  O13      1.0000 0.10160  0.96756  0.40007  Biso   1.000  O
  O14      1.0000 0.12390  0.87900  0.86730  Biso   1.000  O
  C187     1.0000 0.13460  0.80980  0.78810  Biso   1.000  C
  H99      1.0000 0.15030  0.74490  0.72280  Biso   1.000  H
  H100     1.0000 0.20650  0.66560  0.69900  Biso   1.000  H
  C188     1.0000 0.29300  0.62100  0.73210  Biso   1.000  C
  H101     1.0000 0.38330  0.58750  0.78390  Biso   1.000  H
  H102     1.0000 0.46610  0.58210  0.88340  Biso   1.000  H
  C189     1.0000 0.51580  0.61680  0.98059  Biso   1.000  C
  O15      1.0000 0.56720  0.66448  0.08708  Biso   1.000  O
  H103     1.0000 0.42540  0.91200  0.12140  Biso   1.000  H
  H104     1.0000 0.52320  0.95220  0.07470  Biso   1.000  H
  C190     1.0000 0.56170  0.94110  0.99920  Biso   1.000  C
  O16      1.0000 0.59180  0.92065  0.91174  Biso   1.000  O
  C191     1.0000 0.05430  0.37690  0.32750  Biso   1.000  C
  C192     1.0000 0.05430  0.33580  0.27770  Biso   1.000  C
  C193     1.0000 0.61780  0.46760  0.45170  Biso   1.000  C
  C194     1.0000 0.60950  0.48160  0.50760  Biso   1.000  C
  H105     1.0000 0.32880  0.34120  0.68070  Biso   1.000  H
  C195     1.0000 0.08240  0.97950  0.49330  Biso   1.000  C
  C196     1.0000 0.07110  0.93580  0.43990  Biso   1.000  C
  C197     1.0000 0.08020  0.88730  0.80890  Biso   1.000  C
  C198     1.0000 0.08360  0.84690  0.76030  Biso   1.000  C
  H106     1.0000 0.28590  0.59690  0.69150  Biso   1.000  H
  C199     1.0000 0.57520  0.58860  0.01280  Biso   1.000  C
  C200     1.0000 0.60390  0.61810  0.07500  Biso   1.000  C
  C201     1.0000 0.63800  0.99570  0.00730  Biso   1.000  C
  C202     1.0000 0.65320  0.98140  0.95340  Biso   1.000  C
  C203     1.0000 0.02180  0.43100  0.33090  Biso   1.000  C
  H107     1.0000 0.02790  0.33310  0.23410  Biso   1.000  H
  C204     1.0000 0.68020  0.50380  0.42820  Biso   1.000  C
  H108     1.0000 0.64640  0.51930  0.54350  Biso   1.000  H
  H109     1.0000 0.06590  0.96930  0.52690  Biso   1.000  H
  C205     1.0000 0.03530  0.86280  0.41650  Biso   1.000  C
  C206     1.0000 0.03900  0.93640  0.81160  Biso   1.000  C
  H110     1.0000 0.05760  0.84330  0.71650  Biso   1.000  H
  H111     1.0000 0.59130  0.55520  0.99370  Biso   1.000  H
  C207     1.0000 0.66960  0.61464  0.13177  Biso   1.000  C
  H112     1.0000 0.67130  0.03410  0.04300  Biso   1.000  H
  C208     1.0000 0.71670  0.01730  0.93100  Biso   1.000  C
  C209     1.0000 0.02440  0.46620  0.38610  Biso   1.000  C
  C210     1.0000 0.98630  0.44840  0.27630  Biso   1.000  C
  C211     1.0000 0.66030  0.49600  0.36440  Biso   1.000  C
  C212     1.0000 0.76330  0.54790  0.47100  Biso   1.000  C
  C213     1.0000 0.03810  0.82980  0.36280  Biso   1.000  C
  C214     1.0000 0.99740  0.82560  0.45060  Biso   1.000  C
  C215     1.0000 0.02540  0.96090  0.86480  Biso   1.000  C
  C216     1.0000 0.01400  0.96120  0.75980  Biso   1.000  C
  C217     1.0000 0.71030  0.66650  0.18730  Biso   1.000  C
  C218     1.0000 0.69140  0.55850  0.13080  Biso   1.000  C
  C219     1.0000 0.69670  0.00600  0.86640  Biso   1.000  C
  C220     1.0000 0.79850  0.06430  0.97330  Biso   1.000  C
  H113     1.0000 0.04790  0.45570  0.42450  Biso   1.000  H
  C221     1.0000 0.99290  0.51680  0.38660  Biso   1.000  C
  C222     1.0000 0.95750  0.50050  0.28050  Biso   1.000  C
  H114     1.0000 0.98180  0.42460  0.23650  Biso   1.000  H
  H115     1.0000 0.60460  0.46550  0.33360  Biso   1.000  H
  C223     1.0000 0.72310  0.53360  0.34580  Biso   1.000  C
  C224     1.0000 0.82190  0.58180  0.44880  Biso   1.000  C
  H116     1.0000 0.77930  0.55440  0.51540  Biso   1.000  H
  H117     1.0000 0.06380  0.85380  0.33890  Biso   1.000  H
  C225     1.0000 0.00310  0.76100  0.34320  Biso   1.000  C
  C226     1.0000 0.96390  0.75730  0.42760  Biso   1.000  C
  H118     1.0000 0.99490  0.84700  0.48860  Biso   1.000  H
  H119     1.0000 0.04000  0.94440  0.90050  Biso   1.000  H
  C227     1.0000 0.99030  0.00980  0.86540  Biso   1.000  C
  C228     1.0000 0.98060  0.01040  0.76540  Biso   1.000  C
  H120     1.0000 0.02000  0.94460  0.72170  Biso   1.000  H
  H121     1.0000 0.69590  0.70510  0.18980  Biso   1.000  H
  C229     1.0000 0.77240  0.66120  0.23920  Biso   1.000  C
  C230     1.0000 0.75300  0.55760  0.18470  Biso   1.000  C
  H122     1.0000 0.66410  0.52170  0.09350  Biso   1.000  H
  H123     1.0000 0.64250  0.97330  0.83580  Biso   1.000  H
  C231     1.0000 0.75960  0.04460  0.84830  Biso   1.000  C
  C232     1.0000 0.85560  0.09890  0.94970  Biso   1.000  C
  H124     1.0000 0.81470  0.07250  0.01780  Biso   1.000  H
  N37      1.0000 0.95970  0.53450  0.33440  Biso   1.000  N
  H125     1.0000 0.99500  0.54030  0.42570  Biso   1.000  H
  H126     1.0000 0.93510  0.51270  0.24300  Biso   1.000  H
  N38      1.0000 0.80250  0.57455  0.38691  Biso   1.000  N
  H127     1.0000 0.70830  0.52960  0.30190  Biso   1.000  H
  H128     1.0000 0.87860  0.61170  0.47850  Biso   1.000  H
  N39      1.0000 0.96600  0.72488  0.37488  Biso   1.000  N
  H129     1.0000 0.00560  0.73840  0.30550  Biso   1.000  H
  H130     1.0000 0.93790  0.73200  0.45060  Biso   1.000  H
  H131     1.0000 0.98080  0.02590  0.90210  Biso   1.000  H
  H132     1.0000 0.96460  0.02750  0.73020  Biso   1.000  H
  N40      1.0000 0.79450  0.60768  0.23952  Biso   1.000  N
  H133     1.0000 0.80120  0.69760  0.27690  Biso   1.000  H
  H134     1.0000 0.76760  0.51910  0.18360  Biso   1.000  H
  H135     1.0000 0.74510  0.03790  0.80400  Biso   1.000  H
  H136     1.0000 0.91100  0.13110  0.97910  Biso   1.000  H
  Ag4      1.0000 0.90176  0.61255  0.33748  Biso   1.000  Ag
