data_image0
_cell_length_a       9.6256
_cell_length_b       23.436
_cell_length_c       41.593
_cell_angle_alpha    90
_cell_angle_beta     90
_cell_angle_gamma    90

_symmetry_space_group_name_H-M    "P 1"
_symmetry_int_tables_number       1

loop_
  _symmetry_equiv_pos_as_xyz
  'x, y, z'

loop_
  _atom_site_label
  _atom_site_occupancy
  _atom_site_fract_x
  _atom_site_fract_y
  _atom_site_fract_z
  _atom_site_thermal_displace_type
  _atom_site_B_iso_or_equiv
  _atom_site_type_symbol
  Zn1      1.0000 0.79659  0.50188  0.91714  Biso   1.000  Zn
  Zn2      1.0000 0.70094  0.37572  0.03945  Biso   1.000  Zn
  Zn3      1.0000 0.79692  0.37473  0.79179  Biso   1.000  Zn
  N1       1.0000 0.74970  0.44120  0.94650  Biso   1.000  N
  N2       1.0000 0.71420  0.39250  0.99328  Biso   1.000  N
  N3       1.0000 0.75430  0.47810  0.87299  Biso   1.000  N
  N4       1.0000 0.75480  0.42990  0.82595  Biso   1.000  N
  N5       1.0000 0.67940  0.56630  0.92830  Biso   1.000  N
  N6       1.0000 0.48680  0.61290  0.94460  Biso   1.000  N
  N7       1.0000 0.81770  0.42760  0.06370  Biso   1.000  N
  N8       1.0000 0.01080  0.47340  0.08070  Biso   1.000  N
  N9       1.0000 0.67320  0.39450  0.75680  Biso   1.000  N
  N10      1.0000 0.48290  0.39050  0.72360  Biso   1.000  N
  N11      1.0000 0.75700  0.29680  0.04830  Biso   1.000  N
  N12      1.0000 0.77440  0.29650  0.80850  Biso   1.000  N
  C1       1.0000 0.75910  0.44210  0.97950  Biso   1.000  C
  H1       1.0000 0.79250  0.47310  0.99110  Biso   1.000  H
  C2       1.0000 0.67180  0.35810  0.96790  Biso   1.000  C
  H2       1.0000 0.63680  0.32130  0.96960  Biso   1.000  H
  C3       1.0000 0.69060  0.38830  0.93920  Biso   1.000  C
  H3       1.0000 0.66770  0.37540  0.91870  Biso   1.000  H
  C4       1.0000 0.81250  0.43330  0.85600  Biso   1.000  C
  H4       1.0000 0.88090  0.40900  0.86390  Biso   1.000  H
  C5       1.0000 0.65610  0.47320  0.82350  Biso   1.000  C
  H5       1.0000 0.59750  0.47980  0.80610  Biso   1.000  H
  C6       1.0000 0.66150  0.50490  0.85200  Biso   1.000  C
  H6       1.0000 0.61180  0.53810  0.85620  Biso   1.000  H
  C7       1.0000 0.55280  0.56130  0.94330  Biso   1.000  C
  H7       1.0000 0.51690  0.52740  0.95140  Biso   1.000  H
  C8       1.0000 0.56920  0.65230  0.92810  Biso   1.000  C
  H8       1.0000 0.54810  0.69040  0.92410  Biso   1.000  H
  C9       1.0000 0.68920  0.62340  0.91850  Biso   1.000  C
  H9       1.0000 0.76360  0.63940  0.90740  Biso   1.000  H
  C10      1.0000 0.95480  0.43810  0.05770  Biso   1.000  C
  H10      1.0000 0.00390  0.42330  0.04030  Biso   1.000  H
  C11      1.0000 0.90870  0.48130  0.10380  Biso   1.000  C
  H11      1.0000 0.91850  0.50110  0.12310  Biso   1.000  H
  C12      1.0000 0.78810  0.45380  0.09290  Biso   1.000  C
  H12      1.0000 0.70280  0.45330  0.10340  Biso   1.000  H
  C13      1.0000 0.53840  0.36340  0.74970  Biso   1.000  C
  H13      1.0000 0.50150  0.33240  0.76070  Biso   1.000  H
  C14      1.0000 0.56980  0.43530  0.71450  Biso   1.000  C
  H14      1.0000 0.55240  0.46050  0.69770  Biso   1.000  H
  C15      1.0000 0.68560  0.43680  0.73410  Biso   1.000  C
  H15      1.0000 0.75940  0.46210  0.73230  Biso   1.000  H
  C16      1.0000 0.85330  0.27890  0.06970  Biso   1.000  C
  H16      1.0000 0.90980  0.30230  0.08220  Biso   1.000  H
  C17      1.0000 0.73270  0.27890  0.83870  Biso   1.000  C
  H17      1.0000 0.70900  0.30240  0.85590  Biso   1.000  H
  Zn4      1.0000 0.70341  0.49812  0.41714  Biso   1.000  Zn
  Zn5      1.0000 0.79906  0.62428  0.53945  Biso   1.000  Zn
  Zn6      1.0000 0.70308  0.62527  0.29179  Biso   1.000  Zn
  N13      1.0000 0.75030  0.55880  0.44650  Biso   1.000  N
  N14      1.0000 0.78580  0.60750  0.49328  Biso   1.000  N
  N15      1.0000 0.74570  0.52190  0.37299  Biso   1.000  N
  N16      1.0000 0.74520  0.57010  0.32595  Biso   1.000  N
  N17      1.0000 0.82060  0.43370  0.42830  Biso   1.000  N
  N18      1.0000 0.01320  0.38710  0.44460  Biso   1.000  N
  N19      1.0000 0.68230  0.57240  0.56370  Biso   1.000  N
  N20      1.0000 0.48920  0.52660  0.58070  Biso   1.000  N
  N21      1.0000 0.82680  0.60550  0.25680  Biso   1.000  N
  N22      1.0000 0.01710  0.60950  0.22360  Biso   1.000  N
  N23      1.0000 0.74300  0.70320  0.54830  Biso   1.000  N
  N24      1.0000 0.72560  0.70350  0.30850  Biso   1.000  N
  C18      1.0000 0.74090  0.55790  0.47950  Biso   1.000  C
  H18      1.0000 0.70750  0.52690  0.49110  Biso   1.000  H
  C19      1.0000 0.82820  0.64190  0.46790  Biso   1.000  C
  H19      1.0000 0.86320  0.67870  0.46960  Biso   1.000  H
  C20      1.0000 0.80940  0.61170  0.43920  Biso   1.000  C
  H20      1.0000 0.83230  0.62460  0.41870  Biso   1.000  H
  C21      1.0000 0.68750  0.56670  0.35600  Biso   1.000  C
  H21      1.0000 0.61910  0.59100  0.36390  Biso   1.000  H
  C22      1.0000 0.84390  0.52680  0.32350  Biso   1.000  C
  H22      1.0000 0.90250  0.52020  0.30610  Biso   1.000  H
  C23      1.0000 0.83850  0.49510  0.35200  Biso   1.000  C
  H23      1.0000 0.88820  0.46190  0.35620  Biso   1.000  H
  C24      1.0000 0.94720  0.43870  0.44330  Biso   1.000  C
  H24      1.0000 0.98310  0.47260  0.45140  Biso   1.000  H
  C25      1.0000 0.93080  0.34770  0.42810  Biso   1.000  C
  H25      1.0000 0.95190  0.30960  0.42410  Biso   1.000  H
  C26      1.0000 0.81080  0.37660  0.41850  Biso   1.000  C
  H26      1.0000 0.73640  0.36060  0.40740  Biso   1.000  H
  C27      1.0000 0.54520  0.56190  0.55770  Biso   1.000  C
  H27      1.0000 0.49610  0.57670  0.54030  Biso   1.000  H
  C28      1.0000 0.59130  0.51870  0.60380  Biso   1.000  C
  H28      1.0000 0.58150  0.49890  0.62310  Biso   1.000  H
  C29      1.0000 0.71190  0.54620  0.59290  Biso   1.000  C
  H29      1.0000 0.79720  0.54670  0.60340  Biso   1.000  H
  C30      1.0000 0.96160  0.63660  0.24970  Biso   1.000  C
  H30      1.0000 0.99850  0.66760  0.26070  Biso   1.000  H
  C31      1.0000 0.93020  0.56470  0.21450  Biso   1.000  C
  H31      1.0000 0.94760  0.53950  0.19770  Biso   1.000  H
  C32      1.0000 0.81440  0.56320  0.23410  Biso   1.000  C
  H32      1.0000 0.74060  0.53790  0.23230  Biso   1.000  H
  C33      1.0000 0.64670  0.72110  0.56970  Biso   1.000  C
  H33      1.0000 0.59020  0.69770  0.58220  Biso   1.000  H
  C34      1.0000 0.76730  0.72110  0.33870  Biso   1.000  C
  H34      1.0000 0.79100  0.69760  0.35590  Biso   1.000  H
  Zn7      1.0000 0.20341  0.00188  0.08286  Biso   1.000  Zn
  Zn8      1.0000 0.29906  0.87572  0.96055  Biso   1.000  Zn
  Zn9      1.0000 0.20308  0.87473  0.20821  Biso   1.000  Zn
  N25      1.0000 0.25030  0.94120  0.05350  Biso   1.000  N
  N26      1.0000 0.28580  0.89250  0.00672  Biso   1.000  N
  N27      1.0000 0.24570  0.97810  0.12701  Biso   1.000  N
  N28      1.0000 0.24520  0.92990  0.17405  Biso   1.000  N
  N29      1.0000 0.32060  0.06630  0.07170  Biso   1.000  N
  N30      1.0000 0.51320  0.11290  0.05540  Biso   1.000  N
  N31      1.0000 0.18230  0.92760  0.93630  Biso   1.000  N
  N32      1.0000 0.98920  0.97340  0.91930  Biso   1.000  N
  N33      1.0000 0.32680  0.89450  0.24320  Biso   1.000  N
  N34      1.0000 0.51710  0.89050  0.27640  Biso   1.000  N
  N35      1.0000 0.24300  0.79680  0.95170  Biso   1.000  N
  N36      1.0000 0.22560  0.79650  0.19150  Biso   1.000  N
  C35      1.0000 0.24090  0.94210  0.02050  Biso   1.000  C
  H35      1.0000 0.20750  0.97310  0.00890  Biso   1.000  H
  C36      1.0000 0.32820  0.85810  0.03210  Biso   1.000  C
  H36      1.0000 0.36320  0.82130  0.03040  Biso   1.000  H
  C37      1.0000 0.30940  0.88830  0.06080  Biso   1.000  C
  H37      1.0000 0.33230  0.87540  0.08130  Biso   1.000  H
  C38      1.0000 0.18750  0.93330  0.14400  Biso   1.000  C
  H38      1.0000 0.11910  0.90900  0.13610  Biso   1.000  H
  C39      1.0000 0.34390  0.97320  0.17650  Biso   1.000  C
  H39      1.0000 0.40250  0.97980  0.19390  Biso   1.000  H
  C40      1.0000 0.33850  0.00490  0.14800  Biso   1.000  C
  H40      1.0000 0.38820  0.03810  0.14380  Biso   1.000  H
  C41      1.0000 0.44720  0.06130  0.05670  Biso   1.000  C
  H41      1.0000 0.48310  0.02740  0.04860  Biso   1.000  H
  C42      1.0000 0.43080  0.15230  0.07190  Biso   1.000  C
  H42      1.0000 0.45190  0.19040  0.07590  Biso   1.000  H
  C43      1.0000 0.31080  0.12340  0.08150  Biso   1.000  C
  H43      1.0000 0.23640  0.13940  0.09260  Biso   1.000  H
  C44      1.0000 0.04520  0.93810  0.94230  Biso   1.000  C
  H44      1.0000 0.99610  0.92330  0.95970  Biso   1.000  H
  C45      1.0000 0.09130  0.98130  0.89620  Biso   1.000  C
  H45      1.0000 0.08150  0.00110  0.87690  Biso   1.000  H
  C46      1.0000 0.21190  0.95380  0.90710  Biso   1.000  C
  H46      1.0000 0.29720  0.95330  0.89660  Biso   1.000  H
  C47      1.0000 0.46160  0.86340  0.25030  Biso   1.000  C
  H47      1.0000 0.49850  0.83240  0.23930  Biso   1.000  H
  C48      1.0000 0.43020  0.93530  0.28550  Biso   1.000  C
  H48      1.0000 0.44760  0.96050  0.30230  Biso   1.000  H
  C49      1.0000 0.31440  0.93680  0.26590  Biso   1.000  C
  H49      1.0000 0.24060  0.96210  0.26770  Biso   1.000  H
  C50      1.0000 0.14670  0.77890  0.93030  Biso   1.000  C
  H50      1.0000 0.09020  0.80230  0.91780  Biso   1.000  H
  C51      1.0000 0.26730  0.77890  0.16130  Biso   1.000  C
  H51      1.0000 0.29100  0.80240  0.14410  Biso   1.000  H
  Zn10     1.0000 0.29659  0.99812  0.58286  Biso   1.000  Zn
  Zn11     1.0000 0.20094  0.12428  0.46055  Biso   1.000  Zn
  Zn12     1.0000 0.29692  0.12527  0.70821  Biso   1.000  Zn
  N37      1.0000 0.24970  0.05880  0.55350  Biso   1.000  N
  N38      1.0000 0.21420  0.10750  0.50672  Biso   1.000  N
  N39      1.0000 0.25430  0.02190  0.62701  Biso   1.000  N
  N40      1.0000 0.25480  0.07010  0.67405  Biso   1.000  N
  N41      1.0000 0.17940  0.93370  0.57170  Biso   1.000  N
  N42      1.0000 0.98680  0.88710  0.55540  Biso   1.000  N
  N43      1.0000 0.31770  0.07240  0.43630  Biso   1.000  N
  N44      1.0000 0.51080  0.02660  0.41930  Biso   1.000  N
  N45      1.0000 0.17320  0.10550  0.74320  Biso   1.000  N
  N46      1.0000 0.98290  0.10950  0.77640  Biso   1.000  N
  N47      1.0000 0.25700  0.20320  0.45170  Biso   1.000  N
  N48      1.0000 0.27440  0.20350  0.69150  Biso   1.000  N
  C52      1.0000 0.25910  0.05790  0.52050  Biso   1.000  C
  H52      1.0000 0.29250  0.02690  0.50890  Biso   1.000  H
  C53      1.0000 0.17180  0.14190  0.53210  Biso   1.000  C
  H53      1.0000 0.13680  0.17870  0.53040  Biso   1.000  H
  C54      1.0000 0.19060  0.11170  0.56080  Biso   1.000  C
  H54      1.0000 0.16770  0.12460  0.58130  Biso   1.000  H
  C55      1.0000 0.31250  0.06670  0.64400  Biso   1.000  C
  H55      1.0000 0.38090  0.09100  0.63610  Biso   1.000  H
  C56      1.0000 0.15610  0.02680  0.67650  Biso   1.000  C
  H56      1.0000 0.09750  0.02020  0.69390  Biso   1.000  H
  C57      1.0000 0.16150  0.99510  0.64800  Biso   1.000  C
  H57      1.0000 0.11180  0.96190  0.64380  Biso   1.000  H
  C58      1.0000 0.05280  0.93870  0.55670  Biso   1.000  C
  H58      1.0000 0.01690  0.97260  0.54860  Biso   1.000  H
  C59      1.0000 0.06920  0.84770  0.57190  Biso   1.000  C
  H59      1.0000 0.04810  0.80960  0.57590  Biso   1.000  H
  C60      1.0000 0.18920  0.87660  0.58150  Biso   1.000  C
  H60      1.0000 0.26360  0.86060  0.59260  Biso   1.000  H
  C61      1.0000 0.45480  0.06190  0.44230  Biso   1.000  C
  H61      1.0000 0.50390  0.07670  0.45970  Biso   1.000  H
  C62      1.0000 0.40870  0.01870  0.39620  Biso   1.000  C
  H62      1.0000 0.41850  0.99890  0.37690  Biso   1.000  H
  C63      1.0000 0.28810  0.04620  0.40710  Biso   1.000  C
  H63      1.0000 0.20280  0.04670  0.39660  Biso   1.000  H
  C64      1.0000 0.03840  0.13660  0.75030  Biso   1.000  C
  H64      1.0000 0.00150  0.16760  0.73930  Biso   1.000  H
  C65      1.0000 0.06980  0.06470  0.78550  Biso   1.000  C
  H65      1.0000 0.05240  0.03950  0.80230  Biso   1.000  H
  C66      1.0000 0.18560  0.06320  0.76590  Biso   1.000  C
  H66      1.0000 0.25940  0.03790  0.76770  Biso   1.000  H
  C67      1.0000 0.35330  0.22110  0.43030  Biso   1.000  C
  H67      1.0000 0.40980  0.19770  0.41780  Biso   1.000  H
  C68      1.0000 0.23270  0.22110  0.66130  Biso   1.000  C
  H68      1.0000 0.20900  0.19760  0.64410  Biso   1.000  H
  Zn13     1.0000 0.20341  0.49812  0.08286  Biso   1.000  Zn
  Zn14     1.0000 0.29906  0.62428  0.96055  Biso   1.000  Zn
  Zn15     1.0000 0.20308  0.62527  0.20821  Biso   1.000  Zn
  N49      1.0000 0.25030  0.55880  0.05350  Biso   1.000  N
  N50      1.0000 0.28580  0.60750  0.00672  Biso   1.000  N
  N51      1.0000 0.24570  0.52190  0.12701  Biso   1.000  N
  N52      1.0000 0.24520  0.57010  0.17405  Biso   1.000  N
  N53      1.0000 0.32060  0.43370  0.07170  Biso   1.000  N
  N54      1.0000 0.51320  0.38710  0.05540  Biso   1.000  N
  N55      1.0000 0.18230  0.57240  0.93630  Biso   1.000  N
  N56      1.0000 0.98920  0.52660  0.91930  Biso   1.000  N
  N57      1.0000 0.32680  0.60550  0.24320  Biso   1.000  N
  N58      1.0000 0.51710  0.60950  0.27640  Biso   1.000  N
  N59      1.0000 0.24300  0.70320  0.95170  Biso   1.000  N
  N60      1.0000 0.22560  0.70350  0.19150  Biso   1.000  N
  C69      1.0000 0.24090  0.55790  0.02050  Biso   1.000  C
  H69      1.0000 0.20750  0.52690  0.00890  Biso   1.000  H
  C70      1.0000 0.32820  0.64190  0.03210  Biso   1.000  C
  H70      1.0000 0.36320  0.67870  0.03040  Biso   1.000  H
  C71      1.0000 0.30940  0.61170  0.06080  Biso   1.000  C
  H71      1.0000 0.33230  0.62460  0.08130  Biso   1.000  H
  C72      1.0000 0.18750  0.56670  0.14400  Biso   1.000  C
  H72      1.0000 0.11910  0.59100  0.13610  Biso   1.000  H
  C73      1.0000 0.34390  0.52680  0.17650  Biso   1.000  C
  H73      1.0000 0.40250  0.52020  0.19390  Biso   1.000  H
  C74      1.0000 0.33850  0.49510  0.14800  Biso   1.000  C
  H74      1.0000 0.38820  0.46190  0.14380  Biso   1.000  H
  C75      1.0000 0.44720  0.43870  0.05670  Biso   1.000  C
  H75      1.0000 0.48310  0.47260  0.04860  Biso   1.000  H
  C76      1.0000 0.43080  0.34770  0.07190  Biso   1.000  C
  H76      1.0000 0.45190  0.30960  0.07590  Biso   1.000  H
  C77      1.0000 0.31080  0.37660  0.08150  Biso   1.000  C
  H77      1.0000 0.23640  0.36060  0.09260  Biso   1.000  H
  C78      1.0000 0.04520  0.56190  0.94230  Biso   1.000  C
  H78      1.0000 0.99610  0.57670  0.95970  Biso   1.000  H
  C79      1.0000 0.09130  0.51870  0.89620  Biso   1.000  C
  H79      1.0000 0.08150  0.49890  0.87690  Biso   1.000  H
  C80      1.0000 0.21190  0.54620  0.90710  Biso   1.000  C
  H80      1.0000 0.29720  0.54670  0.89660  Biso   1.000  H
  C81      1.0000 0.46160  0.63660  0.25030  Biso   1.000  C
  H81      1.0000 0.49850  0.66760  0.23930  Biso   1.000  H
  C82      1.0000 0.43020  0.56470  0.28550  Biso   1.000  C
  H82      1.0000 0.44760  0.53950  0.30230  Biso   1.000  H
  C83      1.0000 0.31440  0.56320  0.26590  Biso   1.000  C
  H83      1.0000 0.24060  0.53790  0.26770  Biso   1.000  H
  C84      1.0000 0.14670  0.72110  0.93030  Biso   1.000  C
  H84      1.0000 0.09020  0.69770  0.91780  Biso   1.000  H
  C85      1.0000 0.26730  0.72110  0.16130  Biso   1.000  C
  H85      1.0000 0.29100  0.69760  0.14410  Biso   1.000  H
  Zn16     1.0000 0.29659  0.50188  0.58286  Biso   1.000  Zn
  Zn17     1.0000 0.20094  0.37572  0.46055  Biso   1.000  Zn
  Zn18     1.0000 0.29692  0.37473  0.70821  Biso   1.000  Zn
  N61      1.0000 0.24970  0.44120  0.55350  Biso   1.000  N
  N62      1.0000 0.21420  0.39250  0.50672  Biso   1.000  N
  N63      1.0000 0.25430  0.47810  0.62701  Biso   1.000  N
  N64      1.0000 0.25480  0.42990  0.67405  Biso   1.000  N
  N65      1.0000 0.17940  0.56630  0.57170  Biso   1.000  N
  N66      1.0000 0.98680  0.61290  0.55540  Biso   1.000  N
  N67      1.0000 0.31770  0.42760  0.43630  Biso   1.000  N
  N68      1.0000 0.51080  0.47340  0.41930  Biso   1.000  N
  N69      1.0000 0.17320  0.39450  0.74320  Biso   1.000  N
  N70      1.0000 0.98290  0.39050  0.77640  Biso   1.000  N
  N71      1.0000 0.25700  0.29680  0.45170  Biso   1.000  N
  N72      1.0000 0.27440  0.29650  0.69150  Biso   1.000  N
  C86      1.0000 0.25910  0.44210  0.52050  Biso   1.000  C
  H86      1.0000 0.29250  0.47310  0.50890  Biso   1.000  H
  C87      1.0000 0.17180  0.35810  0.53210  Biso   1.000  C
  H87      1.0000 0.13680  0.32130  0.53040  Biso   1.000  H
  C88      1.0000 0.19060  0.38830  0.56080  Biso   1.000  C
  H88      1.0000 0.16770  0.37540  0.58130  Biso   1.000  H
  C89      1.0000 0.31250  0.43330  0.64400  Biso   1.000  C
  H89      1.0000 0.38090  0.40900  0.63610  Biso   1.000  H
  C90      1.0000 0.15610  0.47320  0.67650  Biso   1.000  C
  H90      1.0000 0.09750  0.47980  0.69390  Biso   1.000  H
  C91      1.0000 0.16150  0.50490  0.64800  Biso   1.000  C
  H91      1.0000 0.11180  0.53810  0.64380  Biso   1.000  H
  C92      1.0000 0.05280  0.56130  0.55670  Biso   1.000  C
  H92      1.0000 0.01690  0.52740  0.54860  Biso   1.000  H
  C93      1.0000 0.06920  0.65230  0.57190  Biso   1.000  C
  H93      1.0000 0.04810  0.69040  0.57590  Biso   1.000  H
  C94      1.0000 0.18920  0.62340  0.58150  Biso   1.000  C
  H94      1.0000 0.26360  0.63940  0.59260  Biso   1.000  H
  C95      1.0000 0.45480  0.43810  0.44230  Biso   1.000  C
  H95      1.0000 0.50390  0.42330  0.45970  Biso   1.000  H
  C96      1.0000 0.40870  0.48130  0.39620  Biso   1.000  C
  H96      1.0000 0.41850  0.50110  0.37690  Biso   1.000  H
  C97      1.0000 0.28810  0.45380  0.40710  Biso   1.000  C
  H97      1.0000 0.20280  0.45330  0.39660  Biso   1.000  H
  C98      1.0000 0.03840  0.36340  0.75030  Biso   1.000  C
  H98      1.0000 0.00150  0.33240  0.73930  Biso   1.000  H
  C99      1.0000 0.06980  0.43530  0.78550  Biso   1.000  C
  H99      1.0000 0.05240  0.46050  0.80230  Biso   1.000  H
  C100     1.0000 0.18560  0.43680  0.76590  Biso   1.000  C
  H100     1.0000 0.25940  0.46210  0.76770  Biso   1.000  H
  C101     1.0000 0.35330  0.27890  0.43030  Biso   1.000  C
  H101     1.0000 0.40980  0.30230  0.41780  Biso   1.000  H
  C102     1.0000 0.23270  0.27890  0.66130  Biso   1.000  C
  H102     1.0000 0.20900  0.30240  0.64410  Biso   1.000  H
  Zn19     1.0000 0.79659  0.99812  0.91714  Biso   1.000  Zn
  Zn20     1.0000 0.70094  0.12428  0.03945  Biso   1.000  Zn
  Zn21     1.0000 0.79692  0.12527  0.79179  Biso   1.000  Zn
  N73      1.0000 0.74970  0.05880  0.94650  Biso   1.000  N
  N74      1.0000 0.71420  0.10750  0.99328  Biso   1.000  N
  N75      1.0000 0.75430  0.02190  0.87299  Biso   1.000  N
  N76      1.0000 0.75480  0.07010  0.82595  Biso   1.000  N
  N77      1.0000 0.67940  0.93370  0.92830  Biso   1.000  N
  N78      1.0000 0.48680  0.88710  0.94460  Biso   1.000  N
  N79      1.0000 0.81770  0.07240  0.06370  Biso   1.000  N
  N80      1.0000 0.01080  0.02660  0.08070  Biso   1.000  N
  N81      1.0000 0.67320  0.10550  0.75680  Biso   1.000  N
  N82      1.0000 0.48290  0.10950  0.72360  Biso   1.000  N
  N83      1.0000 0.75700  0.20320  0.04830  Biso   1.000  N
  N84      1.0000 0.77440  0.20350  0.80850  Biso   1.000  N
  C103     1.0000 0.75910  0.05790  0.97950  Biso   1.000  C
  H103     1.0000 0.79250  0.02690  0.99110  Biso   1.000  H
  C104     1.0000 0.67180  0.14190  0.96790  Biso   1.000  C
  H104     1.0000 0.63680  0.17870  0.96960  Biso   1.000  H
  C105     1.0000 0.69060  0.11170  0.93920  Biso   1.000  C
  H105     1.0000 0.66770  0.12460  0.91870  Biso   1.000  H
  C106     1.0000 0.81250  0.06670  0.85600  Biso   1.000  C
  H106     1.0000 0.88090  0.09100  0.86390  Biso   1.000  H
  C107     1.0000 0.65610  0.02680  0.82350  Biso   1.000  C
  H107     1.0000 0.59750  0.02020  0.80610  Biso   1.000  H
  C108     1.0000 0.66150  0.99510  0.85200  Biso   1.000  C
  H108     1.0000 0.61180  0.96190  0.85620  Biso   1.000  H
  C109     1.0000 0.55280  0.93870  0.94330  Biso   1.000  C
  H109     1.0000 0.51690  0.97260  0.95140  Biso   1.000  H
  C110     1.0000 0.56920  0.84770  0.92810  Biso   1.000  C
  H110     1.0000 0.54810  0.80960  0.92410  Biso   1.000  H
  C111     1.0000 0.68920  0.87660  0.91850  Biso   1.000  C
  H111     1.0000 0.76360  0.86060  0.90740  Biso   1.000  H
  C112     1.0000 0.95480  0.06190  0.05770  Biso   1.000  C
  H112     1.0000 0.00390  0.07670  0.04030  Biso   1.000  H
  C113     1.0000 0.90870  0.01870  0.10380  Biso   1.000  C
  H113     1.0000 0.91850  0.99890  0.12310  Biso   1.000  H
  C114     1.0000 0.78810  0.04620  0.09290  Biso   1.000  C
  H114     1.0000 0.70280  0.04670  0.10340  Biso   1.000  H
  C115     1.0000 0.53840  0.13660  0.74970  Biso   1.000  C
  H115     1.0000 0.50150  0.16760  0.76070  Biso   1.000  H
  C116     1.0000 0.56980  0.06470  0.71450  Biso   1.000  C
  H116     1.0000 0.55240  0.03950  0.69770  Biso   1.000  H
  C117     1.0000 0.68560  0.06320  0.73410  Biso   1.000  C
  H117     1.0000 0.75940  0.03790  0.73230  Biso   1.000  H
  C118     1.0000 0.85330  0.22110  0.06970  Biso   1.000  C
  H118     1.0000 0.90980  0.19770  0.08220  Biso   1.000  H
  C119     1.0000 0.73270  0.22110  0.83870  Biso   1.000  C
  H119     1.0000 0.70900  0.19760  0.85590  Biso   1.000  H
  Zn22     1.0000 0.70341  0.00188  0.41714  Biso   1.000  Zn
  Zn23     1.0000 0.79906  0.87572  0.53945  Biso   1.000  Zn
  Zn24     1.0000 0.70308  0.87473  0.29179  Biso   1.000  Zn
  N85      1.0000 0.75030  0.94120  0.44650  Biso   1.000  N
  N86      1.0000 0.78580  0.89250  0.49328  Biso   1.000  N
  N87      1.0000 0.74570  0.97810  0.37299  Biso   1.000  N
  N88      1.0000 0.74520  0.92990  0.32595  Biso   1.000  N
  N89      1.0000 0.82060  0.06630  0.42830  Biso   1.000  N
  N90      1.0000 0.01320  0.11290  0.44460  Biso   1.000  N
  N91      1.0000 0.68230  0.92760  0.56370  Biso   1.000  N
  N92      1.0000 0.48920  0.97340  0.58070  Biso   1.000  N
  N93      1.0000 0.82680  0.89450  0.25680  Biso   1.000  N
  N94      1.0000 0.01710  0.89050  0.22360  Biso   1.000  N
  N95      1.0000 0.74300  0.79680  0.54830  Biso   1.000  N
  N96      1.0000 0.72560  0.79650  0.30850  Biso   1.000  N
  C120     1.0000 0.74090  0.94210  0.47950  Biso   1.000  C
  H120     1.0000 0.70750  0.97310  0.49110  Biso   1.000  H
  C121     1.0000 0.82820  0.85810  0.46790  Biso   1.000  C
  H121     1.0000 0.86320  0.82130  0.46960  Biso   1.000  H
  C122     1.0000 0.80940  0.88830  0.43920  Biso   1.000  C
  H122     1.0000 0.83230  0.87540  0.41870  Biso   1.000  H
  C123     1.0000 0.68750  0.93330  0.35600  Biso   1.000  C
  H123     1.0000 0.61910  0.90900  0.36390  Biso   1.000  H
  C124     1.0000 0.84390  0.97320  0.32350  Biso   1.000  C
  H124     1.0000 0.90250  0.97980  0.30610  Biso   1.000  H
  C125     1.0000 0.83850  0.00490  0.35200  Biso   1.000  C
  H125     1.0000 0.88820  0.03810  0.35620  Biso   1.000  H
  C126     1.0000 0.94720  0.06130  0.44330  Biso   1.000  C
  H126     1.0000 0.98310  0.02740  0.45140  Biso   1.000  H
  C127     1.0000 0.93080  0.15230  0.42810  Biso   1.000  C
  H127     1.0000 0.95190  0.19040  0.42410  Biso   1.000  H
  C128     1.0000 0.81080  0.12340  0.41850  Biso   1.000  C
  H128     1.0000 0.73640  0.13940  0.40740  Biso   1.000  H
  C129     1.0000 0.54520  0.93810  0.55770  Biso   1.000  C
  H129     1.0000 0.49610  0.92330  0.54030  Biso   1.000  H
  C130     1.0000 0.59130  0.98130  0.60380  Biso   1.000  C
  H130     1.0000 0.58150  0.00110  0.62310  Biso   1.000  H
  C131     1.0000 0.71190  0.95380  0.59290  Biso   1.000  C
  H131     1.0000 0.79720  0.95330  0.60340  Biso   1.000  H
  C132     1.0000 0.96160  0.86340  0.24970  Biso   1.000  C
  H132     1.0000 0.99850  0.83240  0.26070  Biso   1.000  H
  C133     1.0000 0.93020  0.93530  0.21450  Biso   1.000  C
  H133     1.0000 0.94760  0.96050  0.19770  Biso   1.000  H
  C134     1.0000 0.81440  0.93680  0.23410  Biso   1.000  C
  H134     1.0000 0.74060  0.96210  0.23230  Biso   1.000  H
  C135     1.0000 0.64670  0.77890  0.56970  Biso   1.000  C
  H135     1.0000 0.59020  0.80230  0.58220  Biso   1.000  H
  C136     1.0000 0.76730  0.77890  0.33870  Biso   1.000  C
  H136     1.0000 0.79100  0.80240  0.35590  Biso   1.000  H
  C137     1.0000 0.70390  0.25000  0.03600  Biso   1.000  C
  H137     1.0000 0.63580  0.25000  0.02010  Biso   1.000  H
  C138     1.0000 0.79900  0.25000  0.78950  Biso   1.000  C
  H138     1.0000 0.82670  0.25000  0.76810  Biso   1.000  H
  C139     1.0000 0.79610  0.75000  0.53600  Biso   1.000  C
  H139     1.0000 0.86420  0.75000  0.52010  Biso   1.000  H
  C140     1.0000 0.70100  0.75000  0.28950  Biso   1.000  C
  H140     1.0000 0.67330  0.75000  0.26810  Biso   1.000  H
  C141     1.0000 0.29610  0.75000  0.96400  Biso   1.000  C
  H141     1.0000 0.36420  0.75000  0.97990  Biso   1.000  H
  C142     1.0000 0.20100  0.75000  0.21050  Biso   1.000  C
  H142     1.0000 0.17330  0.75000  0.23190  Biso   1.000  H
  C143     1.0000 0.20390  0.25000  0.46400  Biso   1.000  C
  H143     1.0000 0.13580  0.25000  0.47990  Biso   1.000  H
  C144     1.0000 0.29900  0.25000  0.71050  Biso   1.000  C
  H144     1.0000 0.32670  0.25000  0.73190  Biso   1.000  H
