data_image0
_cell_length_a       12.6784
_cell_length_b       13.5433
_cell_length_c       17.1322
_cell_angle_alpha    77.839
_cell_angle_beta     76.404
_cell_angle_gamma    80.614

_symmetry_space_group_name_H-M    P 1
_symmetry_int_tables_number       1

loop_
  _symmetry_equiv_pos_as_xyz
  'x, y, z'

loop_
  _atom_site_label
  _atom_site_occupancy
  _atom_site_fract_x
  _atom_site_fract_y
  _atom_site_fract_z
  _atom_site_thermal_displace_type
  _atom_site_B_iso_or_equiv
  _atom_site_type_symbol
  Cd1      1.0000 0.47832  0.52757  0.73899  Biso   1.000  Cd
  Cd2      1.0000 0.72066  0.24598  0.24118  Biso   1.000  Cd
  Cd3      1.0000 0.71925  0.30059  0.74905  Biso   1.000  Cd
  Cd4      1.0000 0.52168  0.47243  0.26101  Biso   1.000  Cd
  Cd5      1.0000 0.27934  0.75402  0.75882  Biso   1.000  Cd
  Cd6      1.0000 0.28075  0.69941  0.25095  Biso   1.000  Cd
  H1       1.0000 0.80080  0.67960  0.65780  Biso   1.000  H
  H2       1.0000 0.95440  0.74860  0.65780  Biso   1.000  H
  H3       1.0000 0.97620  0.56710  0.87230  Biso   1.000  H
  H4       1.0000 0.72150  0.54920  0.97150  Biso   1.000  H
  H5       1.0000 0.72550  0.25270  0.06960  Biso   1.000  H
  H6       1.0000 0.84610  0.21350  0.95320  Biso   1.000  H
  H7       1.0000 0.56370  0.34350  0.91260  Biso   1.000  H
  H8       1.0000 0.59040  0.09420  0.04240  Biso   1.000  H
  H9       1.0000 0.46330  0.09960  0.05410  Biso   1.000  H
  H10      1.0000 0.53880  0.09060  0.96850  Biso   1.000  H
  H11      1.0000 0.45390  0.35660  0.03490  Biso   1.000  H
  H12      1.0000 0.38160  0.26730  0.06960  Biso   1.000  H
  H13      1.0000 0.48510  0.26870  0.10430  Biso   1.000  H
  H14      1.0000 0.66590  0.44420  0.58990  Biso   1.000  H
  H15      1.0000 0.93630  0.40830  0.50280  Biso   1.000  H
  H16      1.0000 0.90750  0.40300  0.41980  Biso   1.000  H
  H17      1.0000 0.92970  0.50670  0.43600  Biso   1.000  H
  H18      1.0000 0.73980  0.59820  0.42650  Biso   1.000  H
  H19      1.0000 0.72720  0.50270  0.39270  Biso   1.000  H
  H20      1.0000 0.64150  0.53530  0.46780  Biso   1.000  H
  H21      1.0000 0.52580  0.70740  0.45020  Biso   1.000  H
  H22      1.0000 0.16550  0.85090  0.47290  Biso   1.000  H
  H23      1.0000 0.22180  0.74830  0.58430  Biso   1.000  H
  H24      1.0000 0.30500  0.02130  0.41380  Biso   1.000  H
  H25      1.0000 0.32000  0.11680  0.34410  Biso   1.000  H
  H26      1.0000 0.20310  0.09800  0.39590  Biso   1.000  H
  H27      1.0000 0.14430  0.08560  0.25450  Biso   1.000  H
  H28      1.0000 0.25760  0.12800  0.22380  Biso   1.000  H
  H29      1.0000 0.23990  0.02830  0.19830  Biso   1.000  H
  H30      1.0000 0.67540  0.77360  0.15320  Biso   1.000  H
  H31      1.0000 0.71710  0.93710  0.13640  Biso   1.000  H
  H32      1.0000 0.50000  0.97620  0.34140  Biso   1.000  H
  H33      1.0000 0.07340  0.32450  0.68760  Biso   1.000  H
  H34      1.0000 0.17460  0.33420  0.72220  Biso   1.000  H
  H35      1.0000 0.12630  0.23020  0.74180  Biso   1.000  H
  H36      1.0000 0.13440  0.29570  0.88740  Biso   1.000  H
  H37      1.0000 0.13220  0.40980  0.84360  Biso   1.000  H
  H38      1.0000 0.03360  0.37470  0.91300  Biso   1.000  H
  H39      1.0000 0.19920  0.32040  0.34220  Biso   1.000  H
  H40      1.0000 0.04560  0.25140  0.34220  Biso   1.000  H
  H41      1.0000 0.02380  0.43290  0.12770  Biso   1.000  H
  H42      1.0000 0.27850  0.45080  0.02850  Biso   1.000  H
  H43      1.0000 0.27450  0.74730  0.93040  Biso   1.000  H
  H44      1.0000 0.15390  0.78650  0.04680  Biso   1.000  H
  H45      1.0000 0.43630  0.65650  0.08740  Biso   1.000  H
  H46      1.0000 0.40960  0.90580  0.95760  Biso   1.000  H
  H47      1.0000 0.53670  0.90040  0.94590  Biso   1.000  H
  H48      1.0000 0.46120  0.90940  0.03150  Biso   1.000  H
  H49      1.0000 0.54610  0.64340  0.96510  Biso   1.000  H
  H50      1.0000 0.61840  0.73270  0.93040  Biso   1.000  H
  H51      1.0000 0.51490  0.73130  0.89570  Biso   1.000  H
  H52      1.0000 0.33410  0.55580  0.41010  Biso   1.000  H
  H53      1.0000 0.06370  0.59170  0.49720  Biso   1.000  H
  H54      1.0000 0.09250  0.59700  0.58020  Biso   1.000  H
  H55      1.0000 0.07030  0.49330  0.56400  Biso   1.000  H
  H56      1.0000 0.26020  0.40180  0.57350  Biso   1.000  H
  H57      1.0000 0.27280  0.49730  0.60730  Biso   1.000  H
  H58      1.0000 0.35850  0.46470  0.53220  Biso   1.000  H
  H59      1.0000 0.47420  0.29260  0.54980  Biso   1.000  H
  H60      1.0000 0.83450  0.14910  0.52710  Biso   1.000  H
  H61      1.0000 0.77820  0.25170  0.41570  Biso   1.000  H
  H62      1.0000 0.69500  0.97870  0.58620  Biso   1.000  H
  H63      1.0000 0.68000  0.88320  0.65590  Biso   1.000  H
  H64      1.0000 0.79690  0.90200  0.60410  Biso   1.000  H
  H65      1.0000 0.85570  0.91440  0.74550  Biso   1.000  H
  H66      1.0000 0.74240  0.87200  0.77620  Biso   1.000  H
  H67      1.0000 0.76010  0.97170  0.80170  Biso   1.000  H
  H68      1.0000 0.32460  0.22640  0.84680  Biso   1.000  H
  H69      1.0000 0.28290  0.06290  0.86360  Biso   1.000  H
  H70      1.0000 0.50000  0.02380  0.65860  Biso   1.000  H
  H71      1.0000 0.92660  0.67550  0.31240  Biso   1.000  H
  H72      1.0000 0.82540  0.66580  0.27780  Biso   1.000  H
  H73      1.0000 0.87370  0.76980  0.25820  Biso   1.000  H
  H74      1.0000 0.86560  0.70430  0.11260  Biso   1.000  H
  H75      1.0000 0.86780  0.59020  0.15640  Biso   1.000  H
  H76      1.0000 0.96640  0.62530  0.08700  Biso   1.000  H
  C1       1.0000 0.69480  0.53910  0.75960  Biso   1.000  C
  C2       1.0000 0.79770  0.57920  0.76230  Biso   1.000  C
  C3       1.0000 0.83700  0.65590  0.70070  Biso   1.000  C
  C4       1.0000 0.92820  0.69840  0.70090  Biso   1.000  C
  C5       1.0000 0.98120  0.66540  0.76640  Biso   1.000  C
  C6       1.0000 0.94130  0.58870  0.82860  Biso   1.000  C
  C7       1.0000 0.85190  0.54320  0.82810  Biso   1.000  C
  C8       1.0000 0.08270  0.70770  0.76770  Biso   1.000  C
  C9       1.0000 0.81680  0.45880  0.89670  Biso   1.000  C
  C10      1.0000 0.74640  0.48160  0.96750  Biso   1.000  C
  C11      1.0000 0.71210  0.40480  0.03320  Biso   1.000  C
  C12      1.0000 0.74890  0.30450  0.02690  Biso   1.000  C
  C13      1.0000 0.82070  0.28100  0.95700  Biso   1.000  C
  C14      1.0000 0.85500  0.35810  0.89260  Biso   1.000  C
  C15      1.0000 0.63490  0.43200  0.10830  Biso   1.000  C
  C16      1.0000 0.93030  0.32670  0.81730  Biso   1.000  C
  C17      1.0000 0.57280  0.27280  0.92460  Biso   1.000  C
  C18      1.0000 0.52900  0.11910  0.01690  Biso   1.000  C
  C19      1.0000 0.45480  0.28500  0.05620  Biso   1.000  C
  C20      1.0000 0.74060  0.42840  0.57130  Biso   1.000  C
  C21      1.0000 0.89910  0.44430  0.46050  Biso   1.000  C
  C22      1.0000 0.71720  0.53130  0.44100  Biso   1.000  C
  C23      1.0000 0.41690  0.64500  0.59910  Biso   1.000  C
  C24      1.0000 0.37970  0.71510  0.52770  Biso   1.000  C
  C25      1.0000 0.45380  0.73740  0.45460  Biso   1.000  C
  C26      1.0000 0.42340  0.80300  0.38810  Biso   1.000  C
  C27      1.0000 0.31240  0.84540  0.39520  Biso   1.000  C
  C28      1.0000 0.23830  0.82310  0.46860  Biso   1.000  C
  C29      1.0000 0.27140  0.76050  0.53480  Biso   1.000  C
  C30      1.0000 0.27300  0.90680  0.32260  Biso   1.000  C
  C31      1.0000 0.27290  0.06580  0.37180  Biso   1.000  C
  C32      1.0000 0.22200  0.06740  0.24130  Biso   1.000  C
  C33      1.0000 0.54450  0.66690  0.26770  Biso   1.000  C
  C34      1.0000 0.56130  0.77650  0.25750  Biso   1.000  C
  C35      1.0000 0.64000  0.81430  0.19130  Biso   1.000  C
  C36      1.0000 0.66600  0.91170  0.18180  Biso   1.000  C
  C37      1.0000 0.61660  0.97130  0.23920  Biso   1.000  C
  C38      1.0000 0.53560  0.93460  0.30400  Biso   1.000  C
  C39      1.0000 0.50670  0.83800  0.31420  Biso   1.000  C
  C40      1.0000 0.65500  0.07190  0.23520  Biso   1.000  C
  C41      1.0000 0.10880  0.30280  0.73320  Biso   1.000  C
  C42      1.0000 0.08860  0.35520  0.86810  Biso   1.000  C
  C43      1.0000 0.30520  0.46090  0.24040  Biso   1.000  C
  C44      1.0000 0.20230  0.42080  0.23770  Biso   1.000  C
  C45      1.0000 0.16300  0.34410  0.29930  Biso   1.000  C
  C46      1.0000 0.07180  0.30160  0.29910  Biso   1.000  C
  C47      1.0000 0.01880  0.33460  0.23360  Biso   1.000  C
  C48      1.0000 0.05870  0.41130  0.17140  Biso   1.000  C
  C49      1.0000 0.14810  0.45680  0.17190  Biso   1.000  C
  C50      1.0000 0.91730  0.29230  0.23230  Biso   1.000  C
  C51      1.0000 0.18320  0.54120  0.10330  Biso   1.000  C
  C52      1.0000 0.25360  0.51840  0.03250  Biso   1.000  C
  C53      1.0000 0.28790  0.59520  0.96680  Biso   1.000  C
  C54      1.0000 0.25110  0.69550  0.97310  Biso   1.000  C
  C55      1.0000 0.17930  0.71900  0.04300  Biso   1.000  C
  C56      1.0000 0.14500  0.64190  0.10740  Biso   1.000  C
  C57      1.0000 0.36510  0.56800  0.89170  Biso   1.000  C
  C58      1.0000 0.06970  0.67330  0.18270  Biso   1.000  C
  C59      1.0000 0.42720  0.72720  0.07540  Biso   1.000  C
  C60      1.0000 0.47100  0.88090  0.98310  Biso   1.000  C
  C61      1.0000 0.54520  0.71500  0.94380  Biso   1.000  C
  C62      1.0000 0.25940  0.57160  0.42870  Biso   1.000  C
  C63      1.0000 0.10090  0.55570  0.53950  Biso   1.000  C
  C64      1.0000 0.28280  0.46870  0.55900  Biso   1.000  C
  C65      1.0000 0.58310  0.35500  0.40090  Biso   1.000  C
  C66      1.0000 0.62030  0.28490  0.47230  Biso   1.000  C
  C67      1.0000 0.54620  0.26260  0.54540  Biso   1.000  C
  C68      1.0000 0.57660  0.19700  0.61190  Biso   1.000  C
  C69      1.0000 0.68760  0.15460  0.60480  Biso   1.000  C
  C70      1.0000 0.76170  0.17690  0.53140  Biso   1.000  C
  C71      1.0000 0.72860  0.23950  0.46520  Biso   1.000  C
  C72      1.0000 0.72700  0.09320  0.67740  Biso   1.000  C
  C73      1.0000 0.72710  0.93420  0.62820  Biso   1.000  C
  C74      1.0000 0.77800  0.93260  0.75870  Biso   1.000  C
  C75      1.0000 0.45550  0.33310  0.73230  Biso   1.000  C
  C76      1.0000 0.43870  0.22350  0.74250  Biso   1.000  C
  C77      1.0000 0.36000  0.18570  0.80870  Biso   1.000  C
  C78      1.0000 0.33400  0.08830  0.81820  Biso   1.000  C
  C79      1.0000 0.38340  0.02870  0.76080  Biso   1.000  C
  C80      1.0000 0.46440  0.06540  0.69600  Biso   1.000  C
  C81      1.0000 0.49330  0.16200  0.68580  Biso   1.000  C
  C82      1.0000 0.34500  0.92810  0.76480  Biso   1.000  C
  C83      1.0000 0.89120  0.69720  0.26680  Biso   1.000  C
  C84      1.0000 0.91140  0.64480  0.13190  Biso   1.000  C
  N1       1.0000 0.52100  0.22830  0.99540  Biso   1.000  N
  N2       1.0000 0.78260  0.46710  0.49570  Biso   1.000  N
  N3       1.0000 0.03530  0.33270  0.80660  Biso   1.000  N
  N4       1.0000 0.25860  0.00690  0.31340  Biso   1.000  N
  N5       1.0000 0.47900  0.77170  0.00460  Biso   1.000  N
  N6       1.0000 0.21740  0.53290  0.50430  Biso   1.000  N
  N7       1.0000 0.96470  0.66730  0.19340  Biso   1.000  N
  N8       1.0000 0.74140  0.99310  0.68660  Biso   1.000  N
  O1       1.0000 0.89320  0.29400  0.76800  Biso   1.000  O
  O2       1.0000 0.67530  0.45190  0.79650  Biso   1.000  O
  O3       1.0000 0.63200  0.59800  0.71900  Biso   1.000  O
  O4       1.0000 0.61510  0.11920  0.29500  Biso   1.000  O
  O5       1.0000 0.72790  0.10440  0.17720  Biso   1.000  O
  O6       1.0000 0.50240  0.58610  0.58890  Biso   1.000  O
  O7       1.0000 0.35760  0.64750  0.67020  Biso   1.000  O
  O8       1.0000 0.59550  0.52000  0.11170  Biso   1.000  O
  O9       1.0000 0.61250  0.36010  0.16980  Biso   1.000  O
  O10      1.0000 0.11460  0.78110  0.71370  Biso   1.000  O
  O11      1.0000 0.13380  0.66570  0.82250  Biso   1.000  O
  O12      1.0000 0.44780  0.64250  0.28640  Biso   1.000  O
  O13      1.0000 0.62490  0.60310  0.25700  Biso   1.000  O
  O14      1.0000 0.79260  0.37250  0.61990  Biso   1.000  O
  O15      1.0000 0.63360  0.22610  0.87260  Biso   1.000  O
  O16      1.0000 0.25370  0.86340  0.27100  Biso   1.000  O
  O17      1.0000 0.10680  0.70600  0.23200  Biso   1.000  O
  O18      1.0000 0.32470  0.54810  0.20350  Biso   1.000  O
  O19      1.0000 0.36800  0.40200  0.28100  Biso   1.000  O
  O20      1.0000 0.38490  0.88080  0.70500  Biso   1.000  O
  O21      1.0000 0.27210  0.89560  0.82280  Biso   1.000  O
  O22      1.0000 0.49760  0.41390  0.41110  Biso   1.000  O
  O23      1.0000 0.64240  0.35250  0.32980  Biso   1.000  O
  O24      1.0000 0.40450  0.48000  0.88830  Biso   1.000  O
  O25      1.0000 0.38750  0.63990  0.83020  Biso   1.000  O
  O26      1.0000 0.88540  0.21890  0.28630  Biso   1.000  O
  O27      1.0000 0.86620  0.33430  0.17750  Biso   1.000  O
  O28      1.0000 0.55220  0.35750  0.71360  Biso   1.000  O
  O29      1.0000 0.37510  0.39690  0.74300  Biso   1.000  O
  O30      1.0000 0.20740  0.62750  0.38010  Biso   1.000  O
  O31      1.0000 0.36640  0.77390  0.12740  Biso   1.000  O
  O32      1.0000 0.74630  0.13660  0.72900  Biso   1.000  O
