data_image0
_cell_length_a       12.8454
_cell_length_b       24.9959
_cell_length_c       24.9959
_cell_angle_alpha    62.8717
_cell_angle_beta     80.1366
_cell_angle_gamma    99.8634

_symmetry_space_group_name_H-M    P 1
_symmetry_int_tables_number       1

loop_
  _symmetry_equiv_pos_as_xyz
  'x, y, z'

loop_
  _atom_site_label
  _atom_site_occupancy
  _atom_site_fract_x
  _atom_site_fract_y
  _atom_site_fract_z
  _atom_site_thermal_displace_type
  _atom_site_B_iso_or_equiv
  _atom_site_type_symbol
  Cu1      1.0000 0.54680  0.45688  0.00000  Biso   1.000  Cu
  Cu2      1.0000 0.54680  1.00000  0.54312  Biso   1.000  Cu
  Cu3      1.0000 0.08992  0.54312  0.45688  Biso   1.000  Cu
  Cu4      1.0000 0.45320  0.54311  0.00000  Biso   1.000  Cu
  Cu5      1.0000 0.91009  0.45689  0.54311  Biso   1.000  Cu
  Cu6      1.0000 0.45320  0.00000  0.45688  Biso   1.000  Cu
  H1       1.0000 0.42370  0.42900  0.86460  Biso   1.000  H
  H2       1.0000 0.28590  0.56380  0.86260  Biso   1.000  H
  H3       1.0000 0.64710  0.33020  0.78170  Biso   1.000  H
  H4       1.0000 0.44890  0.30540  0.82710  Biso   1.000  H
  H5       1.0000 0.81550  0.45220  0.70360  Biso   1.000  H
  H6       1.0000 0.76340  0.50720  0.69980  Biso   1.000  H
  H7       1.0000 0.75540  0.48310  0.65080  Biso   1.000  H
  H8       1.0000 0.30130  0.36630  0.81420  Biso   1.000  H
  H9       1.0000 0.32980  0.41850  0.74190  Biso   1.000  H
  H10      1.0000 0.28830  0.86460  0.70640  Biso   1.000  H
  H11      1.0000 0.14850  0.86260  0.57360  Biso   1.000  H
  H12      1.0000 0.42880  0.78170  0.88810  Biso   1.000  H
  H13      1.0000 0.27600  0.82710  0.86750  Biso   1.000  H
  H14      1.0000 0.51910  0.70360  0.84420  Biso   1.000  H
  H15      1.0000 0.46320  0.69980  0.79300  Biso   1.000  H
  H16      1.0000 0.40620  0.65080  0.86610  Biso   1.000  H
  H17      1.0000 0.11550  0.81420  0.81950  Biso   1.000  H
  H18      1.0000 0.07170  0.74190  0.83960  Biso   1.000  H
  H19      1.0000 0.99470  0.70640  0.42900  Biso   1.000  H
  H20      1.0000 0.72210  0.57360  0.56380  Biso   1.000  H
  H21      1.0000 0.31690  0.88810  0.33020  Biso   1.000  H
  H22      1.0000 0.14350  0.86750  0.30540  Biso   1.000  H
  H23      1.0000 0.36330  0.84420  0.45220  Biso   1.000  H
  H24      1.0000 0.25620  0.79300  0.50720  Biso   1.000  H
  H25      1.0000 0.27230  0.86610  0.48310  Biso   1.000  H
  H26      1.0000 0.93500  0.81950  0.36630  Biso   1.000  H
  H27      1.0000 0.91130  0.83960  0.41850  Biso   1.000  H
  H28      1.0000 0.71170  0.70640  0.86460  Biso   1.000  H
  H29      1.0000 0.85150  0.57360  0.86260  Biso   1.000  H
  H30      1.0000 0.57120  0.88810  0.78170  Biso   1.000  H
  H31      1.0000 0.72400  0.86750  0.82710  Biso   1.000  H
  H32      1.0000 0.48090  0.84420  0.70360  Biso   1.000  H
  H33      1.0000 0.53680  0.79300  0.69980  Biso   1.000  H
  H34      1.0000 0.59380  0.86610  0.65080  Biso   1.000  H
  H35      1.0000 0.88450  0.81950  0.81420  Biso   1.000  H
  H36      1.0000 0.92830  0.83960  0.74190  Biso   1.000  H
  H37      1.0000 0.00530  0.42900  0.70640  Biso   1.000  H
  H38      1.0000 0.27790  0.56380  0.57360  Biso   1.000  H
  H39      1.0000 0.68310  0.33020  0.88810  Biso   1.000  H
  H40      1.0000 0.85650  0.30540  0.86750  Biso   1.000  H
  H41      1.0000 0.63670  0.45220  0.84420  Biso   1.000  H
  H42      1.0000 0.74380  0.50720  0.79300  Biso   1.000  H
  H43      1.0000 0.72770  0.48310  0.86610  Biso   1.000  H
  H44      1.0000 0.06500  0.36630  0.81950  Biso   1.000  H
  H45      1.0000 0.08870  0.41850  0.83960  Biso   1.000  H
  H46      1.0000 0.57630  0.86460  0.42900  Biso   1.000  H
  H47      1.0000 0.71410  0.86260  0.56380  Biso   1.000  H
  H48      1.0000 0.35290  0.78170  0.33020  Biso   1.000  H
  H49      1.0000 0.55110  0.82710  0.30540  Biso   1.000  H
  H50      1.0000 0.18450  0.70360  0.45220  Biso   1.000  H
  H51      1.0000 0.23660  0.69980  0.50720  Biso   1.000  H
  H52      1.0000 0.24460  0.65080  0.48310  Biso   1.000  H
  H53      1.0000 0.69870  0.81420  0.36630  Biso   1.000  H
  H54      1.0000 0.67020  0.74190  0.41850  Biso   1.000  H
  H55      1.0000 0.57630  0.57100  0.13540  Biso   1.000  H
  H56      1.0000 0.71410  0.43620  0.13740  Biso   1.000  H
  H57      1.0000 0.35290  0.66980  0.21830  Biso   1.000  H
  H58      1.0000 0.55110  0.69460  0.17290  Biso   1.000  H
  H59      1.0000 0.18450  0.54780  0.29640  Biso   1.000  H
  H60      1.0000 0.23660  0.49280  0.30020  Biso   1.000  H
  H61      1.0000 0.24460  0.51690  0.34920  Biso   1.000  H
  H62      1.0000 0.69870  0.63370  0.18580  Biso   1.000  H
  H63      1.0000 0.67020  0.58150  0.25810  Biso   1.000  H
  H64      1.0000 0.71170  0.13540  0.29360  Biso   1.000  H
  H65      1.0000 0.85150  0.13740  0.42640  Biso   1.000  H
  H66      1.0000 0.57120  0.21830  0.11190  Biso   1.000  H
  H67      1.0000 0.72400  0.17290  0.13250  Biso   1.000  H
  H68      1.0000 0.48090  0.29640  0.15580  Biso   1.000  H
  H69      1.0000 0.53680  0.30020  0.20700  Biso   1.000  H
  H70      1.0000 0.59380  0.34920  0.13390  Biso   1.000  H
  H71      1.0000 0.88450  0.18580  0.18050  Biso   1.000  H
  H72      1.0000 0.92830  0.25810  0.16040  Biso   1.000  H
  H73      1.0000 0.00530  0.29360  0.57100  Biso   1.000  H
  H74      1.0000 0.27790  0.42640  0.43620  Biso   1.000  H
  H75      1.0000 0.68310  0.11190  0.66980  Biso   1.000  H
  H76      1.0000 0.85650  0.13250  0.69460  Biso   1.000  H
  H77      1.0000 0.63670  0.15580  0.54780  Biso   1.000  H
  H78      1.0000 0.74380  0.20700  0.49280  Biso   1.000  H
  H79      1.0000 0.72770  0.13390  0.51690  Biso   1.000  H
  H80      1.0000 0.06500  0.18050  0.63370  Biso   1.000  H
  H81      1.0000 0.08870  0.16040  0.58150  Biso   1.000  H
  H82      1.0000 0.28830  0.29360  0.13540  Biso   1.000  H
  H83      1.0000 0.14850  0.42640  0.13740  Biso   1.000  H
  H84      1.0000 0.42880  0.11190  0.21830  Biso   1.000  H
  H85      1.0000 0.27600  0.13250  0.17290  Biso   1.000  H
  H86      1.0000 0.51910  0.15580  0.29640  Biso   1.000  H
  H87      1.0000 0.46320  0.20700  0.30020  Biso   1.000  H
  H88      1.0000 0.40620  0.13390  0.34920  Biso   1.000  H
  H89      1.0000 0.11550  0.18050  0.18580  Biso   1.000  H
  H90      1.0000 0.07170  0.16040  0.25810  Biso   1.000  H
  H91      1.0000 0.99470  0.57100  0.29360  Biso   1.000  H
  H92      1.0000 0.72210  0.43620  0.42640  Biso   1.000  H
  H93      1.0000 0.31690  0.66980  0.11190  Biso   1.000  H
  H94      1.0000 0.14350  0.69460  0.13250  Biso   1.000  H
  H95      1.0000 0.36330  0.54780  0.15580  Biso   1.000  H
  H96      1.0000 0.25620  0.49280  0.20700  Biso   1.000  H
  H97      1.0000 0.27230  0.51690  0.13390  Biso   1.000  H
  H98      1.0000 0.93500  0.63370  0.18050  Biso   1.000  H
  H99      1.0000 0.91130  0.58150  0.16040  Biso   1.000  H
  H100     1.0000 0.42370  0.13540  0.57100  Biso   1.000  H
  H101     1.0000 0.28590  0.13740  0.43620  Biso   1.000  H
  H102     1.0000 0.64710  0.21830  0.66980  Biso   1.000  H
  H103     1.0000 0.44890  0.17290  0.69460  Biso   1.000  H
  H104     1.0000 0.81550  0.29640  0.54780  Biso   1.000  H
  H105     1.0000 0.76340  0.30020  0.49280  Biso   1.000  H
  H106     1.0000 0.75540  0.34920  0.51690  Biso   1.000  H
  H107     1.0000 0.30130  0.18580  0.63370  Biso   1.000  H
  H108     1.0000 0.32980  0.25810  0.58150  Biso   1.000  H
  C1       1.0000 0.41658  0.49911  0.91797  Biso   1.000  C
  C2       1.0000 0.36601  0.49705  0.86812  Biso   1.000  C
  C3       1.0000 0.38226  0.45709  0.84661  Biso   1.000  C
  C4       1.0000 0.34025  0.45595  0.79930  Biso   1.000  C
  C5       1.0000 0.27280  0.49630  0.77620  Biso   1.000  C
  C6       1.0000 0.25090  0.54010  0.79810  Biso   1.000  C
  C7       1.0000 0.29860  0.53786  0.84536  Biso   1.000  C
  C8       1.0000 0.60600  0.35980  0.77380  Biso   1.000  C
  C9       1.0000 0.49660  0.34590  0.79680  Biso   1.000  C
  C10      1.0000 0.75470  0.47040  0.69420  Biso   1.000  C
  C11      1.0000 0.35280  0.40740  0.78060  Biso   1.000  C
  C12      1.0000 0.55960  0.44290  0.73300  Biso   1.000  C
  C13      1.0000 0.33455  0.91797  0.58292  Biso   1.000  C
  C14      1.0000 0.23413  0.86812  0.63483  Biso   1.000  C
  C15      1.0000 0.22887  0.84661  0.69630  Biso   1.000  C
  C16      1.0000 0.13955  0.79930  0.74475  Biso   1.000  C
  C17      1.0000 0.04900  0.77620  0.72750  Biso   1.000  C
  C18      1.0000 0.04900  0.79810  0.66180  Biso   1.000  C
  C19      1.0000 0.14396  0.84536  0.61678  Biso   1.000  C
  C20      1.0000 0.37980  0.77380  0.86640  Biso   1.000  C
  C21      1.0000 0.29340  0.79680  0.85730  Biso   1.000  C
  C22      1.0000 0.44890  0.69420  0.83540  Biso   1.000  C
  C23      1.0000 0.13340  0.78060  0.81200  Biso   1.000  C
  C24      1.0000 0.29260  0.73300  0.82410  Biso   1.000  C
  C25      1.0000 0.91747  0.58292  0.49911  Biso   1.000  C
  C26      1.0000 0.86896  0.63483  0.49705  Biso   1.000  C
  C27      1.0000 0.92517  0.69630  0.45709  Biso   1.000  C
  C28      1.0000 0.88430  0.74475  0.45595  Biso   1.000  C
  C29      1.0000 0.77650  0.72750  0.49630  Biso   1.000  C
  C30      1.0000 0.71080  0.66180  0.54010  Biso   1.000  C
  C31      1.0000 0.76074  0.61678  0.53786  Biso   1.000  C
  C32      1.0000 0.24620  0.86640  0.35980  Biso   1.000  C
  C33      1.0000 0.15070  0.85730  0.34590  Biso   1.000  C
  C34      1.0000 0.28430  0.83540  0.47040  Biso   1.000  C
  C35      1.0000 0.94540  0.81200  0.40740  Biso   1.000  C
  C36      1.0000 0.11670  0.82410  0.44290  Biso   1.000  C
  C37      1.0000 0.66545  0.58292  0.91797  Biso   1.000  C
  C38      1.0000 0.76587  0.63483  0.86812  Biso   1.000  C
  C39      1.0000 0.77113  0.69630  0.84661  Biso   1.000  C
  C40      1.0000 0.86045  0.74475  0.79930  Biso   1.000  C
  C41      1.0000 0.95100  0.72750  0.77620  Biso   1.000  C
  C42      1.0000 0.95100  0.66180  0.79810  Biso   1.000  C
  C43      1.0000 0.85604  0.61678  0.84536  Biso   1.000  C
  C44      1.0000 0.62020  0.86640  0.77380  Biso   1.000  C
  C45      1.0000 0.70660  0.85730  0.79680  Biso   1.000  C
  C46      1.0000 0.55110  0.83540  0.69420  Biso   1.000  C
  C47      1.0000 0.86660  0.81200  0.78060  Biso   1.000  C
  C48      1.0000 0.70740  0.82410  0.73300  Biso   1.000  C
  C49      1.0000 0.08253  0.49911  0.58292  Biso   1.000  C
  C50      1.0000 0.13104  0.49705  0.63483  Biso   1.000  C
  C51      1.0000 0.07483  0.45709  0.69630  Biso   1.000  C
  C52      1.0000 0.11570  0.45595  0.74475  Biso   1.000  C
  C53      1.0000 0.22350  0.49630  0.72750  Biso   1.000  C
  C54      1.0000 0.28920  0.54010  0.66180  Biso   1.000  C
  C55      1.0000 0.23926  0.53786  0.61678  Biso   1.000  C
  C56      1.0000 0.75380  0.35980  0.86640  Biso   1.000  C
  C57      1.0000 0.84930  0.34590  0.85730  Biso   1.000  C
  C58      1.0000 0.71570  0.47040  0.83540  Biso   1.000  C
  C59      1.0000 0.05460  0.40740  0.81200  Biso   1.000  C
  C60      1.0000 0.88330  0.44290  0.82410  Biso   1.000  C
  C61      1.0000 0.58342  0.91797  0.49911  Biso   1.000  C
  C62      1.0000 0.63399  0.86812  0.49705  Biso   1.000  C
  C63      1.0000 0.61774  0.84661  0.45709  Biso   1.000  C
  C64      1.0000 0.65975  0.79930  0.45595  Biso   1.000  C
  C65      1.0000 0.72720  0.77620  0.49630  Biso   1.000  C
  C66      1.0000 0.74910  0.79810  0.54010  Biso   1.000  C
  C67      1.0000 0.70140  0.84536  0.53786  Biso   1.000  C
  C68      1.0000 0.39400  0.77380  0.35980  Biso   1.000  C
  C69      1.0000 0.50340  0.79680  0.34590  Biso   1.000  C
  C70      1.0000 0.24530  0.69420  0.47040  Biso   1.000  C
  C71      1.0000 0.64720  0.78060  0.40740  Biso   1.000  C
  C72      1.0000 0.44040  0.73300  0.44290  Biso   1.000  C
  C73      1.0000 0.58342  0.50089  0.08203  Biso   1.000  C
  C74      1.0000 0.63399  0.50295  0.13188  Biso   1.000  C
  C75      1.0000 0.61774  0.54291  0.15339  Biso   1.000  C
  C76      1.0000 0.65975  0.54405  0.20070  Biso   1.000  C
  C77      1.0000 0.72720  0.50370  0.22380  Biso   1.000  C
  C78      1.0000 0.74910  0.45990  0.20190  Biso   1.000  C
  C79      1.0000 0.70140  0.46214  0.15464  Biso   1.000  C
  C80      1.0000 0.39400  0.64020  0.22620  Biso   1.000  C
  C81      1.0000 0.50340  0.65410  0.20320  Biso   1.000  C
  C82      1.0000 0.24530  0.52960  0.30580  Biso   1.000  C
  C83      1.0000 0.64720  0.59260  0.21940  Biso   1.000  C
  C84      1.0000 0.44040  0.55710  0.26700  Biso   1.000  C
  C85      1.0000 0.66545  0.08203  0.41708  Biso   1.000  C
  C86      1.0000 0.76587  0.13188  0.36517  Biso   1.000  C
  C87      1.0000 0.77113  0.15339  0.30370  Biso   1.000  C
  C88      1.0000 0.86045  0.20070  0.25525  Biso   1.000  C
  C89      1.0000 0.95100  0.22380  0.27250  Biso   1.000  C
  C90      1.0000 0.95100  0.20190  0.33820  Biso   1.000  C
  C91      1.0000 0.85604  0.15464  0.38322  Biso   1.000  C
  C92      1.0000 0.62020  0.22620  0.13360  Biso   1.000  C
  C93      1.0000 0.70660  0.20320  0.14270  Biso   1.000  C
  C94      1.0000 0.55110  0.30580  0.16460  Biso   1.000  C
  C95      1.0000 0.86660  0.21940  0.18800  Biso   1.000  C
  C96      1.0000 0.70740  0.26700  0.17590  Biso   1.000  C
  C97      1.0000 0.08253  0.41708  0.50089  Biso   1.000  C
  C98      1.0000 0.13104  0.36517  0.50295  Biso   1.000  C
  C99      1.0000 0.07483  0.30370  0.54291  Biso   1.000  C
  C100     1.0000 0.11570  0.25525  0.54405  Biso   1.000  C
  C101     1.0000 0.22350  0.27250  0.50370  Biso   1.000  C
  C102     1.0000 0.28920  0.33820  0.45990  Biso   1.000  C
  C103     1.0000 0.23926  0.38322  0.46214  Biso   1.000  C
  C104     1.0000 0.75380  0.13360  0.64020  Biso   1.000  C
  C105     1.0000 0.84930  0.14270  0.65410  Biso   1.000  C
  C106     1.0000 0.71570  0.16460  0.52960  Biso   1.000  C
  C107     1.0000 0.05460  0.18800  0.59260  Biso   1.000  C
  C108     1.0000 0.88330  0.17590  0.55710  Biso   1.000  C
  C109     1.0000 0.33455  0.41708  0.08203  Biso   1.000  C
  C110     1.0000 0.23413  0.36517  0.13188  Biso   1.000  C
  C111     1.0000 0.22887  0.30370  0.15339  Biso   1.000  C
  C112     1.0000 0.13955  0.25525  0.20070  Biso   1.000  C
  C113     1.0000 0.04900  0.27250  0.22380  Biso   1.000  C
  C114     1.0000 0.04900  0.33820  0.20190  Biso   1.000  C
  C115     1.0000 0.14396  0.38322  0.15464  Biso   1.000  C
  C116     1.0000 0.37980  0.13360  0.22620  Biso   1.000  C
  C117     1.0000 0.29340  0.14270  0.20320  Biso   1.000  C
  C118     1.0000 0.44890  0.16460  0.30580  Biso   1.000  C
  C119     1.0000 0.13340  0.18800  0.21940  Biso   1.000  C
  C120     1.0000 0.29260  0.17590  0.26700  Biso   1.000  C
  C121     1.0000 0.91747  0.50089  0.41708  Biso   1.000  C
  C122     1.0000 0.86896  0.50295  0.36517  Biso   1.000  C
  C123     1.0000 0.92517  0.54291  0.30370  Biso   1.000  C
  C124     1.0000 0.88430  0.54405  0.25525  Biso   1.000  C
  C125     1.0000 0.77650  0.50370  0.27250  Biso   1.000  C
  C126     1.0000 0.71080  0.45990  0.33820  Biso   1.000  C
  C127     1.0000 0.76074  0.46214  0.38322  Biso   1.000  C
  C128     1.0000 0.24620  0.64020  0.13360  Biso   1.000  C
  C129     1.0000 0.15070  0.65410  0.14270  Biso   1.000  C
  C130     1.0000 0.28430  0.52960  0.16460  Biso   1.000  C
  C131     1.0000 0.94540  0.59260  0.18800  Biso   1.000  C
  C132     1.0000 0.11670  0.55710  0.17590  Biso   1.000  C
  C133     1.0000 0.41658  0.08203  0.50089  Biso   1.000  C
  C134     1.0000 0.36601  0.13188  0.50295  Biso   1.000  C
  C135     1.0000 0.38226  0.15339  0.54291  Biso   1.000  C
  C136     1.0000 0.34025  0.20070  0.54405  Biso   1.000  C
  C137     1.0000 0.27280  0.22380  0.50370  Biso   1.000  C
  C138     1.0000 0.25090  0.20190  0.45990  Biso   1.000  C
  C139     1.0000 0.29860  0.15464  0.46214  Biso   1.000  C
  C140     1.0000 0.60600  0.22620  0.64020  Biso   1.000  C
  C141     1.0000 0.49660  0.20320  0.65410  Biso   1.000  C
  C142     1.0000 0.75470  0.30580  0.52960  Biso   1.000  C
  C143     1.0000 0.35280  0.21940  0.59260  Biso   1.000  C
  C144     1.0000 0.55960  0.26700  0.55710  Biso   1.000  C
  N1       1.0000 0.46440  0.39950  0.76970  Biso   1.000  N
  N2       1.0000 0.64940  0.42370  0.73690  Biso   1.000  N
  N3       1.0000 0.23410  0.76970  0.83080  Biso   1.000  N
  N4       1.0000 0.38630  0.73690  0.83940  Biso   1.000  N
  N5       1.0000 0.06490  0.83080  0.39950  Biso   1.000  N
  N6       1.0000 0.22570  0.83940  0.42370  Biso   1.000  N
  N7       1.0000 0.76590  0.83080  0.76970  Biso   1.000  N
  N8       1.0000 0.61370  0.83940  0.73690  Biso   1.000  N
  N9       1.0000 0.93510  0.39950  0.83080  Biso   1.000  N
  N10      1.0000 0.77430  0.42370  0.83940  Biso   1.000  N
  N11      1.0000 0.53560  0.76970  0.39950  Biso   1.000  N
  N12      1.0000 0.35060  0.73690  0.42370  Biso   1.000  N
  N13      1.0000 0.53560  0.60050  0.23030  Biso   1.000  N
  N14      1.0000 0.35060  0.57630  0.26310  Biso   1.000  N
  N15      1.0000 0.76590  0.23030  0.16920  Biso   1.000  N
  N16      1.0000 0.61370  0.26310  0.16060  Biso   1.000  N
  N17      1.0000 0.93510  0.16920  0.60050  Biso   1.000  N
  N18      1.0000 0.77430  0.16060  0.57630  Biso   1.000  N
  N19      1.0000 0.23410  0.16920  0.23030  Biso   1.000  N
  N20      1.0000 0.38630  0.16060  0.26310  Biso   1.000  N
  N21      1.0000 0.06490  0.60050  0.16920  Biso   1.000  N
  N22      1.0000 0.22570  0.57630  0.16060  Biso   1.000  N
  N23      1.0000 0.46440  0.23030  0.60050  Biso   1.000  N
  N24      1.0000 0.64940  0.26310  0.57630  Biso   1.000  N
  O1       1.0000 0.47535  0.46145  0.93650  Biso   1.000  O
  O2       1.0000 0.39430  0.53606  0.93626  Biso   1.000  O
  O3       1.0000 0.41185  0.93650  0.60205  Biso   1.000  O
  O4       1.0000 0.33056  0.93626  0.52768  Biso   1.000  O
  O5       1.0000 0.01390  0.60205  0.46145  Biso   1.000  O
  O6       1.0000 0.85824  0.52768  0.53606  Biso   1.000  O
  O7       1.0000 0.58815  0.60205  0.93650  Biso   1.000  O
  O8       1.0000 0.66944  0.52768  0.93626  Biso   1.000  O
  O9       1.0000 0.98610  0.46145  0.60205  Biso   1.000  O
  O10      1.0000 0.14176  0.53606  0.52768  Biso   1.000  O
  O11      1.0000 0.52465  0.93650  0.46145  Biso   1.000  O
  O12      1.0000 0.60570  0.93626  0.53606  Biso   1.000  O
  O13      1.0000 0.52465  0.53855  0.06350  Biso   1.000  O
  O14      1.0000 0.60570  0.46394  0.06374  Biso   1.000  O
  O15      1.0000 0.58815  0.06350  0.39795  Biso   1.000  O
  O16      1.0000 0.66944  0.06374  0.47232  Biso   1.000  O
  O17      1.0000 0.98610  0.39795  0.53855  Biso   1.000  O
  O18      1.0000 0.14176  0.47232  0.46394  Biso   1.000  O
  O19      1.0000 0.41185  0.39795  0.06350  Biso   1.000  O
  O20      1.0000 0.33056  0.47232  0.06374  Biso   1.000  O
  O21      1.0000 0.01390  0.53855  0.39795  Biso   1.000  O
  O22      1.0000 0.85824  0.46394  0.47232  Biso   1.000  O
  O23      1.0000 0.47535  0.06350  0.53855  Biso   1.000  O
  O24      1.0000 0.39430  0.06374  0.46394  Biso   1.000  O
  O25      1.0000 0.62050  0.38499  0.00000  Biso   1.000  O
  O26      1.0000 0.62050  0.00000  0.61501  Biso   1.000  O
  O27      1.0000 0.23551  0.61501  0.38499  Biso   1.000  O
  O28      1.0000 0.37951  0.61502  0.00000  Biso   1.000  O
  O29      1.0000 0.76449  0.38498  0.61502  Biso   1.000  O
  O30      1.0000 0.37950  0.00000  0.38499  Biso   1.000  O
