data_image0
_cell_length_a       18.621
_cell_length_b       18.621
_cell_length_c       25.6283
_cell_angle_alpha    68.6976
_cell_angle_beta     68.6976
_cell_angle_gamma    60

_symmetry_space_group_name_H-M    P 1
_symmetry_int_tables_number       1

loop_
  _symmetry_equiv_pos_as_xyz
  'x, y, z'

loop_
  _atom_site_label
  _atom_site_occupancy
  _atom_site_fract_x
  _atom_site_fract_y
  _atom_site_fract_z
  _atom_site_thermal_displace_type
  _atom_site_B_iso_or_equiv
  _atom_site_type_symbol
  Cu1      1.0000 0.68730  0.27252  0.79654  Biso   1.000  Cu
  Cu2      1.0000 0.27252  0.24364  0.79654  Biso   1.000  Cu
  Cu3      1.0000 0.24364  0.68730  0.79654  Biso   1.000  Cu
  Cu4      1.0000 0.81270  0.25636  0.70346  Biso   1.000  Cu
  Cu5      1.0000 0.22748  0.81270  0.70346  Biso   1.000  Cu
  Cu6      1.0000 0.25636  0.22748  0.70346  Biso   1.000  Cu
  Cu7      1.0000 0.31270  0.72748  0.20346  Biso   1.000  Cu
  Cu8      1.0000 0.72748  0.75636  0.20346  Biso   1.000  Cu
  Cu9      1.0000 0.75636  0.31270  0.20346  Biso   1.000  Cu
  Cu10     1.0000 0.18730  0.74364  0.29654  Biso   1.000  Cu
  Cu11     1.0000 0.77252  0.18730  0.29654  Biso   1.000  Cu
  Cu12     1.0000 0.74364  0.77252  0.29654  Biso   1.000  Cu
  H1       1.0000 0.50630  0.52130  0.74020  Biso   1.000  H
  H2       1.0000 0.48670  0.72970  0.60880  Biso   1.000  H
  H3       1.0000 0.71270  0.52350  0.61120  Biso   1.000  H
  H4       1.0000 0.60800  0.72640  0.53410  Biso   1.000  H
  H5       1.0000 0.75050  0.60240  0.51790  Biso   1.000  H
  H6       1.0000 0.75370  0.64800  0.55900  Biso   1.000  H
  H7       1.0000 0.74910  0.66880  0.42010  Biso   1.000  H
  H8       1.0000 0.73380  0.79750  0.52030  Biso   1.000  H
  H9       1.0000 0.72730  0.92600  0.43360  Biso   1.000  H
  H10      1.0000 0.76980  0.88710  0.34450  Biso   1.000  H
  H11      1.0000 0.52130  0.23220  0.74020  Biso   1.000  H
  H12      1.0000 0.72970  0.17480  0.60880  Biso   1.000  H
  H13      1.0000 0.52350  0.15260  0.61120  Biso   1.000  H
  H14      1.0000 0.72640  0.13150  0.53410  Biso   1.000  H
  H15      1.0000 0.60240  0.12920  0.51790  Biso   1.000  H
  H16      1.0000 0.64800  0.03930  0.55900  Biso   1.000  H
  H17      1.0000 0.66880  0.16200  0.42010  Biso   1.000  H
  H18      1.0000 0.79750  0.94840  0.52030  Biso   1.000  H
  H19      1.0000 0.92600  0.91310  0.43360  Biso   1.000  H
  H20      1.0000 0.88710  0.99860  0.34450  Biso   1.000  H
  H21      1.0000 0.23220  0.50630  0.74020  Biso   1.000  H
  H22      1.0000 0.17480  0.48670  0.60880  Biso   1.000  H
  H23      1.0000 0.15260  0.71270  0.61120  Biso   1.000  H
  H24      1.0000 0.13150  0.60800  0.53410  Biso   1.000  H
  H25      1.0000 0.12920  0.75050  0.51790  Biso   1.000  H
  H26      1.0000 0.03930  0.75370  0.55900  Biso   1.000  H
  H27      1.0000 0.16200  0.74910  0.42010  Biso   1.000  H
  H28      1.0000 0.94840  0.73380  0.52030  Biso   1.000  H
  H29      1.0000 0.91310  0.72730  0.43360  Biso   1.000  H
  H30      1.0000 0.99860  0.76980  0.34450  Biso   1.000  H
  H31      1.0000 0.99370  0.26780  0.75980  Biso   1.000  H
  H32      1.0000 0.01330  0.32520  0.89120  Biso   1.000  H
  H33      1.0000 0.78730  0.34740  0.88880  Biso   1.000  H
  H34      1.0000 0.89200  0.36850  0.96590  Biso   1.000  H
  H35      1.0000 0.74950  0.37080  0.98210  Biso   1.000  H
  H36      1.0000 0.74630  0.46070  0.94100  Biso   1.000  H
  H37      1.0000 0.75090  0.33800  0.07990  Biso   1.000  H
  H38      1.0000 0.76620  0.55160  0.97970  Biso   1.000  H
  H39      1.0000 0.77270  0.58690  0.06640  Biso   1.000  H
  H40      1.0000 0.73020  0.50140  0.15550  Biso   1.000  H
  H41      1.0000 0.97870  0.99370  0.75980  Biso   1.000  H
  H42      1.0000 0.77030  0.01330  0.89120  Biso   1.000  H
  H43      1.0000 0.97650  0.78730  0.88880  Biso   1.000  H
  H44      1.0000 0.77360  0.89200  0.96590  Biso   1.000  H
  H45      1.0000 0.89760  0.74950  0.98210  Biso   1.000  H
  H46      1.0000 0.85200  0.74630  0.94100  Biso   1.000  H
  H47      1.0000 0.83120  0.75090  0.07990  Biso   1.000  H
  H48      1.0000 0.70250  0.76620  0.97970  Biso   1.000  H
  H49      1.0000 0.57400  0.77270  0.06640  Biso   1.000  H
  H50      1.0000 0.61290  0.73020  0.15550  Biso   1.000  H
  H51      1.0000 0.26780  0.97870  0.75980  Biso   1.000  H
  H52      1.0000 0.32520  0.77030  0.89120  Biso   1.000  H
  H53      1.0000 0.34740  0.97650  0.88880  Biso   1.000  H
  H54      1.0000 0.36850  0.77360  0.96590  Biso   1.000  H
  H55      1.0000 0.37080  0.89760  0.98210  Biso   1.000  H
  H56      1.0000 0.46070  0.85200  0.94100  Biso   1.000  H
  H57      1.0000 0.33800  0.83120  0.07990  Biso   1.000  H
  H58      1.0000 0.55160  0.70250  0.97970  Biso   1.000  H
  H59      1.0000 0.58690  0.57400  0.06640  Biso   1.000  H
  H60      1.0000 0.50140  0.61290  0.15550  Biso   1.000  H
  H61      1.0000 0.49370  0.47870  0.25980  Biso   1.000  H
  H62      1.0000 0.51330  0.27030  0.39120  Biso   1.000  H
  H63      1.0000 0.28730  0.47650  0.38880  Biso   1.000  H
  H64      1.0000 0.39200  0.27360  0.46590  Biso   1.000  H
  H65      1.0000 0.24950  0.39760  0.48210  Biso   1.000  H
  H66      1.0000 0.24630  0.35200  0.44100  Biso   1.000  H
  H67      1.0000 0.25090  0.33120  0.57990  Biso   1.000  H
  H68      1.0000 0.26620  0.20250  0.47970  Biso   1.000  H
  H69      1.0000 0.27270  0.07400  0.56640  Biso   1.000  H
  H70      1.0000 0.23020  0.11290  0.65550  Biso   1.000  H
  H71      1.0000 0.47870  0.76780  0.25980  Biso   1.000  H
  H72      1.0000 0.27030  0.82520  0.39120  Biso   1.000  H
  H73      1.0000 0.47650  0.84740  0.38880  Biso   1.000  H
  H74      1.0000 0.27360  0.86850  0.46590  Biso   1.000  H
  H75      1.0000 0.39760  0.87080  0.48210  Biso   1.000  H
  H76      1.0000 0.35200  0.96070  0.44100  Biso   1.000  H
  H77      1.0000 0.33120  0.83800  0.57990  Biso   1.000  H
  H78      1.0000 0.20250  0.05160  0.47970  Biso   1.000  H
  H79      1.0000 0.07400  0.08690  0.56640  Biso   1.000  H
  H80      1.0000 0.11290  0.00140  0.65550  Biso   1.000  H
  H81      1.0000 0.76780  0.49370  0.25980  Biso   1.000  H
  H82      1.0000 0.82520  0.51330  0.39120  Biso   1.000  H
  H83      1.0000 0.84740  0.28730  0.38880  Biso   1.000  H
  H84      1.0000 0.86850  0.39200  0.46590  Biso   1.000  H
  H85      1.0000 0.87080  0.24950  0.48210  Biso   1.000  H
  H86      1.0000 0.96070  0.24630  0.44100  Biso   1.000  H
  H87      1.0000 0.83800  0.25090  0.57990  Biso   1.000  H
  H88      1.0000 0.05160  0.26620  0.47970  Biso   1.000  H
  H89      1.0000 0.08690  0.27270  0.56640  Biso   1.000  H
  H90      1.0000 0.00140  0.23020  0.65550  Biso   1.000  H
  H91      1.0000 0.00630  0.73220  0.24020  Biso   1.000  H
  H92      1.0000 0.98670  0.67480  0.10880  Biso   1.000  H
  H93      1.0000 0.21270  0.65260  0.11120  Biso   1.000  H
  H94      1.0000 0.10800  0.63150  0.03410  Biso   1.000  H
  H95      1.0000 0.25050  0.62920  0.01790  Biso   1.000  H
  H96      1.0000 0.25370  0.53930  0.05900  Biso   1.000  H
  H97      1.0000 0.24910  0.66200  0.92010  Biso   1.000  H
  H98      1.0000 0.23380  0.44840  0.02030  Biso   1.000  H
  H99      1.0000 0.22730  0.41310  0.93360  Biso   1.000  H
  H100     1.0000 0.26980  0.49860  0.84450  Biso   1.000  H
  H101     1.0000 0.02130  0.00630  0.24020  Biso   1.000  H
  H102     1.0000 0.22970  0.98670  0.10880  Biso   1.000  H
  H103     1.0000 0.02350  0.21270  0.11120  Biso   1.000  H
  H104     1.0000 0.22640  0.10800  0.03410  Biso   1.000  H
  H105     1.0000 0.10240  0.25050  0.01790  Biso   1.000  H
  H106     1.0000 0.14800  0.25370  0.05900  Biso   1.000  H
  H107     1.0000 0.16880  0.24910  0.92010  Biso   1.000  H
  H108     1.0000 0.29750  0.23380  0.02030  Biso   1.000  H
  H109     1.0000 0.42600  0.22730  0.93360  Biso   1.000  H
  H110     1.0000 0.38710  0.26980  0.84450  Biso   1.000  H
  H111     1.0000 0.73220  0.02130  0.24020  Biso   1.000  H
  H112     1.0000 0.67480  0.22970  0.10880  Biso   1.000  H
  H113     1.0000 0.65260  0.02350  0.11120  Biso   1.000  H
  H114     1.0000 0.63150  0.22640  0.03410  Biso   1.000  H
  H115     1.0000 0.62920  0.10240  0.01790  Biso   1.000  H
  H116     1.0000 0.53930  0.14800  0.05900  Biso   1.000  H
  H117     1.0000 0.66200  0.16880  0.92010  Biso   1.000  H
  H118     1.0000 0.44840  0.29750  0.02030  Biso   1.000  H
  H119     1.0000 0.41310  0.42600  0.93360  Biso   1.000  H
  H120     1.0000 0.49860  0.38710  0.84450  Biso   1.000  H
  C1       1.0000 0.66848  0.41936  0.70624  Biso   1.000  C
  C2       1.0000 0.61696  0.50916  0.67912  Biso   1.000  C
  C3       1.0000 0.53127  0.54957  0.70489  Biso   1.000  C
  C4       1.0000 0.48262  0.63212  0.67834  Biso   1.000  C
  C5       1.0000 0.52036  0.67376  0.62722  Biso   1.000  C
  C6       1.0000 0.60664  0.63444  0.60268  Biso   1.000  C
  C7       1.0000 0.65416  0.55156  0.62842  Biso   1.000  C
  C8       1.0000 0.39122  0.67532  0.70474  Biso   1.000  C
  C9       1.0000 0.72495  0.65655  0.53005  Biso   1.000  C
  C10      1.0000 0.73734  0.72574  0.47848  Biso   1.000  C
  C11      1.0000 0.74445  0.71965  0.42445  Biso   1.000  C
  C12      1.0000 0.73510  0.79510  0.48370  Biso   1.000  C
  C13      1.0000 0.73649  0.87249  0.43063  Biso   1.000  C
  C14      1.0000 0.75247  0.85197  0.37939  Biso   1.000  C
  C15      1.0000 0.41936  0.20592  0.70624  Biso   1.000  C
  C16      1.0000 0.50916  0.19476  0.67912  Biso   1.000  C
  C17      1.0000 0.54957  0.21427  0.70489  Biso   1.000  C
  C18      1.0000 0.63212  0.20692  0.67834  Biso   1.000  C
  C19      1.0000 0.67376  0.17866  0.62722  Biso   1.000  C
  C20      1.0000 0.63444  0.15624  0.60268  Biso   1.000  C
  C21      1.0000 0.55156  0.16586  0.62842  Biso   1.000  C
  C22      1.0000 0.67532  0.22872  0.70474  Biso   1.000  C
  C23      1.0000 0.65655  0.08845  0.53005  Biso   1.000  C
  C24      1.0000 0.72574  0.05844  0.47848  Biso   1.000  C
  C25      1.0000 0.71965  0.11145  0.42445  Biso   1.000  C
  C26      1.0000 0.79510  0.98610  0.48370  Biso   1.000  C
  C27      1.0000 0.87249  0.96039  0.43063  Biso   1.000  C
  C28      1.0000 0.85197  0.01617  0.37939  Biso   1.000  C
  C29      1.0000 0.20592  0.66848  0.70624  Biso   1.000  C
  C30      1.0000 0.19476  0.61696  0.67912  Biso   1.000  C
  C31      1.0000 0.21427  0.53127  0.70489  Biso   1.000  C
  C32      1.0000 0.20692  0.48262  0.67834  Biso   1.000  C
  C33      1.0000 0.17866  0.52036  0.62722  Biso   1.000  C
  C34      1.0000 0.15624  0.60664  0.60268  Biso   1.000  C
  C35      1.0000 0.16586  0.65416  0.62842  Biso   1.000  C
  C36      1.0000 0.22872  0.39122  0.70474  Biso   1.000  C
  C37      1.0000 0.08845  0.72495  0.53005  Biso   1.000  C
  C38      1.0000 0.05844  0.73734  0.47848  Biso   1.000  C
  C39      1.0000 0.11145  0.74445  0.42445  Biso   1.000  C
  C40      1.0000 0.98610  0.73510  0.48370  Biso   1.000  C
  C41      1.0000 0.96039  0.73649  0.43063  Biso   1.000  C
  C42      1.0000 0.01617  0.75247  0.37939  Biso   1.000  C
  C43      1.0000 0.83152  0.29408  0.79376  Biso   1.000  C
  C44      1.0000 0.88304  0.30524  0.82088  Biso   1.000  C
  C45      1.0000 0.96873  0.28573  0.79511  Biso   1.000  C
  C46      1.0000 0.01738  0.29308  0.82166  Biso   1.000  C
  C47      1.0000 0.97964  0.32134  0.87278  Biso   1.000  C
  C48      1.0000 0.89336  0.34376  0.89732  Biso   1.000  C
  C49      1.0000 0.84584  0.33414  0.87158  Biso   1.000  C
  C50      1.0000 0.10878  0.27128  0.79526  Biso   1.000  C
  C51      1.0000 0.77505  0.41155  0.96995  Biso   1.000  C
  C52      1.0000 0.76266  0.44156  0.02152  Biso   1.000  C
  C53      1.0000 0.75555  0.38855  0.07555  Biso   1.000  C
  C54      1.0000 0.76490  0.51390  0.01630  Biso   1.000  C
  C55      1.0000 0.76351  0.53961  0.06937  Biso   1.000  C
  C56      1.0000 0.74753  0.48383  0.12061  Biso   1.000  C
  C57      1.0000 0.08064  0.83152  0.79376  Biso   1.000  C
  C58      1.0000 0.99084  0.88304  0.82088  Biso   1.000  C
  C59      1.0000 0.95043  0.96873  0.79511  Biso   1.000  C
  C60      1.0000 0.86788  0.01738  0.82166  Biso   1.000  C
  C61      1.0000 0.82624  0.97964  0.87278  Biso   1.000  C
  C62      1.0000 0.86556  0.89336  0.89732  Biso   1.000  C
  C63      1.0000 0.94844  0.84584  0.87158  Biso   1.000  C
  C64      1.0000 0.82468  0.10878  0.79526  Biso   1.000  C
  C65      1.0000 0.84345  0.77505  0.96995  Biso   1.000  C
  C66      1.0000 0.77426  0.76266  0.02152  Biso   1.000  C
  C67      1.0000 0.78035  0.75555  0.07555  Biso   1.000  C
  C68      1.0000 0.70490  0.76490  0.01630  Biso   1.000  C
  C69      1.0000 0.62751  0.76351  0.06937  Biso   1.000  C
  C70      1.0000 0.64803  0.74753  0.12061  Biso   1.000  C
  C71      1.0000 0.29408  0.08064  0.79376  Biso   1.000  C
  C72      1.0000 0.30524  0.99084  0.82088  Biso   1.000  C
  C73      1.0000 0.28573  0.95043  0.79511  Biso   1.000  C
  C74      1.0000 0.29308  0.86788  0.82166  Biso   1.000  C
  C75      1.0000 0.32134  0.82624  0.87278  Biso   1.000  C
  C76      1.0000 0.34376  0.86556  0.89732  Biso   1.000  C
  C77      1.0000 0.33414  0.94844  0.87158  Biso   1.000  C
  C78      1.0000 0.27128  0.82468  0.79526  Biso   1.000  C
  C79      1.0000 0.41155  0.84345  0.96995  Biso   1.000  C
  C80      1.0000 0.44156  0.77426  0.02152  Biso   1.000  C
  C81      1.0000 0.38855  0.78035  0.07555  Biso   1.000  C
  C82      1.0000 0.51390  0.70490  0.01630  Biso   1.000  C
  C83      1.0000 0.53961  0.62751  0.06937  Biso   1.000  C
  C84      1.0000 0.48383  0.64803  0.12061  Biso   1.000  C
  C85      1.0000 0.33152  0.58064  0.29376  Biso   1.000  C
  C86      1.0000 0.38304  0.49084  0.32088  Biso   1.000  C
  C87      1.0000 0.46873  0.45043  0.29511  Biso   1.000  C
  C88      1.0000 0.51738  0.36788  0.32166  Biso   1.000  C
  C89      1.0000 0.47964  0.32624  0.37278  Biso   1.000  C
  C90      1.0000 0.39336  0.36556  0.39732  Biso   1.000  C
  C91      1.0000 0.34584  0.44844  0.37158  Biso   1.000  C
  C92      1.0000 0.60878  0.32468  0.29526  Biso   1.000  C
  C93      1.0000 0.27505  0.34345  0.46995  Biso   1.000  C
  C94      1.0000 0.26266  0.27426  0.52152  Biso   1.000  C
  C95      1.0000 0.25555  0.28035  0.57555  Biso   1.000  C
  C96      1.0000 0.26490  0.20490  0.51630  Biso   1.000  C
  C97      1.0000 0.26351  0.12751  0.56937  Biso   1.000  C
  C98      1.0000 0.24753  0.14803  0.62061  Biso   1.000  C
  C99      1.0000 0.58064  0.79408  0.29376  Biso   1.000  C
  C100     1.0000 0.49084  0.80524  0.32088  Biso   1.000  C
  C101     1.0000 0.45043  0.78573  0.29511  Biso   1.000  C
  C102     1.0000 0.36788  0.79308  0.32166  Biso   1.000  C
  C103     1.0000 0.32624  0.82134  0.37278  Biso   1.000  C
  C104     1.0000 0.36556  0.84376  0.39732  Biso   1.000  C
  C105     1.0000 0.44844  0.83414  0.37158  Biso   1.000  C
  C106     1.0000 0.32468  0.77128  0.29526  Biso   1.000  C
  C107     1.0000 0.34345  0.91155  0.46995  Biso   1.000  C
  C108     1.0000 0.27426  0.94156  0.52152  Biso   1.000  C
  C109     1.0000 0.28035  0.88855  0.57555  Biso   1.000  C
  C110     1.0000 0.20490  0.01390  0.51630  Biso   1.000  C
  C111     1.0000 0.12751  0.03961  0.56937  Biso   1.000  C
  C112     1.0000 0.14803  0.98383  0.62061  Biso   1.000  C
  C113     1.0000 0.79408  0.33152  0.29376  Biso   1.000  C
  C114     1.0000 0.80524  0.38304  0.32088  Biso   1.000  C
  C115     1.0000 0.78573  0.46873  0.29511  Biso   1.000  C
  C116     1.0000 0.79308  0.51738  0.32166  Biso   1.000  C
  C117     1.0000 0.82134  0.47964  0.37278  Biso   1.000  C
  C118     1.0000 0.84376  0.39336  0.39732  Biso   1.000  C
  C119     1.0000 0.83414  0.34584  0.37158  Biso   1.000  C
  C120     1.0000 0.77128  0.60878  0.29526  Biso   1.000  C
  C121     1.0000 0.91155  0.27505  0.46995  Biso   1.000  C
  C122     1.0000 0.94156  0.26266  0.52152  Biso   1.000  C
  C123     1.0000 0.88855  0.25555  0.57555  Biso   1.000  C
  C124     1.0000 0.01390  0.26490  0.51630  Biso   1.000  C
  C125     1.0000 0.03961  0.26351  0.56937  Biso   1.000  C
  C126     1.0000 0.98383  0.24753  0.62061  Biso   1.000  C
  C127     1.0000 0.16848  0.70592  0.20624  Biso   1.000  C
  C128     1.0000 0.11696  0.69476  0.17912  Biso   1.000  C
  C129     1.0000 0.03127  0.71427  0.20489  Biso   1.000  C
  C130     1.0000 0.98262  0.70692  0.17834  Biso   1.000  C
  C131     1.0000 0.02036  0.67866  0.12722  Biso   1.000  C
  C132     1.0000 0.10664  0.65624  0.10268  Biso   1.000  C
  C133     1.0000 0.15416  0.66586  0.12842  Biso   1.000  C
  C134     1.0000 0.89122  0.72872  0.20474  Biso   1.000  C
  C135     1.0000 0.22495  0.58845  0.03005  Biso   1.000  C
  C136     1.0000 0.23734  0.55844  0.97848  Biso   1.000  C
  C137     1.0000 0.24445  0.61145  0.92445  Biso   1.000  C
  C138     1.0000 0.23510  0.48610  0.98370  Biso   1.000  C
  C139     1.0000 0.23649  0.46039  0.93063  Biso   1.000  C
  C140     1.0000 0.25247  0.51617  0.87939  Biso   1.000  C
  C141     1.0000 0.91936  0.16848  0.20624  Biso   1.000  C
  C142     1.0000 0.00916  0.11696  0.17912  Biso   1.000  C
  C143     1.0000 0.04957  0.03127  0.20489  Biso   1.000  C
  C144     1.0000 0.13212  0.98262  0.17834  Biso   1.000  C
  C145     1.0000 0.17376  0.02036  0.12722  Biso   1.000  C
  C146     1.0000 0.13444  0.10664  0.10268  Biso   1.000  C
  C147     1.0000 0.05156  0.15416  0.12842  Biso   1.000  C
  C148     1.0000 0.17532  0.89122  0.20474  Biso   1.000  C
  C149     1.0000 0.15655  0.22495  0.03005  Biso   1.000  C
  C150     1.0000 0.22574  0.23734  0.97848  Biso   1.000  C
  C151     1.0000 0.21965  0.24445  0.92445  Biso   1.000  C
  C152     1.0000 0.29510  0.23510  0.98370  Biso   1.000  C
  C153     1.0000 0.37249  0.23649  0.93063  Biso   1.000  C
  C154     1.0000 0.35197  0.25247  0.87939  Biso   1.000  C
  C155     1.0000 0.70592  0.91936  0.20624  Biso   1.000  C
  C156     1.0000 0.69476  0.00916  0.17912  Biso   1.000  C
  C157     1.0000 0.71427  0.04957  0.20489  Biso   1.000  C
  C158     1.0000 0.70692  0.13212  0.17834  Biso   1.000  C
  C159     1.0000 0.67866  0.17376  0.12722  Biso   1.000  C
  C160     1.0000 0.65624  0.13444  0.10268  Biso   1.000  C
  C161     1.0000 0.66586  0.05156  0.12842  Biso   1.000  C
  C162     1.0000 0.72872  0.17532  0.20474  Biso   1.000  C
  C163     1.0000 0.58845  0.15655  0.03005  Biso   1.000  C
  C164     1.0000 0.55844  0.22574  0.97848  Biso   1.000  C
  C165     1.0000 0.61145  0.21965  0.92445  Biso   1.000  C
  C166     1.0000 0.48610  0.29510  0.98370  Biso   1.000  C
  C167     1.0000 0.46039  0.37249  0.93063  Biso   1.000  C
  C168     1.0000 0.51617  0.35197  0.87939  Biso   1.000  C
  N1       1.0000 0.74519  0.78635  0.37573  Biso   1.000  N
  N2       1.0000 0.64315  0.67885  0.55255  Biso   1.000  N
  N3       1.0000 0.78635  0.09273  0.37573  Biso   1.000  N
  N4       1.0000 0.67885  0.12545  0.55255  Biso   1.000  N
  N5       1.0000 0.09273  0.74519  0.37573  Biso   1.000  N
  N6       1.0000 0.12545  0.64315  0.55255  Biso   1.000  N
  N7       1.0000 0.75481  0.40727  0.12427  Biso   1.000  N
  N8       1.0000 0.85685  0.37455  0.94745  Biso   1.000  N
  N9       1.0000 0.71365  0.75481  0.12427  Biso   1.000  N
  N10      1.0000 0.82115  0.85685  0.94745  Biso   1.000  N
  N11      1.0000 0.40727  0.71365  0.12427  Biso   1.000  N
  N12      1.0000 0.37455  0.82115  0.94745  Biso   1.000  N
  N13      1.0000 0.25481  0.21365  0.62427  Biso   1.000  N
  N14      1.0000 0.35685  0.32115  0.44745  Biso   1.000  N
  N15      1.0000 0.21365  0.90727  0.62427  Biso   1.000  N
  N16      1.0000 0.32115  0.87455  0.44745  Biso   1.000  N
  N17      1.0000 0.90727  0.25481  0.62427  Biso   1.000  N
  N18      1.0000 0.87455  0.35685  0.44745  Biso   1.000  N
  N19      1.0000 0.24519  0.59273  0.87573  Biso   1.000  N
  N20      1.0000 0.14315  0.62545  0.05255  Biso   1.000  N
  N21      1.0000 0.28635  0.24519  0.87573  Biso   1.000  N
  N22      1.0000 0.17885  0.14315  0.05255  Biso   1.000  N
  N23      1.0000 0.59273  0.28635  0.87573  Biso   1.000  N
  N24      1.0000 0.62545  0.17885  0.05255  Biso   1.000  N
  O1       1.0000 0.63486  0.39012  0.75724  Biso   1.000  O
  O2       1.0000 0.74057  0.37949  0.67798  Biso   1.000  O
  O3       1.0000 0.36289  0.63992  0.75418  Biso   1.000  O
  O4       1.0000 0.34821  0.74613  0.67579  Biso   1.000  O
  O5       1.0000 0.39012  0.21778  0.75724  Biso   1.000  O
  O6       1.0000 0.37949  0.20196  0.67798  Biso   1.000  O
  O7       1.0000 0.63992  0.24301  0.75418  Biso   1.000  O
  O8       1.0000 0.74613  0.22987  0.67579  Biso   1.000  O
  O9       1.0000 0.21778  0.63486  0.75724  Biso   1.000  O
  O10      1.0000 0.20196  0.74057  0.67798  Biso   1.000  O
  O11      1.0000 0.24301  0.36289  0.75418  Biso   1.000  O
  O12      1.0000 0.22987  0.34821  0.67579  Biso   1.000  O
  O13      1.0000 0.86514  0.28222  0.74276  Biso   1.000  O
  O14      1.0000 0.75943  0.29804  0.82202  Biso   1.000  O
  O15      1.0000 0.13711  0.25699  0.74582  Biso   1.000  O
  O16      1.0000 0.15179  0.27013  0.82421  Biso   1.000  O
  O17      1.0000 0.10988  0.86514  0.74276  Biso   1.000  O
  O18      1.0000 0.12051  0.75943  0.82202  Biso   1.000  O
  O19      1.0000 0.86008  0.13711  0.74582  Biso   1.000  O
  O20      1.0000 0.75387  0.15179  0.82421  Biso   1.000  O
  O21      1.0000 0.28222  0.10988  0.74276  Biso   1.000  O
  O22      1.0000 0.29804  0.12051  0.82202  Biso   1.000  O
  O23      1.0000 0.25699  0.86008  0.74582  Biso   1.000  O
  O24      1.0000 0.27013  0.75387  0.82421  Biso   1.000  O
  O25      1.0000 0.36514  0.60988  0.24276  Biso   1.000  O
  O26      1.0000 0.25943  0.62051  0.32202  Biso   1.000  O
  O27      1.0000 0.63711  0.36008  0.24582  Biso   1.000  O
  O28      1.0000 0.65179  0.25387  0.32421  Biso   1.000  O
  O29      1.0000 0.60988  0.78222  0.24276  Biso   1.000  O
  O30      1.0000 0.62051  0.79804  0.32202  Biso   1.000  O
  O31      1.0000 0.36008  0.75699  0.24582  Biso   1.000  O
  O32      1.0000 0.25387  0.77013  0.32421  Biso   1.000  O
  O33      1.0000 0.78222  0.36514  0.24276  Biso   1.000  O
  O34      1.0000 0.79804  0.25943  0.32202  Biso   1.000  O
  O35      1.0000 0.75699  0.63711  0.24582  Biso   1.000  O
  O36      1.0000 0.77013  0.65179  0.32421  Biso   1.000  O
  O37      1.0000 0.13486  0.71778  0.25724  Biso   1.000  O
  O38      1.0000 0.24057  0.70196  0.17798  Biso   1.000  O
  O39      1.0000 0.86289  0.74301  0.25418  Biso   1.000  O
  O40      1.0000 0.84821  0.72987  0.17579  Biso   1.000  O
  O41      1.0000 0.89012  0.13486  0.25724  Biso   1.000  O
  O42      1.0000 0.87949  0.24057  0.17798  Biso   1.000  O
  O43      1.0000 0.13992  0.86289  0.25418  Biso   1.000  O
  O44      1.0000 0.24613  0.84821  0.17579  Biso   1.000  O
  O45      1.0000 0.71778  0.89012  0.25724  Biso   1.000  O
  O46      1.0000 0.70196  0.87949  0.17798  Biso   1.000  O
  O47      1.0000 0.74301  0.13992  0.25418  Biso   1.000  O
  O48      1.0000 0.72987  0.24613  0.17579  Biso   1.000  O
