data_image0
_cell_length_a       18.9584
_cell_length_b       18.9584
_cell_length_c       18.9584
_cell_angle_alpha    62.9312
_cell_angle_beta     62.9312
_cell_angle_gamma    62.9312

_symmetry_space_group_name_H-M    P 1
_symmetry_int_tables_number       1

loop_
  _symmetry_equiv_pos_as_xyz
  'x, y, z'

loop_
  _atom_site_label
  _atom_site_occupancy
  _atom_site_fract_x
  _atom_site_fract_y
  _atom_site_fract_z
  _atom_site_thermal_displace_type
  _atom_site_B_iso_or_equiv
  _atom_site_type_symbol
  Dy1      1.0000 0.99568  0.56638  0.55946  Biso   1.000  Dy
  Dy2      1.0000 0.55946  0.99568  0.56638  Biso   1.000  Dy
  Dy3      1.0000 0.56638  0.55946  0.99568  Biso   1.000  Dy
  Dy4      1.0000 0.00432  0.43362  0.44054  Biso   1.000  Dy
  Dy5      1.0000 0.44054  0.00432  0.43362  Biso   1.000  Dy
  Dy6      1.0000 0.43362  0.44054  0.00432  Biso   1.000  Dy
  H1       1.0000 0.77260  0.76260  0.48390  Biso   1.000  H
  H2       1.0000 0.60620  0.83950  0.36970  Biso   1.000  H
  H3       1.0000 0.80290  0.63290  0.34840  Biso   1.000  H
  H4       1.0000 0.32120  0.57920  0.63320  Biso   1.000  H
  H5       1.0000 0.24870  0.55900  0.57950  Biso   1.000  H
  H6       1.0000 0.05370  0.58270  0.77690  Biso   1.000  H
  H7       1.0000 0.13050  0.60700  0.82820  Biso   1.000  H
  H8       1.0000 0.22160  0.64280  0.82190  Biso   1.000  H
  H9       1.0000 0.30130  0.56280  0.81380  Biso   1.000  H
  H10      1.0000 0.48390  0.77260  0.76260  Biso   1.000  H
  H11      1.0000 0.36970  0.60620  0.83950  Biso   1.000  H
  H12      1.0000 0.34840  0.80290  0.63290  Biso   1.000  H
  H13      1.0000 0.63320  0.32120  0.57920  Biso   1.000  H
  H14      1.0000 0.57950  0.24870  0.55900  Biso   1.000  H
  H15      1.0000 0.77690  0.05370  0.58270  Biso   1.000  H
  H16      1.0000 0.82820  0.13050  0.60700  Biso   1.000  H
  H17      1.0000 0.82190  0.22160  0.64280  Biso   1.000  H
  H18      1.0000 0.81380  0.30130  0.56280  Biso   1.000  H
  H19      1.0000 0.76260  0.48390  0.77260  Biso   1.000  H
  H20      1.0000 0.83950  0.36970  0.60620  Biso   1.000  H
  H21      1.0000 0.63290  0.34840  0.80290  Biso   1.000  H
  H22      1.0000 0.57920  0.63320  0.32120  Biso   1.000  H
  H23      1.0000 0.55900  0.57950  0.24870  Biso   1.000  H
  H24      1.0000 0.58270  0.77690  0.05370  Biso   1.000  H
  H25      1.0000 0.60700  0.82820  0.13050  Biso   1.000  H
  H26      1.0000 0.64280  0.82190  0.22160  Biso   1.000  H
  H27      1.0000 0.56280  0.81380  0.30130  Biso   1.000  H
  H28      1.0000 0.22740  0.23740  0.51610  Biso   1.000  H
  H29      1.0000 0.39380  0.16050  0.63030  Biso   1.000  H
  H30      1.0000 0.19710  0.36710  0.65160  Biso   1.000  H
  H31      1.0000 0.67880  0.42080  0.36680  Biso   1.000  H
  H32      1.0000 0.75130  0.44100  0.42050  Biso   1.000  H
  H33      1.0000 0.94630  0.41730  0.22310  Biso   1.000  H
  H34      1.0000 0.86950  0.39300  0.17180  Biso   1.000  H
  H35      1.0000 0.77840  0.35720  0.17810  Biso   1.000  H
  H36      1.0000 0.69870  0.43720  0.18620  Biso   1.000  H
  H37      1.0000 0.51610  0.22740  0.23740  Biso   1.000  H
  H38      1.0000 0.63030  0.39380  0.16050  Biso   1.000  H
  H39      1.0000 0.65160  0.19710  0.36710  Biso   1.000  H
  H40      1.0000 0.36680  0.67880  0.42080  Biso   1.000  H
  H41      1.0000 0.42050  0.75130  0.44100  Biso   1.000  H
  H42      1.0000 0.22310  0.94630  0.41730  Biso   1.000  H
  H43      1.0000 0.17180  0.86950  0.39300  Biso   1.000  H
  H44      1.0000 0.17810  0.77840  0.35720  Biso   1.000  H
  H45      1.0000 0.18620  0.69870  0.43720  Biso   1.000  H
  H46      1.0000 0.23740  0.51610  0.22740  Biso   1.000  H
  H47      1.0000 0.16050  0.63030  0.39380  Biso   1.000  H
  H48      1.0000 0.36710  0.65160  0.19710  Biso   1.000  H
  H49      1.0000 0.42080  0.36680  0.67880  Biso   1.000  H
  H50      1.0000 0.44100  0.42050  0.75130  Biso   1.000  H
  H51      1.0000 0.41730  0.22310  0.94630  Biso   1.000  H
  H52      1.0000 0.39300  0.17180  0.86950  Biso   1.000  H
  H53      1.0000 0.35720  0.17810  0.77840  Biso   1.000  H
  H54      1.0000 0.43720  0.18620  0.69870  Biso   1.000  H
  C1       1.0000 0.87920  0.62420  0.44010  Biso   1.000  C
  C2       1.0000 0.80160  0.68880  0.41740  Biso   1.000  C
  C3       1.0000 0.75529  0.75599  0.44929  Biso   1.000  C
  C4       1.0000 0.68462  0.81172  0.42952  Biso   1.000  C
  C5       1.0000 0.63654  0.88264  0.46494  Biso   1.000  C
  C6       1.0000 0.65590  0.80240  0.38050  Biso   1.000  C
  C7       1.0000 0.70240  0.73720  0.34730  Biso   1.000  C
  C8       1.0000 0.77400  0.67860  0.36790  Biso   1.000  C
  C9       1.0000 0.23420  0.59420  0.73520  Biso   1.000  C
  C10      1.0000 0.26590  0.58120  0.66340  Biso   1.000  C
  C11      1.0000 0.22220  0.57040  0.63000  Biso   1.000  C
  C12      1.0000 0.14120  0.57630  0.66970  Biso   1.000  C
  C13      1.0000 0.08960  0.57140  0.63110  Biso   1.000  C
  C14      1.0000 0.10770  0.58480  0.74510  Biso   1.000  C
  C15      1.0000 0.15540  0.59700  0.77700  Biso   1.000  C
  C16      1.0000 0.26640  0.61310  0.78370  Biso   1.000  C
  C17      1.0000 0.44010  0.87920  0.62420  Biso   1.000  C
  C18      1.0000 0.41740  0.80160  0.68880  Biso   1.000  C
  C19      1.0000 0.44929  0.75529  0.75599  Biso   1.000  C
  C20      1.0000 0.42952  0.68462  0.81172  Biso   1.000  C
  C21      1.0000 0.46494  0.63654  0.88264  Biso   1.000  C
  C22      1.0000 0.38050  0.65590  0.80240  Biso   1.000  C
  C23      1.0000 0.34730  0.70240  0.73720  Biso   1.000  C
  C24      1.0000 0.36790  0.77400  0.67860  Biso   1.000  C
  C25      1.0000 0.73520  0.23420  0.59420  Biso   1.000  C
  C26      1.0000 0.66340  0.26590  0.58120  Biso   1.000  C
  C27      1.0000 0.63000  0.22220  0.57040  Biso   1.000  C
  C28      1.0000 0.66970  0.14120  0.57630  Biso   1.000  C
  C29      1.0000 0.63110  0.08960  0.57140  Biso   1.000  C
  C30      1.0000 0.74510  0.10770  0.58480  Biso   1.000  C
  C31      1.0000 0.77700  0.15540  0.59700  Biso   1.000  C
  C32      1.0000 0.78370  0.26640  0.61310  Biso   1.000  C
  C33      1.0000 0.62420  0.44010  0.87920  Biso   1.000  C
  C34      1.0000 0.68880  0.41740  0.80160  Biso   1.000  C
  C35      1.0000 0.75599  0.44929  0.75529  Biso   1.000  C
  C36      1.0000 0.81172  0.42952  0.68462  Biso   1.000  C
  C37      1.0000 0.88264  0.46494  0.63654  Biso   1.000  C
  C38      1.0000 0.80240  0.38050  0.65590  Biso   1.000  C
  C39      1.0000 0.73720  0.34730  0.70240  Biso   1.000  C
  C40      1.0000 0.67860  0.36790  0.77400  Biso   1.000  C
  C41      1.0000 0.59420  0.73520  0.23420  Biso   1.000  C
  C42      1.0000 0.58120  0.66340  0.26590  Biso   1.000  C
  C43      1.0000 0.57040  0.63000  0.22220  Biso   1.000  C
  C44      1.0000 0.57630  0.66970  0.14120  Biso   1.000  C
  C45      1.0000 0.57140  0.63110  0.08960  Biso   1.000  C
  C46      1.0000 0.58480  0.74510  0.10770  Biso   1.000  C
  C47      1.0000 0.59700  0.77700  0.15540  Biso   1.000  C
  C48      1.0000 0.61310  0.78370  0.26640  Biso   1.000  C
  C49      1.0000 0.12080  0.37580  0.55990  Biso   1.000  C
  C50      1.0000 0.19840  0.31120  0.58260  Biso   1.000  C
  C51      1.0000 0.24471  0.24401  0.55071  Biso   1.000  C
  C52      1.0000 0.31538  0.18828  0.57048  Biso   1.000  C
  C53      1.0000 0.36346  0.11736  0.53506  Biso   1.000  C
  C54      1.0000 0.34410  0.19760  0.61950  Biso   1.000  C
  C55      1.0000 0.29760  0.26280  0.65270  Biso   1.000  C
  C56      1.0000 0.22600  0.32140  0.63210  Biso   1.000  C
  C57      1.0000 0.76580  0.40580  0.26480  Biso   1.000  C
  C58      1.0000 0.73410  0.41880  0.33660  Biso   1.000  C
  C59      1.0000 0.77780  0.42960  0.37000  Biso   1.000  C
  C60      1.0000 0.85880  0.42370  0.33030  Biso   1.000  C
  C61      1.0000 0.91040  0.42860  0.36890  Biso   1.000  C
  C62      1.0000 0.89230  0.41520  0.25490  Biso   1.000  C
  C63      1.0000 0.84460  0.40300  0.22300  Biso   1.000  C
  C64      1.0000 0.73360  0.38690  0.21630  Biso   1.000  C
  C65      1.0000 0.55990  0.12080  0.37580  Biso   1.000  C
  C66      1.0000 0.58260  0.19840  0.31120  Biso   1.000  C
  C67      1.0000 0.55071  0.24471  0.24401  Biso   1.000  C
  C68      1.0000 0.57048  0.31538  0.18828  Biso   1.000  C
  C69      1.0000 0.53506  0.36346  0.11736  Biso   1.000  C
  C70      1.0000 0.61950  0.34410  0.19760  Biso   1.000  C
  C71      1.0000 0.65270  0.29760  0.26280  Biso   1.000  C
  C72      1.0000 0.63210  0.22600  0.32140  Biso   1.000  C
  C73      1.0000 0.26480  0.76580  0.40580  Biso   1.000  C
  C74      1.0000 0.33660  0.73410  0.41880  Biso   1.000  C
  C75      1.0000 0.37000  0.77780  0.42960  Biso   1.000  C
  C76      1.0000 0.33030  0.85880  0.42370  Biso   1.000  C
  C77      1.0000 0.36890  0.91040  0.42860  Biso   1.000  C
  C78      1.0000 0.25490  0.89230  0.41520  Biso   1.000  C
  C79      1.0000 0.22300  0.84460  0.40300  Biso   1.000  C
  C80      1.0000 0.21630  0.73360  0.38690  Biso   1.000  C
  C81      1.0000 0.37580  0.55990  0.12080  Biso   1.000  C
  C82      1.0000 0.31120  0.58260  0.19840  Biso   1.000  C
  C83      1.0000 0.24401  0.55071  0.24471  Biso   1.000  C
  C84      1.0000 0.18828  0.57048  0.31538  Biso   1.000  C
  C85      1.0000 0.11736  0.53506  0.36346  Biso   1.000  C
  C86      1.0000 0.19760  0.61950  0.34410  Biso   1.000  C
  C87      1.0000 0.26280  0.65270  0.29760  Biso   1.000  C
  C88      1.0000 0.32140  0.63210  0.22600  Biso   1.000  C
  C89      1.0000 0.40580  0.26480  0.76580  Biso   1.000  C
  C90      1.0000 0.41880  0.33660  0.73410  Biso   1.000  C
  C91      1.0000 0.42960  0.37000  0.77780  Biso   1.000  C
  C92      1.0000 0.42370  0.33030  0.85880  Biso   1.000  C
  C93      1.0000 0.42860  0.36890  0.91040  Biso   1.000  C
  C94      1.0000 0.41520  0.25490  0.89230  Biso   1.000  C
  C95      1.0000 0.40300  0.22300  0.84460  Biso   1.000  C
  C96      1.0000 0.38690  0.21630  0.73360  Biso   1.000  C
  O1       1.0000 0.89517  0.63187  0.49377  Biso   1.000  O
  O2       1.0000 0.91985  0.56925  0.40595  Biso   1.000  O
  O3       1.0000 0.00360  0.70910  0.47320  Biso   1.000  O
  O4       1.0000 0.11825  0.57825  0.55495  Biso   1.000  O
  O5       1.0000 0.88470  0.67420  0.62430  Biso   1.000  O
  O6       1.0000 0.01993  0.56103  0.67463  Biso   1.000  O
  O7       1.0000 0.56718  0.92858  0.45398  Biso   1.000  O
  O8       1.0000 0.66460  0.89240  0.50740  Biso   1.000  O
  O9       1.0000 0.66870  0.70750  0.31740  Biso   1.000  O
  O10      1.0000 0.49377  0.89517  0.63187  Biso   1.000  O
  O11      1.0000 0.40595  0.91985  0.56925  Biso   1.000  O
  O12      1.0000 0.47320  0.00360  0.70910  Biso   1.000  O
  O13      1.0000 0.55495  0.11825  0.57825  Biso   1.000  O
  O14      1.0000 0.62430  0.88470  0.67420  Biso   1.000  O
  O15      1.0000 0.67463  0.01993  0.56103  Biso   1.000  O
  O16      1.0000 0.45398  0.56718  0.92858  Biso   1.000  O
  O17      1.0000 0.50740  0.66460  0.89240  Biso   1.000  O
  O18      1.0000 0.31740  0.66870  0.70750  Biso   1.000  O
  O19      1.0000 0.63187  0.49377  0.89517  Biso   1.000  O
  O20      1.0000 0.56925  0.40595  0.91985  Biso   1.000  O
  O21      1.0000 0.70910  0.47320  0.00360  Biso   1.000  O
  O22      1.0000 0.57825  0.55495  0.11825  Biso   1.000  O
  O23      1.0000 0.67420  0.62430  0.88470  Biso   1.000  O
  O24      1.0000 0.56103  0.67463  0.01993  Biso   1.000  O
  O25      1.0000 0.92858  0.45398  0.56718  Biso   1.000  O
  O26      1.0000 0.89240  0.50740  0.66460  Biso   1.000  O
  O27      1.0000 0.70750  0.31740  0.66870  Biso   1.000  O
  O28      1.0000 0.10483  0.36813  0.50623  Biso   1.000  O
  O29      1.0000 0.08015  0.43075  0.59405  Biso   1.000  O
  O30      1.0000 0.99640  0.29090  0.52680  Biso   1.000  O
  O31      1.0000 0.88175  0.42175  0.44505  Biso   1.000  O
  O32      1.0000 0.11530  0.32580  0.37570  Biso   1.000  O
  O33      1.0000 0.98007  0.43897  0.32537  Biso   1.000  O
  O34      1.0000 0.43282  0.07142  0.54602  Biso   1.000  O
  O35      1.0000 0.33540  0.10760  0.49260  Biso   1.000  O
  O36      1.0000 0.33130  0.29250  0.68260  Biso   1.000  O
  O37      1.0000 0.50623  0.10483  0.36813  Biso   1.000  O
  O38      1.0000 0.59405  0.08015  0.43075  Biso   1.000  O
  O39      1.0000 0.52680  0.99640  0.29090  Biso   1.000  O
  O40      1.0000 0.44505  0.88175  0.42175  Biso   1.000  O
  O41      1.0000 0.37570  0.11530  0.32580  Biso   1.000  O
  O42      1.0000 0.32537  0.98007  0.43897  Biso   1.000  O
  O43      1.0000 0.54602  0.43282  0.07142  Biso   1.000  O
  O44      1.0000 0.49260  0.33540  0.10760  Biso   1.000  O
  O45      1.0000 0.68260  0.33130  0.29250  Biso   1.000  O
  O46      1.0000 0.36813  0.50623  0.10483  Biso   1.000  O
  O47      1.0000 0.43075  0.59405  0.08015  Biso   1.000  O
  O48      1.0000 0.29090  0.52680  0.99640  Biso   1.000  O
  O49      1.0000 0.42175  0.44505  0.88175  Biso   1.000  O
  O50      1.0000 0.32580  0.37570  0.11530  Biso   1.000  O
  O51      1.0000 0.43897  0.32537  0.98007  Biso   1.000  O
  O52      1.0000 0.07142  0.54602  0.43282  Biso   1.000  O
  O53      1.0000 0.10760  0.49260  0.33540  Biso   1.000  O
  O54      1.0000 0.29250  0.68260  0.33130  Biso   1.000  O
