data_image0
_cell_length_a       19.012
_cell_length_b       19.012
_cell_length_c       19.012
_cell_angle_alpha    62.9587
_cell_angle_beta     62.9587
_cell_angle_gamma    62.9587

_symmetry_space_group_name_H-M    P 1
_symmetry_int_tables_number       1

loop_
  _symmetry_equiv_pos_as_xyz
  'x, y, z'

loop_
  _atom_site_label
  _atom_site_occupancy
  _atom_site_fract_x
  _atom_site_fract_y
  _atom_site_fract_z
  _atom_site_thermal_displace_type
  _atom_site_B_iso_or_equiv
  _atom_site_type_symbol
  Tb1      1.0000 0.50435  0.94053  0.93305  Biso   1.000  Tb
  Tb2      1.0000 0.93305  0.50435  0.94053  Biso   1.000  Tb
  Tb3      1.0000 0.94053  0.93305  0.50435  Biso   1.000  Tb
  Tb4      1.0000 0.49565  0.05947  0.06695  Biso   1.000  Tb
  Tb5      1.0000 0.06695  0.49565  0.05947  Biso   1.000  Tb
  Tb6      1.0000 0.05947  0.06695  0.49565  Biso   1.000  Tb
  H1       1.0000 0.27340  0.98350  0.26260  Biso   1.000  H
  H2       1.0000 0.10800  0.86720  0.34240  Biso   1.000  H
  H3       1.0000 0.30200  0.84770  0.13400  Biso   1.000  H
  H4       1.0000 0.10710  0.62700  0.33060  Biso   1.000  H
  H5       1.0000 0.08490  0.55160  0.27610  Biso   1.000  H
  H6       1.0000 0.05780  0.74900  0.08120  Biso   1.000  H
  H7       1.0000 0.06750  0.82540  0.14000  Biso   1.000  H
  H8       1.0000 0.06010  0.80890  0.30850  Biso   1.000  H
  H9       1.0000 0.13660  0.72790  0.32320  Biso   1.000  H
  H10      1.0000 0.26260  0.27340  0.98350  Biso   1.000  H
  H11      1.0000 0.34240  0.10800  0.86720  Biso   1.000  H
  H12      1.0000 0.13400  0.30200  0.84770  Biso   1.000  H
  H13      1.0000 0.33060  0.10710  0.62700  Biso   1.000  H
  H14      1.0000 0.27610  0.08490  0.55160  Biso   1.000  H
  H15      1.0000 0.08120  0.05780  0.74900  Biso   1.000  H
  H16      1.0000 0.14000  0.06750  0.82540  Biso   1.000  H
  H17      1.0000 0.30850  0.06010  0.80890  Biso   1.000  H
  H18      1.0000 0.32320  0.13660  0.72790  Biso   1.000  H
  H19      1.0000 0.98350  0.26260  0.27340  Biso   1.000  H
  H20      1.0000 0.86720  0.34240  0.10800  Biso   1.000  H
  H21      1.0000 0.84770  0.13400  0.30200  Biso   1.000  H
  H22      1.0000 0.62700  0.33060  0.10710  Biso   1.000  H
  H23      1.0000 0.55160  0.27610  0.08490  Biso   1.000  H
  H24      1.0000 0.74900  0.08120  0.05780  Biso   1.000  H
  H25      1.0000 0.82540  0.14000  0.06750  Biso   1.000  H
  H26      1.0000 0.80890  0.30850  0.06010  Biso   1.000  H
  H27      1.0000 0.72790  0.32320  0.13660  Biso   1.000  H
  H28      1.0000 0.72660  0.01650  0.73740  Biso   1.000  H
  H29      1.0000 0.89200  0.13280  0.65760  Biso   1.000  H
  H30      1.0000 0.69800  0.15230  0.86600  Biso   1.000  H
  H31      1.0000 0.89290  0.37300  0.66940  Biso   1.000  H
  H32      1.0000 0.91510  0.44840  0.72390  Biso   1.000  H
  H33      1.0000 0.94220  0.25100  0.91880  Biso   1.000  H
  H34      1.0000 0.93250  0.17460  0.86000  Biso   1.000  H
  H35      1.0000 0.93990  0.19110  0.69150  Biso   1.000  H
  H36      1.0000 0.86340  0.27210  0.67680  Biso   1.000  H
  H37      1.0000 0.73740  0.72660  0.01650  Biso   1.000  H
  H38      1.0000 0.65760  0.89200  0.13280  Biso   1.000  H
  H39      1.0000 0.86600  0.69800  0.15230  Biso   1.000  H
  H40      1.0000 0.66940  0.89290  0.37300  Biso   1.000  H
  H41      1.0000 0.72390  0.91510  0.44840  Biso   1.000  H
  H42      1.0000 0.91880  0.94220  0.25100  Biso   1.000  H
  H43      1.0000 0.86000  0.93250  0.17460  Biso   1.000  H
  H44      1.0000 0.69150  0.93990  0.19110  Biso   1.000  H
  H45      1.0000 0.67680  0.86340  0.27210  Biso   1.000  H
  H46      1.0000 0.01650  0.73740  0.72660  Biso   1.000  H
  H47      1.0000 0.13280  0.65760  0.89200  Biso   1.000  H
  H48      1.0000 0.15230  0.86600  0.69800  Biso   1.000  H
  H49      1.0000 0.37300  0.66940  0.89290  Biso   1.000  H
  H50      1.0000 0.44840  0.72390  0.91510  Biso   1.000  H
  H51      1.0000 0.25100  0.91880  0.94220  Biso   1.000  H
  H52      1.0000 0.17460  0.86000  0.93250  Biso   1.000  H
  H53      1.0000 0.19110  0.69150  0.93990  Biso   1.000  H
  H54      1.0000 0.27210  0.67680  0.86340  Biso   1.000  H
  C1       1.0000 0.37940  0.93980  0.12470  Biso   1.000  C
  C2       1.0000 0.30144  0.91654  0.18944  Biso   1.000  C
  C3       1.0000 0.25570  0.94910  0.25650  Biso   1.000  C
  C4       1.0000 0.18439  0.92949  0.31289  Biso   1.000  C
  C5       1.0000 0.15640  0.87980  0.30420  Biso   1.000  C
  C6       1.0000 0.20210  0.84870  0.23680  Biso   1.000  C
  C7       1.0000 0.27330  0.86770  0.17930  Biso   1.000  C
  C8       1.0000 0.09090  0.73460  0.23770  Biso   1.000  C
  C9       1.0000 0.09630  0.65240  0.28000  Biso   1.000  C
  C10      1.0000 0.08560  0.60600  0.24590  Biso   1.000  C
  C11      1.0000 0.07650  0.64210  0.16910  Biso   1.000  C
  C12      1.0000 0.06830  0.72280  0.13200  Biso   1.000  C
  C13      1.0000 0.07470  0.76900  0.16730  Biso   1.000  C
  C14      1.0000 0.13719  0.96539  0.38209  Biso   1.000  C
  C15      1.0000 0.07120  0.59080  0.13150  Biso   1.000  C
  C16      1.0000 0.10990  0.77110  0.28210  Biso   1.000  C
  C17      1.0000 0.12470  0.37940  0.93980  Biso   1.000  C
  C18      1.0000 0.18944  0.30144  0.91654  Biso   1.000  C
  C19      1.0000 0.25650  0.25570  0.94910  Biso   1.000  C
  C20      1.0000 0.31289  0.18439  0.92949  Biso   1.000  C
  C21      1.0000 0.30420  0.15640  0.87980  Biso   1.000  C
  C22      1.0000 0.23680  0.20210  0.84870  Biso   1.000  C
  C23      1.0000 0.17930  0.27330  0.86770  Biso   1.000  C
  C24      1.0000 0.23770  0.09090  0.73460  Biso   1.000  C
  C25      1.0000 0.28000  0.09630  0.65240  Biso   1.000  C
  C26      1.0000 0.24590  0.08560  0.60600  Biso   1.000  C
  C27      1.0000 0.16910  0.07650  0.64210  Biso   1.000  C
  C28      1.0000 0.13200  0.06830  0.72280  Biso   1.000  C
  C29      1.0000 0.16730  0.07470  0.76900  Biso   1.000  C
  C30      1.0000 0.38209  0.13719  0.96539  Biso   1.000  C
  C31      1.0000 0.13150  0.07120  0.59080  Biso   1.000  C
  C32      1.0000 0.28210  0.10990  0.77110  Biso   1.000  C
  C33      1.0000 0.93980  0.12470  0.37940  Biso   1.000  C
  C34      1.0000 0.91654  0.18944  0.30144  Biso   1.000  C
  C35      1.0000 0.94910  0.25650  0.25570  Biso   1.000  C
  C36      1.0000 0.92949  0.31289  0.18439  Biso   1.000  C
  C37      1.0000 0.87980  0.30420  0.15640  Biso   1.000  C
  C38      1.0000 0.84870  0.23680  0.20210  Biso   1.000  C
  C39      1.0000 0.86770  0.17930  0.27330  Biso   1.000  C
  C40      1.0000 0.73460  0.23770  0.09090  Biso   1.000  C
  C41      1.0000 0.65240  0.28000  0.09630  Biso   1.000  C
  C42      1.0000 0.60600  0.24590  0.08560  Biso   1.000  C
  C43      1.0000 0.64210  0.16910  0.07650  Biso   1.000  C
  C44      1.0000 0.72280  0.13200  0.06830  Biso   1.000  C
  C45      1.0000 0.76900  0.16730  0.07470  Biso   1.000  C
  C46      1.0000 0.96539  0.38209  0.13719  Biso   1.000  C
  C47      1.0000 0.59080  0.13150  0.07120  Biso   1.000  C
  C48      1.0000 0.77110  0.28210  0.10990  Biso   1.000  C
  C49      1.0000 0.62060  0.06020  0.87530  Biso   1.000  C
  C50      1.0000 0.69856  0.08346  0.81056  Biso   1.000  C
  C51      1.0000 0.74430  0.05090  0.74350  Biso   1.000  C
  C52      1.0000 0.81561  0.07051  0.68711  Biso   1.000  C
  C53      1.0000 0.84360  0.12020  0.69580  Biso   1.000  C
  C54      1.0000 0.79790  0.15130  0.76320  Biso   1.000  C
  C55      1.0000 0.72670  0.13230  0.82070  Biso   1.000  C
  C56      1.0000 0.90910  0.26540  0.76230  Biso   1.000  C
  C57      1.0000 0.90370  0.34760  0.72000  Biso   1.000  C
  C58      1.0000 0.91440  0.39400  0.75410  Biso   1.000  C
  C59      1.0000 0.92350  0.35790  0.83090  Biso   1.000  C
  C60      1.0000 0.93170  0.27720  0.86800  Biso   1.000  C
  C61      1.0000 0.92530  0.23100  0.83270  Biso   1.000  C
  C62      1.0000 0.86281  0.03461  0.61791  Biso   1.000  C
  C63      1.0000 0.92880  0.40920  0.86850  Biso   1.000  C
  C64      1.0000 0.89010  0.22890  0.71790  Biso   1.000  C
  C65      1.0000 0.87530  0.62060  0.06020  Biso   1.000  C
  C66      1.0000 0.81056  0.69856  0.08346  Biso   1.000  C
  C67      1.0000 0.74350  0.74430  0.05090  Biso   1.000  C
  C68      1.0000 0.68711  0.81561  0.07051  Biso   1.000  C
  C69      1.0000 0.69580  0.84360  0.12020  Biso   1.000  C
  C70      1.0000 0.76320  0.79790  0.15130  Biso   1.000  C
  C71      1.0000 0.82070  0.72670  0.13230  Biso   1.000  C
  C72      1.0000 0.76230  0.90910  0.26540  Biso   1.000  C
  C73      1.0000 0.72000  0.90370  0.34760  Biso   1.000  C
  C74      1.0000 0.75410  0.91440  0.39400  Biso   1.000  C
  C75      1.0000 0.83090  0.92350  0.35790  Biso   1.000  C
  C76      1.0000 0.86800  0.93170  0.27720  Biso   1.000  C
  C77      1.0000 0.83270  0.92530  0.23100  Biso   1.000  C
  C78      1.0000 0.61791  0.86281  0.03461  Biso   1.000  C
  C79      1.0000 0.86850  0.92880  0.40920  Biso   1.000  C
  C80      1.0000 0.71790  0.89010  0.22890  Biso   1.000  C
  C81      1.0000 0.06020  0.87530  0.62060  Biso   1.000  C
  C82      1.0000 0.08346  0.81056  0.69856  Biso   1.000  C
  C83      1.0000 0.05090  0.74350  0.74430  Biso   1.000  C
  C84      1.0000 0.07051  0.68711  0.81561  Biso   1.000  C
  C85      1.0000 0.12020  0.69580  0.84360  Biso   1.000  C
  C86      1.0000 0.15130  0.76320  0.79790  Biso   1.000  C
  C87      1.0000 0.13230  0.82070  0.72670  Biso   1.000  C
  C88      1.0000 0.26540  0.76230  0.90910  Biso   1.000  C
  C89      1.0000 0.34760  0.72000  0.90370  Biso   1.000  C
  C90      1.0000 0.39400  0.75410  0.91440  Biso   1.000  C
  C91      1.0000 0.35790  0.83090  0.92350  Biso   1.000  C
  C92      1.0000 0.27720  0.86800  0.93170  Biso   1.000  C
  C93      1.0000 0.23100  0.83270  0.92530  Biso   1.000  C
  C94      1.0000 0.03461  0.61791  0.86281  Biso   1.000  C
  C95      1.0000 0.40920  0.86850  0.92880  Biso   1.000  C
  C96      1.0000 0.22890  0.71790  0.89010  Biso   1.000  C
  O1       1.0000 0.41983  0.90543  0.07013  Biso   1.000  O
  O2       1.0000 0.39545  0.99275  0.13235  Biso   1.000  O
  O3       1.0000 0.49160  0.03410  0.79040  Biso   1.000  O
  O4       1.0000 0.16515  0.00735  0.39275  Biso   1.000  O
  O5       1.0000 0.62340  0.86280  0.83620  Biso   1.000  O
  O6       1.0000 0.06798  0.95458  0.42878  Biso   1.000  O
  O7       1.0000 0.07808  0.61858  0.05658  Biso   1.000  O
  O8       1.0000 0.06141  0.52031  0.17521  Biso   1.000  O
  O9       1.0000 0.16920  0.81710  0.20830  Biso   1.000  O
  O10      1.0000 0.07013  0.41983  0.90543  Biso   1.000  O
  O11      1.0000 0.13235  0.39545  0.99275  Biso   1.000  O
  O12      1.0000 0.79040  0.49160  0.03410  Biso   1.000  O
  O13      1.0000 0.39275  0.16515  0.00735  Biso   1.000  O
  O14      1.0000 0.83620  0.62340  0.86280  Biso   1.000  O
  O15      1.0000 0.42878  0.06798  0.95458  Biso   1.000  O
  O16      1.0000 0.05658  0.07808  0.61858  Biso   1.000  O
  O17      1.0000 0.17521  0.06141  0.52031  Biso   1.000  O
  O18      1.0000 0.20830  0.16920  0.81710  Biso   1.000  O
  O19      1.0000 0.90543  0.07013  0.41983  Biso   1.000  O
  O20      1.0000 0.99275  0.13235  0.39545  Biso   1.000  O
  O21      1.0000 0.03410  0.79040  0.49160  Biso   1.000  O
  O22      1.0000 0.00735  0.39275  0.16515  Biso   1.000  O
  O23      1.0000 0.86280  0.83620  0.62340  Biso   1.000  O
  O24      1.0000 0.95458  0.42878  0.06798  Biso   1.000  O
  O25      1.0000 0.61858  0.05658  0.07808  Biso   1.000  O
  O26      1.0000 0.52031  0.17521  0.06141  Biso   1.000  O
  O27      1.0000 0.81710  0.20830  0.16920  Biso   1.000  O
  O28      1.0000 0.58017  0.09457  0.92987  Biso   1.000  O
  O29      1.0000 0.60455  0.00725  0.86765  Biso   1.000  O
  O30      1.0000 0.50840  0.96590  0.20960  Biso   1.000  O
  O31      1.0000 0.83485  0.99265  0.60725  Biso   1.000  O
  O32      1.0000 0.37660  0.13720  0.16380  Biso   1.000  O
  O33      1.0000 0.93202  0.04542  0.57122  Biso   1.000  O
  O34      1.0000 0.92192  0.38142  0.94342  Biso   1.000  O
  O35      1.0000 0.93859  0.47969  0.82479  Biso   1.000  O
  O36      1.0000 0.83080  0.18290  0.79170  Biso   1.000  O
  O37      1.0000 0.92987  0.58017  0.09457  Biso   1.000  O
  O38      1.0000 0.86765  0.60455  0.00725  Biso   1.000  O
  O39      1.0000 0.20960  0.50840  0.96590  Biso   1.000  O
  O40      1.0000 0.60725  0.83485  0.99265  Biso   1.000  O
  O41      1.0000 0.16380  0.37660  0.13720  Biso   1.000  O
  O42      1.0000 0.57122  0.93202  0.04542  Biso   1.000  O
  O43      1.0000 0.94342  0.92192  0.38142  Biso   1.000  O
  O44      1.0000 0.82479  0.93859  0.47969  Biso   1.000  O
  O45      1.0000 0.79170  0.83080  0.18290  Biso   1.000  O
  O46      1.0000 0.09457  0.92987  0.58017  Biso   1.000  O
  O47      1.0000 0.00725  0.86765  0.60455  Biso   1.000  O
  O48      1.0000 0.96590  0.20960  0.50840  Biso   1.000  O
  O49      1.0000 0.99265  0.60725  0.83485  Biso   1.000  O
  O50      1.0000 0.13720  0.16380  0.37660  Biso   1.000  O
  O51      1.0000 0.04542  0.57122  0.93202  Biso   1.000  O
  O52      1.0000 0.38142  0.94342  0.92192  Biso   1.000  O
  O53      1.0000 0.47969  0.82479  0.93859  Biso   1.000  O
  O54      1.0000 0.18290  0.79170  0.83080  Biso   1.000  O
