data_image0
_cell_length_a       18.8226
_cell_length_b       18.8226
_cell_length_c       18.8226
_cell_angle_alpha    62.8981
_cell_angle_beta     62.8981
_cell_angle_gamma    62.8981

_symmetry_space_group_name_H-M    P 1
_symmetry_int_tables_number       1

loop_
  _symmetry_equiv_pos_as_xyz
  'x, y, z'

loop_
  _atom_site_label
  _atom_site_occupancy
  _atom_site_fract_x
  _atom_site_fract_y
  _atom_site_fract_z
  _atom_site_thermal_displace_type
  _atom_site_B_iso_or_equiv
  _atom_site_type_symbol
  Er1      1.0000 0.99556  0.55932  0.56628  Biso   1.000  Er
  Er2      1.0000 0.56628  0.99556  0.55932  Biso   1.000  Er
  Er3      1.0000 0.55932  0.56628  0.99556  Biso   1.000  Er
  Er4      1.0000 0.00444  0.44068  0.43372  Biso   1.000  Er
  Er5      1.0000 0.43372  0.00444  0.44068  Biso   1.000  Er
  Er6      1.0000 0.44068  0.43372  0.00444  Biso   1.000  Er
  H1       1.0000 0.22500  0.51810  0.23590  Biso   1.000  H
  H2       1.0000 0.38990  0.63730  0.15520  Biso   1.000  H
  H3       1.0000 0.19430  0.65530  0.36580  Biso   1.000  H
  H4       1.0000 0.43990  0.66700  0.22820  Biso   1.000  H
  H5       1.0000 0.39640  0.75030  0.16770  Biso   1.000  H
  H6       1.0000 0.39410  0.87930  0.16580  Biso   1.000  H
  H7       1.0000 0.40480  0.95470  0.22610  Biso   1.000  H
  H8       1.0000 0.43900  0.75300  0.42120  Biso   1.000  H
  H9       1.0000 0.43380  0.67560  0.35830  Biso   1.000  H
  H10      1.0000 0.23590  0.22500  0.51810  Biso   1.000  H
  H11      1.0000 0.15520  0.38990  0.63730  Biso   1.000  H
  H12      1.0000 0.36580  0.19430  0.65530  Biso   1.000  H
  H13      1.0000 0.22820  0.43990  0.66700  Biso   1.000  H
  H14      1.0000 0.16770  0.39640  0.75030  Biso   1.000  H
  H15      1.0000 0.16580  0.39410  0.87930  Biso   1.000  H
  H16      1.0000 0.22610  0.40480  0.95470  Biso   1.000  H
  H17      1.0000 0.42120  0.43900  0.75300  Biso   1.000  H
  H18      1.0000 0.35830  0.43380  0.67560  Biso   1.000  H
  H19      1.0000 0.51810  0.23590  0.22500  Biso   1.000  H
  H20      1.0000 0.63730  0.15520  0.38990  Biso   1.000  H
  H21      1.0000 0.65530  0.36580  0.19430  Biso   1.000  H
  H22      1.0000 0.66700  0.22820  0.43990  Biso   1.000  H
  H23      1.0000 0.75030  0.16770  0.39640  Biso   1.000  H
  H24      1.0000 0.87930  0.16580  0.39410  Biso   1.000  H
  H25      1.0000 0.95470  0.22610  0.40480  Biso   1.000  H
  H26      1.0000 0.75300  0.42120  0.43900  Biso   1.000  H
  H27      1.0000 0.67560  0.35830  0.43380  Biso   1.000  H
  H28      1.0000 0.77500  0.48190  0.76410  Biso   1.000  H
  H29      1.0000 0.61010  0.36270  0.84480  Biso   1.000  H
  H30      1.0000 0.80570  0.34470  0.63420  Biso   1.000  H
  H31      1.0000 0.56010  0.33300  0.77180  Biso   1.000  H
  H32      1.0000 0.60360  0.24970  0.83230  Biso   1.000  H
  H33      1.0000 0.60590  0.12070  0.83420  Biso   1.000  H
  H34      1.0000 0.59520  0.04530  0.77390  Biso   1.000  H
  H35      1.0000 0.56100  0.24700  0.57880  Biso   1.000  H
  H36      1.0000 0.56620  0.32440  0.64170  Biso   1.000  H
  H37      1.0000 0.76410  0.77500  0.48190  Biso   1.000  H
  H38      1.0000 0.84480  0.61010  0.36270  Biso   1.000  H
  H39      1.0000 0.63420  0.80570  0.34470  Biso   1.000  H
  H40      1.0000 0.77180  0.56010  0.33300  Biso   1.000  H
  H41      1.0000 0.83230  0.60360  0.24970  Biso   1.000  H
  H42      1.0000 0.83420  0.60590  0.12070  Biso   1.000  H
  H43      1.0000 0.77390  0.59520  0.04530  Biso   1.000  H
  H44      1.0000 0.57880  0.56100  0.24700  Biso   1.000  H
  H45      1.0000 0.64170  0.56620  0.32440  Biso   1.000  H
  H46      1.0000 0.48190  0.76410  0.77500  Biso   1.000  H
  H47      1.0000 0.36270  0.84480  0.61010  Biso   1.000  H
  H48      1.0000 0.34470  0.63420  0.80570  Biso   1.000  H
  H49      1.0000 0.33300  0.77180  0.56010  Biso   1.000  H
  H50      1.0000 0.24970  0.83230  0.60360  Biso   1.000  H
  H51      1.0000 0.12070  0.83420  0.60590  Biso   1.000  H
  H52      1.0000 0.04530  0.77390  0.59520  Biso   1.000  H
  H53      1.0000 0.24700  0.57880  0.56100  Biso   1.000  H
  H54      1.0000 0.32440  0.64170  0.56620  Biso   1.000  H
  C1       1.0000 0.11956  0.56096  0.37516  Biso   1.000  C
  C2       1.0000 0.19652  0.58542  0.31022  Biso   1.000  C
  C3       1.0000 0.24302  0.55242  0.24272  Biso   1.000  C
  C4       1.0000 0.31564  0.57144  0.18684  Biso   1.000  C
  C5       1.0000 0.34179  0.62339  0.19439  Biso   1.000  C
  C6       1.0000 0.29541  0.65551  0.26211  Biso   1.000  C
  C7       1.0000 0.22384  0.63504  0.32004  Biso   1.000  C
  C8       1.0000 0.39530  0.72040  0.22570  Biso   1.000  C
  C9       1.0000 0.40670  0.77070  0.25940  Biso   1.000  C
  C10      1.0000 0.40220  0.85320  0.21830  Biso   1.000  C
  C11      1.0000 0.40940  0.89810  0.25440  Biso   1.000  C
  C12      1.0000 0.42282  0.86272  0.32862  Biso   1.000  C
  C13      1.0000 0.42821  0.91161  0.36881  Biso   1.000  C
  C14      1.0000 0.43030  0.77900  0.36910  Biso   1.000  C
  C15      1.0000 0.42480  0.73310  0.33230  Biso   1.000  C
  C16      1.0000 0.36351  0.53501  0.11741  Biso   1.000  C
  C17      1.0000 0.37516  0.11956  0.56096  Biso   1.000  C
  C18      1.0000 0.31022  0.19652  0.58542  Biso   1.000  C
  C19      1.0000 0.24272  0.24302  0.55242  Biso   1.000  C
  C20      1.0000 0.18684  0.31564  0.57144  Biso   1.000  C
  C21      1.0000 0.19439  0.34179  0.62339  Biso   1.000  C
  C22      1.0000 0.26211  0.29541  0.65551  Biso   1.000  C
  C23      1.0000 0.32004  0.22384  0.63504  Biso   1.000  C
  C24      1.0000 0.22570  0.39530  0.72040  Biso   1.000  C
  C25      1.0000 0.25940  0.40670  0.77070  Biso   1.000  C
  C26      1.0000 0.21830  0.40220  0.85320  Biso   1.000  C
  C27      1.0000 0.25440  0.40940  0.89810  Biso   1.000  C
  C28      1.0000 0.32862  0.42282  0.86272  Biso   1.000  C
  C29      1.0000 0.36881  0.42821  0.91161  Biso   1.000  C
  C30      1.0000 0.36910  0.43030  0.77900  Biso   1.000  C
  C31      1.0000 0.33230  0.42480  0.73310  Biso   1.000  C
  C32      1.0000 0.11741  0.36351  0.53501  Biso   1.000  C
  C33      1.0000 0.56096  0.37516  0.11956  Biso   1.000  C
  C34      1.0000 0.58542  0.31022  0.19652  Biso   1.000  C
  C35      1.0000 0.55242  0.24272  0.24302  Biso   1.000  C
  C36      1.0000 0.57144  0.18684  0.31564  Biso   1.000  C
  C37      1.0000 0.62339  0.19439  0.34179  Biso   1.000  C
  C38      1.0000 0.65551  0.26211  0.29541  Biso   1.000  C
  C39      1.0000 0.63504  0.32004  0.22384  Biso   1.000  C
  C40      1.0000 0.72040  0.22570  0.39530  Biso   1.000  C
  C41      1.0000 0.77070  0.25940  0.40670  Biso   1.000  C
  C42      1.0000 0.85320  0.21830  0.40220  Biso   1.000  C
  C43      1.0000 0.89810  0.25440  0.40940  Biso   1.000  C
  C44      1.0000 0.86272  0.32862  0.42282  Biso   1.000  C
  C45      1.0000 0.91161  0.36881  0.42821  Biso   1.000  C
  C46      1.0000 0.77900  0.36910  0.43030  Biso   1.000  C
  C47      1.0000 0.73310  0.33230  0.42480  Biso   1.000  C
  C48      1.0000 0.53501  0.11741  0.36351  Biso   1.000  C
  C49      1.0000 0.88044  0.43904  0.62484  Biso   1.000  C
  C50      1.0000 0.80348  0.41458  0.68978  Biso   1.000  C
  C51      1.0000 0.75698  0.44758  0.75728  Biso   1.000  C
  C52      1.0000 0.68436  0.42856  0.81316  Biso   1.000  C
  C53      1.0000 0.65821  0.37661  0.80561  Biso   1.000  C
  C54      1.0000 0.70459  0.34449  0.73789  Biso   1.000  C
  C55      1.0000 0.77616  0.36496  0.67996  Biso   1.000  C
  C56      1.0000 0.60470  0.27960  0.77430  Biso   1.000  C
  C57      1.0000 0.59330  0.22930  0.74060  Biso   1.000  C
  C58      1.0000 0.59780  0.14680  0.78170  Biso   1.000  C
  C59      1.0000 0.59060  0.10190  0.74560  Biso   1.000  C
  C60      1.0000 0.57718  0.13728  0.67138  Biso   1.000  C
  C61      1.0000 0.57179  0.08839  0.63119  Biso   1.000  C
  C62      1.0000 0.56970  0.22100  0.63090  Biso   1.000  C
  C63      1.0000 0.57520  0.26690  0.66770  Biso   1.000  C
  C64      1.0000 0.63649  0.46499  0.88259  Biso   1.000  C
  C65      1.0000 0.62484  0.88044  0.43904  Biso   1.000  C
  C66      1.0000 0.68978  0.80348  0.41458  Biso   1.000  C
  C67      1.0000 0.75728  0.75698  0.44758  Biso   1.000  C
  C68      1.0000 0.81316  0.68436  0.42856  Biso   1.000  C
  C69      1.0000 0.80561  0.65821  0.37661  Biso   1.000  C
  C70      1.0000 0.73789  0.70459  0.34449  Biso   1.000  C
  C71      1.0000 0.67996  0.77616  0.36496  Biso   1.000  C
  C72      1.0000 0.77430  0.60470  0.27960  Biso   1.000  C
  C73      1.0000 0.74060  0.59330  0.22930  Biso   1.000  C
  C74      1.0000 0.78170  0.59780  0.14680  Biso   1.000  C
  C75      1.0000 0.74560  0.59060  0.10190  Biso   1.000  C
  C76      1.0000 0.67138  0.57718  0.13728  Biso   1.000  C
  C77      1.0000 0.63119  0.57179  0.08839  Biso   1.000  C
  C78      1.0000 0.63090  0.56970  0.22100  Biso   1.000  C
  C79      1.0000 0.66770  0.57520  0.26690  Biso   1.000  C
  C80      1.0000 0.88259  0.63649  0.46499  Biso   1.000  C
  C81      1.0000 0.43904  0.62484  0.88044  Biso   1.000  C
  C82      1.0000 0.41458  0.68978  0.80348  Biso   1.000  C
  C83      1.0000 0.44758  0.75728  0.75698  Biso   1.000  C
  C84      1.0000 0.42856  0.81316  0.68436  Biso   1.000  C
  C85      1.0000 0.37661  0.80561  0.65821  Biso   1.000  C
  C86      1.0000 0.34449  0.73789  0.70459  Biso   1.000  C
  C87      1.0000 0.36496  0.67996  0.77616  Biso   1.000  C
  C88      1.0000 0.27960  0.77430  0.60470  Biso   1.000  C
  C89      1.0000 0.22930  0.74060  0.59330  Biso   1.000  C
  C90      1.0000 0.14680  0.78170  0.59780  Biso   1.000  C
  C91      1.0000 0.10190  0.74560  0.59060  Biso   1.000  C
  C92      1.0000 0.13728  0.67138  0.57718  Biso   1.000  C
  C93      1.0000 0.08839  0.63119  0.57179  Biso   1.000  C
  C94      1.0000 0.22100  0.63090  0.56970  Biso   1.000  C
  C95      1.0000 0.26690  0.66770  0.57520  Biso   1.000  C
  C96      1.0000 0.46499  0.88259  0.63649  Biso   1.000  C
  O1       1.0000 0.07871  0.59521  0.43021  Biso   1.000  O
  O2       1.0000 0.10472  0.50602  0.36832  Biso   1.000  O
  O3       1.0000 0.88630  0.62510  0.67100  Biso   1.000  O
  O4       1.0000 0.43792  0.98262  0.32502  Biso   1.000  O
  O5       1.0000 0.00420  0.47200  0.70710  Biso   1.000  O
  O6       1.0000 0.42128  0.88278  0.44468  Biso   1.000  O
  O7       1.0000 0.33639  0.49199  0.10709  Biso   1.000  O
  O8       1.0000 0.43322  0.54722  0.07002  Biso   1.000  O
  O9       1.0000 0.31635  0.70715  0.27605  Biso   1.000  O
  O10      1.0000 0.43021  0.07871  0.59521  Biso   1.000  O
  O11      1.0000 0.36832  0.10472  0.50602  Biso   1.000  O
  O12      1.0000 0.67100  0.88630  0.62510  Biso   1.000  O
  O13      1.0000 0.32502  0.43792  0.98262  Biso   1.000  O
  O14      1.0000 0.70710  0.00420  0.47200  Biso   1.000  O
  O15      1.0000 0.44468  0.42128  0.88278  Biso   1.000  O
  O16      1.0000 0.10709  0.33639  0.49199  Biso   1.000  O
  O17      1.0000 0.07002  0.43322  0.54722  Biso   1.000  O
  O18      1.0000 0.27605  0.31635  0.70715  Biso   1.000  O
  O19      1.0000 0.59521  0.43021  0.07871  Biso   1.000  O
  O20      1.0000 0.50602  0.36832  0.10472  Biso   1.000  O
  O21      1.0000 0.62510  0.67100  0.88630  Biso   1.000  O
  O22      1.0000 0.98262  0.32502  0.43792  Biso   1.000  O
  O23      1.0000 0.47200  0.70710  0.00420  Biso   1.000  O
  O24      1.0000 0.88278  0.44468  0.42128  Biso   1.000  O
  O25      1.0000 0.49199  0.10709  0.33639  Biso   1.000  O
  O26      1.0000 0.54722  0.07002  0.43322  Biso   1.000  O
  O27      1.0000 0.70715  0.27605  0.31635  Biso   1.000  O
  O28      1.0000 0.92129  0.40479  0.56979  Biso   1.000  O
  O29      1.0000 0.89528  0.49398  0.63168  Biso   1.000  O
  O30      1.0000 0.11370  0.37490  0.32900  Biso   1.000  O
  O31      1.0000 0.56208  0.01738  0.67498  Biso   1.000  O
  O32      1.0000 0.99580  0.52800  0.29290  Biso   1.000  O
  O33      1.0000 0.57872  0.11722  0.55532  Biso   1.000  O
  O34      1.0000 0.66361  0.50801  0.89291  Biso   1.000  O
  O35      1.0000 0.56678  0.45278  0.92998  Biso   1.000  O
  O36      1.0000 0.68365  0.29285  0.72395  Biso   1.000  O
  O37      1.0000 0.56979  0.92129  0.40479  Biso   1.000  O
  O38      1.0000 0.63168  0.89528  0.49398  Biso   1.000  O
  O39      1.0000 0.32900  0.11370  0.37490  Biso   1.000  O
  O40      1.0000 0.67498  0.56208  0.01738  Biso   1.000  O
  O41      1.0000 0.29290  0.99580  0.52800  Biso   1.000  O
  O42      1.0000 0.55532  0.57872  0.11722  Biso   1.000  O
  O43      1.0000 0.89291  0.66361  0.50801  Biso   1.000  O
  O44      1.0000 0.92998  0.56678  0.45278  Biso   1.000  O
  O45      1.0000 0.72395  0.68365  0.29285  Biso   1.000  O
  O46      1.0000 0.40479  0.56979  0.92129  Biso   1.000  O
  O47      1.0000 0.49398  0.63168  0.89528  Biso   1.000  O
  O48      1.0000 0.37490  0.32900  0.11370  Biso   1.000  O
  O49      1.0000 0.01738  0.67498  0.56208  Biso   1.000  O
  O50      1.0000 0.52800  0.29290  0.99580  Biso   1.000  O
  O51      1.0000 0.11722  0.55532  0.57872  Biso   1.000  O
  O52      1.0000 0.50801  0.89291  0.66361  Biso   1.000  O
  O53      1.0000 0.45278  0.92998  0.56678  Biso   1.000  O
  O54      1.0000 0.29285  0.72395  0.68365  Biso   1.000  O
