data_image0
_cell_length_a       13.8
_cell_length_b       13.8
_cell_length_c       14.825
_cell_angle_alpha    90
_cell_angle_beta     90
_cell_angle_gamma    120

_symmetry_space_group_name_H-M    "P 1"
_symmetry_int_tables_number       1

loop_
  _symmetry_equiv_pos_as_xyz
  'x, y, z'

loop_
  _atom_site_label
  _atom_site_occupancy
  _atom_site_fract_x
  _atom_site_fract_y
  _atom_site_fract_z
  _atom_site_thermal_displace_type
  _atom_site_B_iso_or_equiv
  _atom_site_type_symbol
  Al1      1.0000 0.99590  0.22500  0.10240  Biso   1.000  Al
  P1       1.0000 0.99500  0.22300  0.88900  Biso   1.000  P
  O1       1.0000 0.99470  0.25360  0.98710  Biso   1.000  O
  O2       1.0000 0.88380  0.12300  0.86300  Biso   1.000  O
  O3       1.0000 0.08620  0.19400  0.87170  Biso   1.000  O
  O4       1.0000 0.01270  0.32010  0.82970  Biso   1.000  O
  Al2      1.0000 0.66257  0.55833  0.43573  Biso   1.000  Al
  P2       1.0000 0.66167  0.55633  0.22233  Biso   1.000  P
  O5       1.0000 0.66137  0.58693  0.32043  Biso   1.000  O
  O6       1.0000 0.55047  0.45633  0.19633  Biso   1.000  O
  O7       1.0000 0.75287  0.52733  0.20503  Biso   1.000  O
  O8       1.0000 0.67937  0.65343  0.16303  Biso   1.000  O
  Al3      1.0000 0.32923  0.89167  0.76907  Biso   1.000  Al
  P3       1.0000 0.32833  0.88967  0.55567  Biso   1.000  P
  O9       1.0000 0.32803  0.92027  0.65377  Biso   1.000  O
  O10      1.0000 0.21713  0.78967  0.52967  Biso   1.000  O
  O11      1.0000 0.41953  0.86067  0.53837  Biso   1.000  O
  O12      1.0000 0.34603  0.98677  0.49637  Biso   1.000  O
  Al4      1.0000 0.77500  0.77090  0.10240  Biso   1.000  Al
  P4       1.0000 0.77700  0.77200  0.88900  Biso   1.000  P
  O13      1.0000 0.74640  0.74110  0.98710  Biso   1.000  O
  O14      1.0000 0.87700  0.76080  0.86300  Biso   1.000  O
  O15      1.0000 0.80600  0.89220  0.87170  Biso   1.000  O
  O16      1.0000 0.67990  0.69260  0.82970  Biso   1.000  O
  Al5      1.0000 0.44167  0.10423  0.43573  Biso   1.000  Al
  P5       1.0000 0.44367  0.10533  0.22233  Biso   1.000  P
  O17      1.0000 0.41307  0.07443  0.32043  Biso   1.000  O
  O18      1.0000 0.54367  0.09413  0.19633  Biso   1.000  O
  O19      1.0000 0.47267  0.22553  0.20503  Biso   1.000  O
  O20      1.0000 0.34657  0.02593  0.16303  Biso   1.000  O
  Al6      1.0000 0.10833  0.43757  0.76907  Biso   1.000  Al
  P6       1.0000 0.11033  0.43867  0.55567  Biso   1.000  P
  O21      1.0000 0.07973  0.40777  0.65377  Biso   1.000  O
  O22      1.0000 0.21033  0.42747  0.52967  Biso   1.000  O
  O23      1.0000 0.13933  0.55887  0.53837  Biso   1.000  O
  O24      1.0000 0.01323  0.35927  0.49637  Biso   1.000  O
  Al7      1.0000 0.22910  0.00410  0.10240  Biso   1.000  Al
  P7       1.0000 0.22800  0.00500  0.88900  Biso   1.000  P
  O25      1.0000 0.25890  0.00530  0.98710  Biso   1.000  O
  O26      1.0000 0.23920  0.11620  0.86300  Biso   1.000  O
  O27      1.0000 0.10780  0.91380  0.87170  Biso   1.000  O
  O28      1.0000 0.30740  0.98730  0.82970  Biso   1.000  O
  Al8      1.0000 0.89577  0.33743  0.43573  Biso   1.000  Al
  P8       1.0000 0.89467  0.33833  0.22233  Biso   1.000  P
  O29      1.0000 0.92557  0.33863  0.32043  Biso   1.000  O
  O30      1.0000 0.90587  0.44953  0.19633  Biso   1.000  O
  O31      1.0000 0.77447  0.24713  0.20503  Biso   1.000  O
  O32      1.0000 0.97407  0.32063  0.16303  Biso   1.000  O
  Al9      1.0000 0.56243  0.67077  0.76907  Biso   1.000  Al
  P9       1.0000 0.56133  0.67167  0.55567  Biso   1.000  P
  O33      1.0000 0.59223  0.67197  0.65377  Biso   1.000  O
  O34      1.0000 0.57253  0.78287  0.52967  Biso   1.000  O
  O35      1.0000 0.44113  0.58047  0.53837  Biso   1.000  O
  O36      1.0000 0.64073  0.65397  0.49637  Biso   1.000  O
  Al10     1.0000 0.00410  0.77500  0.89760  Biso   1.000  Al
  P10      1.0000 0.00500  0.77700  0.11100  Biso   1.000  P
  O37      1.0000 0.00530  0.74640  0.01290  Biso   1.000  O
  O38      1.0000 0.11620  0.87700  0.13700  Biso   1.000  O
  O39      1.0000 0.91380  0.80600  0.12830  Biso   1.000  O
  O40      1.0000 0.98730  0.67990  0.17030  Biso   1.000  O
  Al11     1.0000 0.67077  0.10833  0.23093  Biso   1.000  Al
  P11      1.0000 0.67167  0.11033  0.44433  Biso   1.000  P
  O41      1.0000 0.67197  0.07973  0.34623  Biso   1.000  O
  O42      1.0000 0.78287  0.21033  0.47033  Biso   1.000  O
  O43      1.0000 0.58047  0.13933  0.46163  Biso   1.000  O
  O44      1.0000 0.65397  0.01323  0.50363  Biso   1.000  O
  Al12     1.0000 0.33743  0.44167  0.56427  Biso   1.000  Al
  P12      1.0000 0.33833  0.44367  0.77767  Biso   1.000  P
  O45      1.0000 0.33863  0.41307  0.67957  Biso   1.000  O
  O46      1.0000 0.44953  0.54367  0.80367  Biso   1.000  O
  O47      1.0000 0.24713  0.47267  0.79497  Biso   1.000  O
  O48      1.0000 0.32063  0.34657  0.83697  Biso   1.000  O
  Al13     1.0000 0.22500  0.22910  0.89760  Biso   1.000  Al
  P13      1.0000 0.22300  0.22800  0.11100  Biso   1.000  P
  O49      1.0000 0.25360  0.25890  0.01290  Biso   1.000  O
  O50      1.0000 0.12300  0.23920  0.13700  Biso   1.000  O
  O51      1.0000 0.19400  0.10780  0.12830  Biso   1.000  O
  O52      1.0000 0.32010  0.30740  0.17030  Biso   1.000  O
  Al14     1.0000 0.89167  0.56243  0.23093  Biso   1.000  Al
  P14      1.0000 0.88967  0.56133  0.44433  Biso   1.000  P
  O53      1.0000 0.92027  0.59223  0.34623  Biso   1.000  O
  O54      1.0000 0.78967  0.57253  0.47033  Biso   1.000  O
  O55      1.0000 0.86067  0.44113  0.46163  Biso   1.000  O
  O56      1.0000 0.98677  0.64073  0.50363  Biso   1.000  O
  Al15     1.0000 0.55833  0.89577  0.56427  Biso   1.000  Al
  P15      1.0000 0.55633  0.89467  0.77767  Biso   1.000  P
  O57      1.0000 0.58693  0.92557  0.67957  Biso   1.000  O
  O58      1.0000 0.45633  0.90587  0.80367  Biso   1.000  O
  O59      1.0000 0.52733  0.77447  0.79497  Biso   1.000  O
  O60      1.0000 0.65343  0.97407  0.83697  Biso   1.000  O
  Al16     1.0000 0.77090  0.99590  0.89760  Biso   1.000  Al
  P16      1.0000 0.77200  0.99500  0.11100  Biso   1.000  P
  O61      1.0000 0.74110  0.99470  0.01290  Biso   1.000  O
  O62      1.0000 0.76080  0.88380  0.13700  Biso   1.000  O
  O63      1.0000 0.89220  0.08620  0.12830  Biso   1.000  O
  O64      1.0000 0.69260  0.01270  0.17030  Biso   1.000  O
  Al17     1.0000 0.43757  0.32923  0.23093  Biso   1.000  Al
  P17      1.0000 0.43867  0.32833  0.44433  Biso   1.000  P
  O65      1.0000 0.40777  0.32803  0.34623  Biso   1.000  O
  O66      1.0000 0.42747  0.21713  0.47033  Biso   1.000  O
  O67      1.0000 0.55887  0.41953  0.46163  Biso   1.000  O
  O68      1.0000 0.35927  0.34603  0.50363  Biso   1.000  O
  Al18     1.0000 0.10423  0.66257  0.56427  Biso   1.000  Al
  P18      1.0000 0.10533  0.66167  0.77767  Biso   1.000  P
  O69      1.0000 0.07443  0.66137  0.67957  Biso   1.000  O
  O70      1.0000 0.09413  0.55047  0.80367  Biso   1.000  O
  O71      1.0000 0.22553  0.75287  0.79497  Biso   1.000  O
  O72      1.0000 0.02593  0.67937  0.83697  Biso   1.000  O
