data_image0
_cell_length_a       13.0785
_cell_length_b       13.0785
_cell_length_c       20.083
_cell_angle_alpha    90
_cell_angle_beta     90
_cell_angle_gamma    120

_symmetry_space_group_name_H-M    P 1
_symmetry_int_tables_number       1

loop_
  _symmetry_equiv_pos_as_xyz
  'x, y, z'

loop_
  _atom_site_label
  _atom_site_occupancy
  _atom_site_fract_x
  _atom_site_fract_y
  _atom_site_fract_z
  _atom_site_thermal_displace_type
  _atom_site_B_iso_or_equiv
  _atom_site_type_symbol
  Cu1      1.0000 0.38463  0.00000  0.00000  Biso   1.000  Cu
  Cu2      1.0000 0.61537  0.61537  0.33333  Biso   1.000  Cu
  Cu3      1.0000 0.00000  0.38463  0.66667  Biso   1.000  Cu
  H1       1.0000 0.43410  0.17190  0.89330  Biso   1.000  H
  H2       1.0000 0.15340  0.05680  0.77350  Biso   1.000  H
  H3       1.0000 0.04460  0.91590  0.85300  Biso   1.000  H
  H4       1.0000 0.13500  0.89980  0.94800  Biso   1.000  H
  H5       1.0000 0.45630  0.26000  0.79420  Biso   1.000  H
  H6       1.0000 0.52630  0.35380  0.69210  Biso   1.000  H
  H7       1.0000 0.43350  0.49450  0.74120  Biso   1.000  H
  H8       1.0000 0.52070  0.46810  0.78090  Biso   1.000  H
  H9       1.0000 0.58880  0.59480  0.66040  Biso   1.000  H
  H10      1.0000 0.62780  0.70040  0.78690  Biso   1.000  H
  H11      1.0000 0.54440  0.70500  0.73240  Biso   1.000  H
  H12      1.0000 0.68120  0.77050  0.72060  Biso   1.000  H
  H13      1.0000 0.78030  0.65680  0.69330  Biso   1.000  H
  H14      1.0000 0.70820  0.51850  0.69420  Biso   1.000  H
  H15      1.0000 0.73580  0.58920  0.76110  Biso   1.000  H
  H16      1.0000 0.36100  0.38350  0.62360  Biso   1.000  H
  H17      1.0000 0.60480  0.50950  0.46820  Biso   1.000  H
  H18      1.0000 0.35580  0.49630  0.35500  Biso   1.000  H
  H19      1.0000 0.21470  0.38670  0.43320  Biso   1.000  H
  H20      1.0000 0.27240  0.34290  0.53340  Biso   1.000  H
  H21      1.0000 0.73780  0.56590  0.22663  Biso   1.000  H
  H22      1.0000 0.90340  0.84660  0.10683  Biso   1.000  H
  H23      1.0000 0.87130  0.95540  0.18633  Biso   1.000  H
  H24      1.0000 0.76480  0.86500  0.28133  Biso   1.000  H
  H25      1.0000 0.80370  0.54370  0.12753  Biso   1.000  H
  H26      1.0000 0.82750  0.47370  0.02543  Biso   1.000  H
  H27      1.0000 0.06100  0.56650  0.07453  Biso   1.000  H
  H28      1.0000 0.94740  0.47930  0.11423  Biso   1.000  H
  H29      1.0000 0.00600  0.41120  0.99373  Biso   1.000  H
  H30      1.0000 0.07260  0.37220  0.12023  Biso   1.000  H
  H31      1.0000 0.16060  0.45560  0.06573  Biso   1.000  H
  H32      1.0000 0.08930  0.31880  0.05393  Biso   1.000  H
  H33      1.0000 0.87650  0.21970  0.02663  Biso   1.000  H
  H34      1.0000 0.81030  0.29180  0.02753  Biso   1.000  H
  H35      1.0000 0.85340  0.26420  0.09443  Biso   1.000  H
  H36      1.0000 0.02250  0.63900  0.95693  Biso   1.000  H
  H37      1.0000 0.90470  0.39520  0.80153  Biso   1.000  H
  H38      1.0000 0.14050  0.64420  0.68833  Biso   1.000  H
  H39      1.0000 0.17200  0.78530  0.76653  Biso   1.000  H
  H40      1.0000 0.07050  0.72760  0.86673  Biso   1.000  H
  H41      1.0000 0.82810  0.26220  0.55997  Biso   1.000  H
  H42      1.0000 0.94320  0.09660  0.44017  Biso   1.000  H
  H43      1.0000 0.08410  0.12870  0.51967  Biso   1.000  H
  H44      1.0000 0.10020  0.23520  0.61467  Biso   1.000  H
  H45      1.0000 0.74000  0.19630  0.46087  Biso   1.000  H
  H46      1.0000 0.64620  0.17250  0.35877  Biso   1.000  H
  H47      1.0000 0.50550  0.93900  0.40787  Biso   1.000  H
  H48      1.0000 0.53190  0.05260  0.44757  Biso   1.000  H
  H49      1.0000 0.40520  0.99400  0.32707  Biso   1.000  H
  H50      1.0000 0.29960  0.92740  0.45357  Biso   1.000  H
  H51      1.0000 0.29500  0.83940  0.39907  Biso   1.000  H
  H52      1.0000 0.22950  0.91070  0.38727  Biso   1.000  H
  H53      1.0000 0.34320  0.12350  0.35997  Biso   1.000  H
  H54      1.0000 0.48150  0.18970  0.36087  Biso   1.000  H
  H55      1.0000 0.41080  0.14660  0.42777  Biso   1.000  H
  H56      1.0000 0.61650  0.97750  0.29027  Biso   1.000  H
  H57      1.0000 0.49050  0.09530  0.13487  Biso   1.000  H
  H58      1.0000 0.50370  0.85950  0.02167  Biso   1.000  H
  H59      1.0000 0.61330  0.82800  0.09987  Biso   1.000  H
  H60      1.0000 0.65710  0.92950  0.20007  Biso   1.000  H
  H61      1.0000 0.26220  0.82810  0.10670  Biso   1.000  H
  H62      1.0000 0.09660  0.94320  0.22650  Biso   1.000  H
  H63      1.0000 0.12870  0.08410  0.14700  Biso   1.000  H
  H64      1.0000 0.23520  0.10020  0.05200  Biso   1.000  H
  H65      1.0000 0.19630  0.74000  0.20580  Biso   1.000  H
  H66      1.0000 0.17250  0.64620  0.30790  Biso   1.000  H
  H67      1.0000 0.93900  0.50550  0.25880  Biso   1.000  H
  H68      1.0000 0.05260  0.53190  0.21910  Biso   1.000  H
  H69      1.0000 0.99400  0.40520  0.33960  Biso   1.000  H
  H70      1.0000 0.92740  0.29960  0.21310  Biso   1.000  H
  H71      1.0000 0.83940  0.29500  0.26760  Biso   1.000  H
  H72      1.0000 0.91070  0.22950  0.27940  Biso   1.000  H
  H73      1.0000 0.12350  0.34320  0.30670  Biso   1.000  H
  H74      1.0000 0.18970  0.48150  0.30580  Biso   1.000  H
  H75      1.0000 0.14660  0.41080  0.23890  Biso   1.000  H
  H76      1.0000 0.97750  0.61650  0.37640  Biso   1.000  H
  H77      1.0000 0.09530  0.49050  0.53180  Biso   1.000  H
  H78      1.0000 0.85950  0.50370  0.64500  Biso   1.000  H
  H79      1.0000 0.82800  0.61330  0.56680  Biso   1.000  H
  H80      1.0000 0.92950  0.65710  0.46660  Biso   1.000  H
  H81      1.0000 0.17190  0.43410  0.77337  Biso   1.000  H
  H82      1.0000 0.05680  0.15340  0.89317  Biso   1.000  H
  H83      1.0000 0.91590  0.04460  0.81367  Biso   1.000  H
  H84      1.0000 0.89980  0.13500  0.71867  Biso   1.000  H
  H85      1.0000 0.26000  0.45630  0.87247  Biso   1.000  H
  H86      1.0000 0.35380  0.52630  0.97457  Biso   1.000  H
  H87      1.0000 0.49450  0.43350  0.92547  Biso   1.000  H
  H88      1.0000 0.46810  0.52070  0.88577  Biso   1.000  H
  H89      1.0000 0.59480  0.58880  0.00627  Biso   1.000  H
  H90      1.0000 0.70040  0.62780  0.87977  Biso   1.000  H
  H91      1.0000 0.70500  0.54440  0.93427  Biso   1.000  H
  H92      1.0000 0.77050  0.68120  0.94607  Biso   1.000  H
  H93      1.0000 0.65680  0.78030  0.97337  Biso   1.000  H
  H94      1.0000 0.51850  0.70820  0.97247  Biso   1.000  H
  H95      1.0000 0.58920  0.73580  0.90557  Biso   1.000  H
  H96      1.0000 0.38350  0.36100  0.04307  Biso   1.000  H
  H97      1.0000 0.50950  0.60480  0.19847  Biso   1.000  H
  H98      1.0000 0.49630  0.35580  0.31167  Biso   1.000  H
  H99      1.0000 0.38670  0.21470  0.23347  Biso   1.000  H
  H100     1.0000 0.34290  0.27240  0.13327  Biso   1.000  H
  H101     1.0000 0.56590  0.73780  0.44003  Biso   1.000  H
  H102     1.0000 0.84660  0.90340  0.55983  Biso   1.000  H
  H103     1.0000 0.95540  0.87130  0.48033  Biso   1.000  H
  H104     1.0000 0.86500  0.76480  0.38533  Biso   1.000  H
  H105     1.0000 0.54370  0.80370  0.53913  Biso   1.000  H
  H106     1.0000 0.47370  0.82750  0.64123  Biso   1.000  H
  H107     1.0000 0.56650  0.06100  0.59213  Biso   1.000  H
  H108     1.0000 0.47930  0.94740  0.55243  Biso   1.000  H
  H109     1.0000 0.41120  0.00600  0.67293  Biso   1.000  H
  H110     1.0000 0.37220  0.07260  0.54643  Biso   1.000  H
  H111     1.0000 0.45560  0.16060  0.60093  Biso   1.000  H
  H112     1.0000 0.31880  0.08930  0.61273  Biso   1.000  H
  H113     1.0000 0.21970  0.87650  0.64003  Biso   1.000  H
  H114     1.0000 0.29180  0.81030  0.63913  Biso   1.000  H
  H115     1.0000 0.26420  0.85340  0.57223  Biso   1.000  H
  H116     1.0000 0.63900  0.02250  0.70973  Biso   1.000  H
  H117     1.0000 0.39520  0.90470  0.86513  Biso   1.000  H
  H118     1.0000 0.64420  0.14050  0.97833  Biso   1.000  H
  H119     1.0000 0.78530  0.17200  0.90013  Biso   1.000  H
  H120     1.0000 0.72760  0.07050  0.79993  Biso   1.000  H
  C1       1.0000 0.35540  0.11810  0.88403  Biso   1.000  C
  C2       1.0000 0.30640  0.13160  0.82493  Biso   1.000  C
  C3       1.0000 0.18880  0.05260  0.81276  Biso   1.000  C
  C4       1.0000 0.12470  0.96730  0.85967  Biso   1.000  C
  C5       1.0000 0.17920  0.95800  0.91682  Biso   1.000  C
  C6       1.0000 0.35450  0.26450  0.72771  Biso   1.000  C
  C7       1.0000 0.46090  0.37000  0.69519  Biso   1.000  C
  C8       1.0000 0.49980  0.48130  0.73668  Biso   1.000  C
  C9       1.0000 0.60380  0.59210  0.70805  Biso   1.000  C
  C10      1.0000 0.61540  0.70210  0.73990  Biso   1.000  C
  C11      1.0000 0.71740  0.58880  0.71480  Biso   1.000  C
  C12      1.0000 0.49300  0.40030  0.57472  Biso   1.000  C
  C13      1.0000 0.44560  0.42250  0.51127  Biso   1.000  C
  C14      1.0000 0.52560  0.48550  0.46155  Biso   1.000  C
  C15      1.0000 0.37880  0.47700  0.39462  Biso   1.000  C
  C16      1.0000 0.29380  0.41210  0.44151  Biso   1.000  C
  C17      1.0000 0.32800  0.38540  0.50075  Biso   1.000  C
  C18      1.0000 0.76270  0.64460  0.21736  Biso   1.000  C
  C19      1.0000 0.82520  0.69360  0.15826  Biso   1.000  C
  C20      1.0000 0.86380  0.81120  0.14609  Biso   1.000  C
  C21      1.0000 0.84260  0.87530  0.19300  Biso   1.000  C
  C22      1.0000 0.77880  0.82080  0.25015  Biso   1.000  C
  C23      1.0000 0.91000  0.64550  0.06104  Biso   1.000  C
  C24      1.0000 0.90910  0.53910  0.02852  Biso   1.000  C
  C25      1.0000 0.98150  0.50020  0.07001  Biso   1.000  C
  C26      1.0000 0.98830  0.39620  0.04138  Biso   1.000  C
  C27      1.0000 0.08670  0.38460  0.07323  Biso   1.000  C
  C28      1.0000 0.87140  0.28260  0.04813  Biso   1.000  C
  C29      1.0000 0.90730  0.50700  0.90805  Biso   1.000  C
  C30      1.0000 0.97690  0.55440  0.84460  Biso   1.000  C
  C31      1.0000 0.95990  0.47440  0.79488  Biso   1.000  C
  C32      1.0000 0.09820  0.62120  0.72795  Biso   1.000  C
  C33      1.0000 0.11830  0.70620  0.77484  Biso   1.000  C
  C34      1.0000 0.05740  0.67200  0.83408  Biso   1.000  C
  C35      1.0000 0.88190  0.23730  0.55070  Biso   1.000  C
  C36      1.0000 0.86840  0.17480  0.49160  Biso   1.000  C
  C37      1.0000 0.94740  0.13620  0.47943  Biso   1.000  C
  C38      1.0000 0.03270  0.15740  0.52634  Biso   1.000  C
  C39      1.0000 0.04200  0.22120  0.58349  Biso   1.000  C
  C40      1.0000 0.73550  0.09000  0.39438  Biso   1.000  C
  C41      1.0000 0.63000  0.09090  0.36186  Biso   1.000  C
  C42      1.0000 0.51870  0.01850  0.40335  Biso   1.000  C
  C43      1.0000 0.40790  0.01170  0.37472  Biso   1.000  C
  C44      1.0000 0.29790  0.91330  0.40657  Biso   1.000  C
  C45      1.0000 0.41120  0.12860  0.38147  Biso   1.000  C
  C46      1.0000 0.59970  0.09270  0.24139  Biso   1.000  C
  C47      1.0000 0.57750  0.02310  0.17794  Biso   1.000  C
  C48      1.0000 0.51450  0.04010  0.12822  Biso   1.000  C
  C49      1.0000 0.52300  0.90180  0.06129  Biso   1.000  C
  C50      1.0000 0.58790  0.88170  0.10818  Biso   1.000  C
  C51      1.0000 0.61460  0.94260  0.16742  Biso   1.000  C
  C52      1.0000 0.23730  0.88190  0.11597  Biso   1.000  C
  C53      1.0000 0.17480  0.86840  0.17507  Biso   1.000  C
  C54      1.0000 0.13620  0.94740  0.18724  Biso   1.000  C
  C55      1.0000 0.15740  0.03270  0.14033  Biso   1.000  C
  C56      1.0000 0.22120  0.04200  0.08318  Biso   1.000  C
  C57      1.0000 0.09000  0.73550  0.27229  Biso   1.000  C
  C58      1.0000 0.09090  0.63000  0.30481  Biso   1.000  C
  C59      1.0000 0.01850  0.51870  0.26332  Biso   1.000  C
  C60      1.0000 0.01170  0.40790  0.29195  Biso   1.000  C
  C61      1.0000 0.91330  0.29790  0.26010  Biso   1.000  C
  C62      1.0000 0.12860  0.41120  0.28520  Biso   1.000  C
  C63      1.0000 0.09270  0.59970  0.42528  Biso   1.000  C
  C64      1.0000 0.02310  0.57750  0.48873  Biso   1.000  C
  C65      1.0000 0.04010  0.51450  0.53845  Biso   1.000  C
  C66      1.0000 0.90180  0.52300  0.60538  Biso   1.000  C
  C67      1.0000 0.88170  0.58790  0.55849  Biso   1.000  C
  C68      1.0000 0.94260  0.61460  0.49925  Biso   1.000  C
  C69      1.0000 0.11810  0.35540  0.78264  Biso   1.000  C
  C70      1.0000 0.13160  0.30640  0.84174  Biso   1.000  C
  C71      1.0000 0.05260  0.18880  0.85391  Biso   1.000  C
  C72      1.0000 0.96730  0.12470  0.80700  Biso   1.000  C
  C73      1.0000 0.95800  0.17920  0.74985  Biso   1.000  C
  C74      1.0000 0.26450  0.35450  0.93896  Biso   1.000  C
  C75      1.0000 0.37000  0.46090  0.97148  Biso   1.000  C
  C76      1.0000 0.48130  0.49980  0.92999  Biso   1.000  C
  C77      1.0000 0.59210  0.60380  0.95862  Biso   1.000  C
  C78      1.0000 0.70210  0.61540  0.92677  Biso   1.000  C
  C79      1.0000 0.58880  0.71740  0.95187  Biso   1.000  C
  C80      1.0000 0.40030  0.49300  0.09195  Biso   1.000  C
  C81      1.0000 0.42250  0.44560  0.15540  Biso   1.000  C
  C82      1.0000 0.48550  0.52560  0.20512  Biso   1.000  C
  C83      1.0000 0.47700  0.37880  0.27205  Biso   1.000  C
  C84      1.0000 0.41210  0.29380  0.22516  Biso   1.000  C
  C85      1.0000 0.38540  0.32800  0.16592  Biso   1.000  C
  C86      1.0000 0.64460  0.76270  0.44930  Biso   1.000  C
  C87      1.0000 0.69360  0.82520  0.50840  Biso   1.000  C
  C88      1.0000 0.81120  0.86380  0.52057  Biso   1.000  C
  C89      1.0000 0.87530  0.84260  0.47366  Biso   1.000  C
  C90      1.0000 0.82080  0.77880  0.41651  Biso   1.000  C
  C91      1.0000 0.64550  0.91000  0.60562  Biso   1.000  C
  C92      1.0000 0.53910  0.90910  0.63814  Biso   1.000  C
  C93      1.0000 0.50020  0.98150  0.59665  Biso   1.000  C
  C94      1.0000 0.39620  0.98830  0.62528  Biso   1.000  C
  C95      1.0000 0.38460  0.08670  0.59343  Biso   1.000  C
  C96      1.0000 0.28260  0.87140  0.61853  Biso   1.000  C
  C97      1.0000 0.50700  0.90730  0.75861  Biso   1.000  C
  C98      1.0000 0.55440  0.97690  0.82206  Biso   1.000  C
  C99      1.0000 0.47440  0.95990  0.87178  Biso   1.000  C
  C100     1.0000 0.62120  0.09820  0.93871  Biso   1.000  C
  C101     1.0000 0.70620  0.11830  0.89182  Biso   1.000  C
  C102     1.0000 0.67200  0.05740  0.83258  Biso   1.000  C
  N1       1.0000 0.29407  0.03130  0.92763  Biso   1.000  N
  N2       1.0000 0.38290  0.22430  0.78341  Biso   1.000  N
  N3       1.0000 0.42690  0.38480  0.62859  Biso   1.000  N
  N4       1.0000 0.49340  0.51344  0.40397  Biso   1.000  N
  N5       1.0000 0.73723  0.70593  0.26096  Biso   1.000  N
  N6       1.0000 0.84140  0.61710  0.11674  Biso   1.000  N
  N7       1.0000 0.95790  0.57310  0.96192  Biso   1.000  N
  N8       1.0000 0.02004  0.50660  0.73730  Biso   1.000  N
  N9       1.0000 0.96870  0.26277  0.59430  Biso   1.000  N
  N10      1.0000 0.77570  0.15860  0.45008  Biso   1.000  N
  N11      1.0000 0.61520  0.04210  0.29526  Biso   1.000  N
  N12      1.0000 0.48656  0.97996  0.07064  Biso   1.000  N
  N13      1.0000 0.26277  0.96870  0.07237  Biso   1.000  N
  N14      1.0000 0.15860  0.77570  0.21659  Biso   1.000  N
  N15      1.0000 0.04210  0.61520  0.37141  Biso   1.000  N
  N16      1.0000 0.97996  0.48656  0.59603  Biso   1.000  N
  N17      1.0000 0.03130  0.29407  0.73904  Biso   1.000  N
  N18      1.0000 0.22430  0.38290  0.88326  Biso   1.000  N
  N19      1.0000 0.38480  0.42690  0.03808  Biso   1.000  N
  N20      1.0000 0.51344  0.49340  0.26270  Biso   1.000  N
  N21      1.0000 0.70593  0.73723  0.40570  Biso   1.000  N
  N22      1.0000 0.61710  0.84140  0.54992  Biso   1.000  N
  N23      1.0000 0.57310  0.95790  0.70474  Biso   1.000  N
  N24      1.0000 0.50660  0.02004  0.92936  Biso   1.000  N
  O1       1.0000 0.25534  0.22294  0.70668  Biso   1.000  O
  O2       1.0000 0.58580  0.39902  0.57578  Biso   1.000  O
  O3       1.0000 0.96760  0.74466  0.04001  Biso   1.000  O
  O4       1.0000 0.81322  0.41420  0.90911  Biso   1.000  O
  O5       1.0000 0.77706  0.03240  0.37335  Biso   1.000  O
  O6       1.0000 0.60098  0.18678  0.24245  Biso   1.000  O
  O7       1.0000 0.03240  0.77706  0.29332  Biso   1.000  O
  O8       1.0000 0.18678  0.60098  0.42422  Biso   1.000  O
  O9       1.0000 0.22294  0.25534  0.95999  Biso   1.000  O
  O10      1.0000 0.39902  0.58580  0.09089  Biso   1.000  O
  O11      1.0000 0.74466  0.96760  0.62665  Biso   1.000  O
  O12      1.0000 0.41420  0.81322  0.75755  Biso   1.000  O
