data_image0
_cell_length_a       12.9292
_cell_length_b       12.9292
_cell_length_c       20.1039
_cell_angle_alpha    90
_cell_angle_beta     90
_cell_angle_gamma    120

_symmetry_space_group_name_H-M    P 1
_symmetry_int_tables_number       1

loop_
  _symmetry_equiv_pos_as_xyz
  'x, y, z'

loop_
  _atom_site_label
  _atom_site_occupancy
  _atom_site_fract_x
  _atom_site_fract_y
  _atom_site_fract_z
  _atom_site_thermal_displace_type
  _atom_site_B_iso_or_equiv
  _atom_site_type_symbol
  Cu1      1.0000 0.62047  1.00000  0.00000  Biso   1.000  Cu
  Cu2      1.0000 0.37953  0.37953  0.33333  Biso   1.000  Cu
  Cu3      1.0000 0.00000  0.62047  0.66667  Biso   1.000  Cu
  H1       1.0000 0.87140  0.10010  0.94650  Biso   1.000  H
  H2       1.0000 0.95910  0.08800  0.84930  Biso   1.000  H
  H3       1.0000 0.84660  0.94510  0.77020  Biso   1.000  H
  H4       1.0000 0.56870  0.82170  0.89440  Biso   1.000  H
  H5       1.0000 0.54230  0.73750  0.79270  Biso   1.000  H
  H6       1.0000 0.47250  0.64050  0.69160  Biso   1.000  H
  H7       1.0000 0.47850  0.52610  0.78050  Biso   1.000  H
  H8       1.0000 0.56550  0.49810  0.74050  Biso   1.000  H
  H9       1.0000 0.40630  0.39440  0.66050  Biso   1.000  H
  H10      1.0000 0.21300  0.33060  0.69820  Biso   1.000  H
  H11      1.0000 0.28550  0.46950  0.68870  Biso   1.000  H
  H12      1.0000 0.26590  0.41440  0.76020  Biso   1.000  H
  H13      1.0000 0.37590  0.29660  0.78890  Biso   1.000  H
  H14      1.0000 0.44700  0.28030  0.73060  Biso   1.000  H
  H15      1.0000 0.30760  0.21970  0.72660  Biso   1.000  H
  H16      1.0000 0.63840  0.60750  0.62340  Biso   1.000  H
  H17      1.0000 0.72890  0.64970  0.53250  Biso   1.000  H
  H18      1.0000 0.78550  0.60570  0.43160  Biso   1.000  H
  H19      1.0000 0.64220  0.49590  0.35420  Biso   1.000  H
  H20      1.0000 0.39360  0.48920  0.46690  Biso   1.000  H
  H21      1.0000 0.22870  0.12860  0.27983  Biso   1.000  H
  H22      1.0000 0.12890  0.04090  0.18263  Biso   1.000  H
  H23      1.0000 0.09850  0.15340  0.10353  Biso   1.000  H
  H24      1.0000 0.25300  0.43130  0.22773  Biso   1.000  H
  H25      1.0000 0.19520  0.45770  0.12603  Biso   1.000  H
  H26      1.0000 0.16800  0.52750  0.02493  Biso   1.000  H
  H27      1.0000 0.04760  0.52150  0.11383  Biso   1.000  H
  H28      1.0000 0.93260  0.43450  0.07383  Biso   1.000  H
  H29      1.0000 0.98810  0.59370  0.99383  Biso   1.000  H
  H30      1.0000 0.11760  0.78700  0.03153  Biso   1.000  H
  H31      1.0000 0.18400  0.71450  0.02203  Biso   1.000  H
  H32      1.0000 0.14850  0.73410  0.09353  Biso   1.000  H
  H33      1.0000 0.92070  0.62410  0.12223  Biso   1.000  H
  H34      1.0000 0.83330  0.55300  0.06393  Biso   1.000  H
  H35      1.0000 0.91210  0.69240  0.05993  Biso   1.000  H
  H36      1.0000 0.96910  0.36160  0.95673  Biso   1.000  H
  H37      1.0000 0.92080  0.27110  0.86583  Biso   1.000  H
  H38      1.0000 0.82020  0.21450  0.76493  Biso   1.000  H
  H39      1.0000 0.85370  0.35780  0.68753  Biso   1.000  H
  H40      1.0000 0.09560  0.60640  0.80023  Biso   1.000  H
  H41      1.0000 0.89990  0.77130  0.61317  Biso   1.000  H
  H42      1.0000 0.91200  0.87110  0.51597  Biso   1.000  H
  H43      1.0000 0.05490  0.90150  0.43687  Biso   1.000  H
  H44      1.0000 0.17830  0.74700  0.56107  Biso   1.000  H
  H45      1.0000 0.26250  0.80480  0.45937  Biso   1.000  H
  H46      1.0000 0.35950  0.83200  0.35827  Biso   1.000  H
  H47      1.0000 0.47390  0.95240  0.44717  Biso   1.000  H
  H48      1.0000 0.50190  0.06740  0.40717  Biso   1.000  H
  H49      1.0000 0.60560  0.01190  0.32717  Biso   1.000  H
  H50      1.0000 0.66940  0.88240  0.36487  Biso   1.000  H
  H51      1.0000 0.53050  0.81600  0.35537  Biso   1.000  H
  H52      1.0000 0.58560  0.85150  0.42687  Biso   1.000  H
  H53      1.0000 0.70340  0.07930  0.45557  Biso   1.000  H
  H54      1.0000 0.71970  0.16670  0.39727  Biso   1.000  H
  H55      1.0000 0.78030  0.08790  0.39327  Biso   1.000  H
  H56      1.0000 0.39250  0.03090  0.29007  Biso   1.000  H
  H57      1.0000 0.35030  0.07920  0.19917  Biso   1.000  H
  H58      1.0000 0.39430  0.17980  0.09827  Biso   1.000  H
  H59      1.0000 0.50410  0.14630  0.02087  Biso   1.000  H
  H60      1.0000 0.51080  0.90440  0.13357  Biso   1.000  H
  H61      1.0000 0.77130  0.89990  0.05350  Biso   1.000  H
  H62      1.0000 0.87110  0.91200  0.15070  Biso   1.000  H
  H63      1.0000 0.90150  0.05490  0.22980  Biso   1.000  H
  H64      1.0000 0.74700  0.17830  0.10560  Biso   1.000  H
  H65      1.0000 0.80480  0.26250  0.20730  Biso   1.000  H
  H66      1.0000 0.83200  0.35950  0.30840  Biso   1.000  H
  H67      1.0000 0.95240  0.47390  0.21950  Biso   1.000  H
  H68      1.0000 0.06740  0.50190  0.25950  Biso   1.000  H
  H69      1.0000 0.01190  0.60560  0.33950  Biso   1.000  H
  H70      1.0000 0.88240  0.66940  0.30180  Biso   1.000  H
  H71      1.0000 0.81600  0.53050  0.31130  Biso   1.000  H
  H72      1.0000 0.85150  0.58560  0.23980  Biso   1.000  H
  H73      1.0000 0.07930  0.70340  0.21110  Biso   1.000  H
  H74      1.0000 0.16670  0.71970  0.26940  Biso   1.000  H
  H75      1.0000 0.08790  0.78030  0.27340  Biso   1.000  H
  H76      1.0000 0.03090  0.39250  0.37660  Biso   1.000  H
  H77      1.0000 0.07920  0.35030  0.46750  Biso   1.000  H
  H78      1.0000 0.17980  0.39430  0.56840  Biso   1.000  H
  H79      1.0000 0.14630  0.50410  0.64580  Biso   1.000  H
  H80      1.0000 0.90440  0.51080  0.53310  Biso   1.000  H
  H81      1.0000 0.10010  0.87140  0.72017  Biso   1.000  H
  H82      1.0000 0.08800  0.95910  0.81737  Biso   1.000  H
  H83      1.0000 0.94510  0.84660  0.89647  Biso   1.000  H
  H84      1.0000 0.82170  0.56870  0.77227  Biso   1.000  H
  H85      1.0000 0.73750  0.54230  0.87397  Biso   1.000  H
  H86      1.0000 0.64050  0.47250  0.97507  Biso   1.000  H
  H87      1.0000 0.52610  0.47850  0.88617  Biso   1.000  H
  H88      1.0000 0.49810  0.56550  0.92617  Biso   1.000  H
  H89      1.0000 0.39440  0.40630  0.00617  Biso   1.000  H
  H90      1.0000 0.33060  0.21300  0.96847  Biso   1.000  H
  H91      1.0000 0.46950  0.28550  0.97797  Biso   1.000  H
  H92      1.0000 0.41440  0.26590  0.90647  Biso   1.000  H
  H93      1.0000 0.29660  0.37590  0.87777  Biso   1.000  H
  H94      1.0000 0.28030  0.44700  0.93607  Biso   1.000  H
  H95      1.0000 0.21970  0.30760  0.94007  Biso   1.000  H
  H96      1.0000 0.60750  0.63840  0.04327  Biso   1.000  H
  H97      1.0000 0.64970  0.72890  0.13417  Biso   1.000  H
  H98      1.0000 0.60570  0.78550  0.23507  Biso   1.000  H
  H99      1.0000 0.49590  0.64220  0.31247  Biso   1.000  H
  H100     1.0000 0.48920  0.39360  0.19977  Biso   1.000  H
  H101     1.0000 0.12860  0.22870  0.38683  Biso   1.000  H
  H102     1.0000 0.04090  0.12890  0.48403  Biso   1.000  H
  H103     1.0000 0.15340  0.09850  0.56313  Biso   1.000  H
  H104     1.0000 0.43130  0.25300  0.43893  Biso   1.000  H
  H105     1.0000 0.45770  0.19520  0.54063  Biso   1.000  H
  H106     1.0000 0.52750  0.16800  0.64173  Biso   1.000  H
  H107     1.0000 0.52150  0.04760  0.55283  Biso   1.000  H
  H108     1.0000 0.43450  0.93260  0.59283  Biso   1.000  H
  H109     1.0000 0.59370  0.98810  0.67283  Biso   1.000  H
  H110     1.0000 0.78700  0.11760  0.63513  Biso   1.000  H
  H111     1.0000 0.71450  0.18400  0.64463  Biso   1.000  H
  H112     1.0000 0.73410  0.14850  0.57313  Biso   1.000  H
  H113     1.0000 0.62410  0.92070  0.54443  Biso   1.000  H
  H114     1.0000 0.55300  0.83330  0.60273  Biso   1.000  H
  H115     1.0000 0.69240  0.91210  0.60673  Biso   1.000  H
  H116     1.0000 0.36160  0.96910  0.70993  Biso   1.000  H
  H117     1.0000 0.27110  0.92080  0.80083  Biso   1.000  H
  H118     1.0000 0.21450  0.82020  0.90173  Biso   1.000  H
  H119     1.0000 0.35780  0.85370  0.97913  Biso   1.000  H
  H120     1.0000 0.60640  0.09560  0.86643  Biso   1.000  H
  C1       1.0000 0.82580  0.04160  0.91544  Biso   1.000  C
  C2       1.0000 0.87870  0.03450  0.85704  Biso   1.000  C
  C3       1.0000 0.81240  0.94820  0.81029  Biso   1.000  C
  C4       1.0000 0.69490  0.86670  0.82412  Biso   1.000  C
  C5       1.0000 0.64740  0.87780  0.88414  Biso   1.000  C
  C6       1.0000 0.64600  0.73240  0.72703  Biso   1.000  C
  C7       1.0000 0.53880  0.62440  0.69501  Biso   1.000  C
  C8       1.0000 0.49880  0.51220  0.73625  Biso   1.000  C
  C9       1.0000 0.39160  0.39910  0.70788  Biso   1.000  C
  C10      1.0000 0.27890  0.40380  0.71430  Biso   1.000  C
  C11      1.0000 0.37940  0.28880  0.74160  Biso   1.000  C
  C12      1.0000 0.50700  0.59540  0.57425  Biso   1.000  C
  C13      1.0000 0.55370  0.57270  0.51081  Biso   1.000  C
  C14      1.0000 0.67210  0.60790  0.49983  Biso   1.000  C
  C15      1.0000 0.70570  0.58070  0.44013  Biso   1.000  C
  C16      1.0000 0.61970  0.51640  0.39375  Biso   1.000  C
  C17      1.0000 0.47320  0.51120  0.46051  Biso   1.000  C
  C18      1.0000 0.21580  0.17420  0.24877  Biso   1.000  C
  C19      1.0000 0.15580  0.12130  0.19037  Biso   1.000  C
  C20      1.0000 0.13580  0.18760  0.14362  Biso   1.000  C
  C21      1.0000 0.17180  0.30510  0.15745  Biso   1.000  C
  C22      1.0000 0.23040  0.35260  0.21747  Biso   1.000  C
  C23      1.0000 0.08640  0.35400  0.06036  Biso   1.000  C
  C24      1.0000 0.08560  0.46120  0.02834  Biso   1.000  C
  C25      1.0000 0.01340  0.50120  0.06958  Biso   1.000  C
  C26      1.0000 0.00750  0.60840  0.04121  Biso   1.000  C
  C27      1.0000 0.12490  0.72110  0.04763  Biso   1.000  C
  C28      1.0000 0.90940  0.62060  0.07493  Biso   1.000  C
  C29      1.0000 0.08840  0.49300  0.90758  Biso   1.000  C
  C30      1.0000 0.01900  0.44630  0.84414  Biso   1.000  C
  C31      1.0000 0.93580  0.32790  0.83316  Biso   1.000  C
  C32      1.0000 0.87500  0.29430  0.77346  Biso   1.000  C
  C33      1.0000 0.89670  0.38030  0.72708  Biso   1.000  C
  C34      1.0000 0.03800  0.52680  0.79384  Biso   1.000  C
  C35      1.0000 0.95840  0.78420  0.58211  Biso   1.000  C
  C36      1.0000 0.96550  0.84420  0.52371  Biso   1.000  C
  C37      1.0000 0.05180  0.86420  0.47696  Biso   1.000  C
  C38      1.0000 0.13330  0.82820  0.49079  Biso   1.000  C
  C39      1.0000 0.12220  0.76960  0.55081  Biso   1.000  C
  C40      1.0000 0.26760  0.91360  0.39370  Biso   1.000  C
  C41      1.0000 0.37560  0.91440  0.36168  Biso   1.000  C
  C42      1.0000 0.48780  0.98660  0.40292  Biso   1.000  C
  C43      1.0000 0.60090  0.99250  0.37455  Biso   1.000  C
  C44      1.0000 0.59620  0.87510  0.38097  Biso   1.000  C
  C45      1.0000 0.71120  0.09060  0.40827  Biso   1.000  C
  C46      1.0000 0.40460  0.91160  0.24092  Biso   1.000  C
  C47      1.0000 0.42730  0.98100  0.17748  Biso   1.000  C
  C48      1.0000 0.39210  0.06420  0.16650  Biso   1.000  C
  C49      1.0000 0.41930  0.12500  0.10680  Biso   1.000  C
  C50      1.0000 0.48360  0.10330  0.06042  Biso   1.000  C
  C51      1.0000 0.48880  0.96200  0.12718  Biso   1.000  C
  C52      1.0000 0.78420  0.95840  0.08456  Biso   1.000  C
  C53      1.0000 0.84420  0.96550  0.14296  Biso   1.000  C
  C54      1.0000 0.86420  0.05180  0.18971  Biso   1.000  C
  C55      1.0000 0.82820  0.13330  0.17588  Biso   1.000  C
  C56      1.0000 0.76960  0.12220  0.11586  Biso   1.000  C
  C57      1.0000 0.91360  0.26760  0.27297  Biso   1.000  C
  C58      1.0000 0.91440  0.37560  0.30499  Biso   1.000  C
  C59      1.0000 0.98660  0.48780  0.26375  Biso   1.000  C
  C60      1.0000 0.99250  0.60090  0.29212  Biso   1.000  C
  C61      1.0000 0.87510  0.59620  0.28570  Biso   1.000  C
  C62      1.0000 0.09060  0.71120  0.25840  Biso   1.000  C
  C63      1.0000 0.91160  0.40460  0.42575  Biso   1.000  C
  C64      1.0000 0.98100  0.42730  0.48919  Biso   1.000  C
  C65      1.0000 0.06420  0.39210  0.50017  Biso   1.000  C
  C66      1.0000 0.12500  0.41930  0.55987  Biso   1.000  C
  C67      1.0000 0.10330  0.48360  0.60625  Biso   1.000  C
  C68      1.0000 0.96200  0.48880  0.53949  Biso   1.000  C
  C69      1.0000 0.04160  0.82580  0.75123  Biso   1.000  C
  C70      1.0000 0.03450  0.87870  0.80963  Biso   1.000  C
  C71      1.0000 0.94820  0.81240  0.85638  Biso   1.000  C
  C72      1.0000 0.86670  0.69490  0.84255  Biso   1.000  C
  C73      1.0000 0.87780  0.64740  0.78253  Biso   1.000  C
  C74      1.0000 0.73240  0.64600  0.93964  Biso   1.000  C
  C75      1.0000 0.62440  0.53880  0.97166  Biso   1.000  C
  C76      1.0000 0.51220  0.49880  0.93042  Biso   1.000  C
  C77      1.0000 0.39910  0.39160  0.95879  Biso   1.000  C
  C78      1.0000 0.40380  0.27890  0.95237  Biso   1.000  C
  C79      1.0000 0.28880  0.37940  0.92507  Biso   1.000  C
  C80      1.0000 0.59540  0.50700  0.09242  Biso   1.000  C
  C81      1.0000 0.57270  0.55370  0.15586  Biso   1.000  C
  C82      1.0000 0.60790  0.67210  0.16684  Biso   1.000  C
  C83      1.0000 0.58070  0.70570  0.22654  Biso   1.000  C
  C84      1.0000 0.51640  0.61970  0.27292  Biso   1.000  C
  C85      1.0000 0.51120  0.47320  0.20616  Biso   1.000  C
  C86      1.0000 0.17420  0.21580  0.41789  Biso   1.000  C
  C87      1.0000 0.12130  0.15580  0.47629  Biso   1.000  C
  C88      1.0000 0.18760  0.13580  0.52304  Biso   1.000  C
  C89      1.0000 0.30510  0.17180  0.50921  Biso   1.000  C
  C90      1.0000 0.35260  0.23040  0.44919  Biso   1.000  C
  C91      1.0000 0.35400  0.08640  0.60630  Biso   1.000  C
  C92      1.0000 0.46120  0.08560  0.63832  Biso   1.000  C
  C93      1.0000 0.50120  0.01340  0.59708  Biso   1.000  C
  C94      1.0000 0.60840  0.00750  0.62545  Biso   1.000  C
  C95      1.0000 0.72110  0.12490  0.61903  Biso   1.000  C
  C96      1.0000 0.62060  0.90940  0.59173  Biso   1.000  C
  C97      1.0000 0.49300  0.08840  0.75908  Biso   1.000  C
  C98      1.0000 0.44630  0.01900  0.82252  Biso   1.000  C
  C99      1.0000 0.32790  0.93580  0.83350  Biso   1.000  C
  C100     1.0000 0.29430  0.87500  0.89320  Biso   1.000  C
  C101     1.0000 0.38030  0.89670  0.93958  Biso   1.000  C
  C102     1.0000 0.52680  0.03800  0.87282  Biso   1.000  C
  N1       1.0000 0.71040  0.96600  0.92799  Biso   1.000  N
  N2       1.0000 0.61680  0.77310  0.78228  Biso   1.000  N
  N3       1.0000 0.57280  0.60850  0.62824  Biso   1.000  N
  N4       1.0000 0.50420  0.48180  0.40315  Biso   1.000  N
  N5       1.0000 0.25560  0.28960  0.26132  Biso   1.000  N
  N6       1.0000 0.15630  0.38320  0.11561  Biso   1.000  N
  N7       1.0000 0.03570  0.42720  0.96157  Biso   1.000  N
  N8       1.0000 0.97760  0.49580  0.73648  Biso   1.000  N
  N9       1.0000 0.03400  0.74440  0.59466  Biso   1.000  N
  N10      1.0000 0.22690  0.84370  0.44895  Biso   1.000  N
  N11      1.0000 0.39150  0.96430  0.29491  Biso   1.000  N
  N12      1.0000 0.51820  0.02240  0.06982  Biso   1.000  N
  N13      1.0000 0.74440  0.03400  0.07201  Biso   1.000  N
  N14      1.0000 0.84370  0.22690  0.21772  Biso   1.000  N
  N15      1.0000 0.96430  0.39150  0.37176  Biso   1.000  N
  N16      1.0000 0.02240  0.51820  0.59685  Biso   1.000  N
  N17      1.0000 0.96600  0.71040  0.73868  Biso   1.000  N
  N18      1.0000 0.77310  0.61680  0.88439  Biso   1.000  N
  N19      1.0000 0.60850  0.57280  0.03843  Biso   1.000  N
  N20      1.0000 0.48180  0.50420  0.26352  Biso   1.000  N
  N21      1.0000 0.28960  0.25560  0.40534  Biso   1.000  N
  N22      1.0000 0.38320  0.15630  0.55105  Biso   1.000  N
  N23      1.0000 0.42720  0.03570  0.70509  Biso   1.000  N
  N24      1.0000 0.49580  0.97760  0.93018  Biso   1.000  N
  O1       1.0000 0.74620  0.77410  0.70578  Biso   1.000  O
  O2       1.0000 0.41490  0.60030  0.57535  Biso   1.000  O
  O3       1.0000 0.02790  0.25380  0.03911  Biso   1.000  O
  O4       1.0000 0.18540  0.58510  0.90868  Biso   1.000  O
  O5       1.0000 0.22590  0.97210  0.37245  Biso   1.000  O
  O6       1.0000 0.39970  0.81460  0.24202  Biso   1.000  O
  O7       1.0000 0.97210  0.22590  0.29422  Biso   1.000  O
  O8       1.0000 0.81460  0.39970  0.42465  Biso   1.000  O
  O9       1.0000 0.77410  0.74620  0.96089  Biso   1.000  O
  O10      1.0000 0.60030  0.41490  0.09132  Biso   1.000  O
  O11      1.0000 0.25380  0.02790  0.62755  Biso   1.000  O
  O12      1.0000 0.58510  0.18540  0.75798  Biso   1.000  O
