data_image0
_cell_length_a       13.386
_cell_length_b       13.386
_cell_length_c       14.4646
_cell_angle_alpha    90
_cell_angle_beta     90
_cell_angle_gamma    120

_symmetry_space_group_name_H-M    P 1
_symmetry_int_tables_number       1

loop_
  _symmetry_equiv_pos_as_xyz
  'x, y, z'

loop_
  _atom_site_label
  _atom_site_occupancy
  _atom_site_fract_x
  _atom_site_fract_y
  _atom_site_fract_z
  _atom_site_thermal_displace_type
  _atom_site_B_iso_or_equiv
  _atom_site_type_symbol
  Tb1      1.0000 0.33333  0.66666  0.83226  Biso   1.000  Tb
  Tb2      1.0000 0.66667  0.33334  0.66774  Biso   1.000  Tb
  Tb3      1.0000 0.66667  0.33334  0.16774  Biso   1.000  Tb
  Tb4      1.0000 0.33333  0.66666  0.33226  Biso   1.000  Tb
  Cu1      1.0000 0.00000  0.50000  0.00000  Biso   1.000  Cu
  Cu2      1.0000 0.50000  0.00000  0.00000  Biso   1.000  Cu
  Cu3      1.0000 0.50000  0.50000  0.00000  Biso   1.000  Cu
  Cu4      1.0000 0.50000  0.50000  0.50000  Biso   1.000  Cu
  Cu5      1.0000 0.50000  0.00000  0.50000  Biso   1.000  Cu
  Cu6      1.0000 0.00000  0.50000  0.50000  Biso   1.000  Cu
  H1       1.0000 0.97710  0.65060  0.07820  Biso   1.000  H
  H2       1.0000 0.08390  0.68470  0.19380  Biso   1.000  H
  H3       1.0000 0.19260  0.73260  0.12960  Biso   1.000  H
  H4       1.0000 0.13940  0.82040  0.01990  Biso   1.000  H
  H5       1.0000 0.04080  0.74660  0.94910  Biso   1.000  H
  H6       1.0000 0.67350  0.02290  0.07820  Biso   1.000  H
  H7       1.0000 0.60080  0.91610  0.19380  Biso   1.000  H
  H8       1.0000 0.54000  0.80740  0.12960  Biso   1.000  H
  H9       1.0000 0.68100  0.86060  0.01990  Biso   1.000  H
  H10      1.0000 0.70580  0.95920  0.94910  Biso   1.000  H
  H11      1.0000 0.34940  0.32650  0.07820  Biso   1.000  H
  H12      1.0000 0.31530  0.39920  0.19380  Biso   1.000  H
  H13      1.0000 0.26740  0.46000  0.12960  Biso   1.000  H
  H14      1.0000 0.17960  0.31900  0.01990  Biso   1.000  H
  H15      1.0000 0.25340  0.29420  0.94910  Biso   1.000  H
  H16      1.0000 0.32650  0.34940  0.42180  Biso   1.000  H
  H17      1.0000 0.39920  0.31530  0.30620  Biso   1.000  H
  H18      1.0000 0.46000  0.26740  0.37040  Biso   1.000  H
  H19      1.0000 0.31900  0.17960  0.48010  Biso   1.000  H
  H20      1.0000 0.29420  0.25340  0.55090  Biso   1.000  H
  H21      1.0000 0.65060  0.97710  0.42180  Biso   1.000  H
  H22      1.0000 0.68470  0.08390  0.30620  Biso   1.000  H
  H23      1.0000 0.73260  0.19260  0.37040  Biso   1.000  H
  H24      1.0000 0.82040  0.13940  0.48010  Biso   1.000  H
  H25      1.0000 0.74660  0.04080  0.55090  Biso   1.000  H
  H26      1.0000 0.02290  0.67350  0.42180  Biso   1.000  H
  H27      1.0000 0.91610  0.60080  0.30620  Biso   1.000  H
  H28      1.0000 0.80740  0.54000  0.37040  Biso   1.000  H
  H29      1.0000 0.86060  0.68100  0.48010  Biso   1.000  H
  H30      1.0000 0.95920  0.70580  0.55090  Biso   1.000  H
  H31      1.0000 0.02290  0.34940  0.92180  Biso   1.000  H
  H32      1.0000 0.91610  0.31530  0.80620  Biso   1.000  H
  H33      1.0000 0.80740  0.26740  0.87040  Biso   1.000  H
  H34      1.0000 0.86060  0.17960  0.98010  Biso   1.000  H
  H35      1.0000 0.95920  0.25340  0.05090  Biso   1.000  H
  H36      1.0000 0.32650  0.97710  0.92180  Biso   1.000  H
  H37      1.0000 0.39920  0.08390  0.80620  Biso   1.000  H
  H38      1.0000 0.46000  0.19260  0.87040  Biso   1.000  H
  H39      1.0000 0.31900  0.13940  0.98010  Biso   1.000  H
  H40      1.0000 0.29420  0.04080  0.05090  Biso   1.000  H
  H41      1.0000 0.65060  0.67350  0.92180  Biso   1.000  H
  H42      1.0000 0.68470  0.60080  0.80620  Biso   1.000  H
  H43      1.0000 0.73260  0.54000  0.87040  Biso   1.000  H
  H44      1.0000 0.82040  0.68100  0.98010  Biso   1.000  H
  H45      1.0000 0.74660  0.70580  0.05090  Biso   1.000  H
  H46      1.0000 0.67350  0.65060  0.57820  Biso   1.000  H
  H47      1.0000 0.60080  0.68470  0.69380  Biso   1.000  H
  H48      1.0000 0.54000  0.73260  0.62960  Biso   1.000  H
  H49      1.0000 0.68100  0.82040  0.51990  Biso   1.000  H
  H50      1.0000 0.70580  0.74660  0.44910  Biso   1.000  H
  H51      1.0000 0.34940  0.02290  0.57820  Biso   1.000  H
  H52      1.0000 0.31530  0.91610  0.69380  Biso   1.000  H
  H53      1.0000 0.26740  0.80740  0.62960  Biso   1.000  H
  H54      1.0000 0.17960  0.86060  0.51990  Biso   1.000  H
  H55      1.0000 0.25340  0.95920  0.44910  Biso   1.000  H
  H56      1.0000 0.97710  0.32650  0.57820  Biso   1.000  H
  H57      1.0000 0.08390  0.39920  0.69380  Biso   1.000  H
  H58      1.0000 0.19260  0.46000  0.62960  Biso   1.000  H
  H59      1.0000 0.13940  0.31900  0.51990  Biso   1.000  H
  H60      1.0000 0.04080  0.29420  0.44910  Biso   1.000  H
  C1       1.0000 0.12590  0.56360  0.16020  Biso   1.000  C
  C2       1.0000 0.11600  0.66730  0.14010  Biso   1.000  C
  C3       1.0000 0.18400  0.73110  0.92990  Biso   1.000  C
  C4       1.0000 0.09930  0.74650  0.98860  Biso   1.000  C
  C5       1.0000 0.43770  0.87410  0.16020  Biso   1.000  C
  C6       1.0000 0.55130  0.88400  0.14010  Biso   1.000  C
  C7       1.0000 0.54710  0.81600  0.92990  Biso   1.000  C
  C8       1.0000 0.64720  0.90070  0.98860  Biso   1.000  C
  C9       1.0000 0.43640  0.56230  0.16020  Biso   1.000  C
  C10      1.0000 0.33270  0.44870  0.14010  Biso   1.000  C
  C11      1.0000 0.26890  0.45290  0.92990  Biso   1.000  C
  C12      1.0000 0.25350  0.35280  0.98860  Biso   1.000  C
  C13      1.0000 0.56230  0.43640  0.33980  Biso   1.000  C
  C14      1.0000 0.44870  0.33270  0.35990  Biso   1.000  C
  C15      1.0000 0.45290  0.26890  0.57010  Biso   1.000  C
  C16      1.0000 0.35280  0.25350  0.51140  Biso   1.000  C
  C17      1.0000 0.56360  0.12590  0.33980  Biso   1.000  C
  C18      1.0000 0.66730  0.11600  0.35990  Biso   1.000  C
  C19      1.0000 0.73110  0.18400  0.57010  Biso   1.000  C
  C20      1.0000 0.74650  0.09930  0.51140  Biso   1.000  C
  C21      1.0000 0.87410  0.43770  0.33980  Biso   1.000  C
  C22      1.0000 0.88400  0.55130  0.35990  Biso   1.000  C
  C23      1.0000 0.81600  0.54710  0.57010  Biso   1.000  C
  C24      1.0000 0.90070  0.64720  0.51140  Biso   1.000  C
  C25      1.0000 0.87410  0.43640  0.83980  Biso   1.000  C
  C26      1.0000 0.88400  0.33270  0.85990  Biso   1.000  C
  C27      1.0000 0.81600  0.26890  0.07010  Biso   1.000  C
  C28      1.0000 0.90070  0.25350  0.01140  Biso   1.000  C
  C29      1.0000 0.56230  0.12590  0.83980  Biso   1.000  C
  C30      1.0000 0.44870  0.11600  0.85990  Biso   1.000  C
  C31      1.0000 0.45290  0.18400  0.07010  Biso   1.000  C
  C32      1.0000 0.35280  0.09930  0.01140  Biso   1.000  C
  C33      1.0000 0.56360  0.43770  0.83980  Biso   1.000  C
  C34      1.0000 0.66730  0.55130  0.85990  Biso   1.000  C
  C35      1.0000 0.73110  0.54710  0.07010  Biso   1.000  C
  C36      1.0000 0.74650  0.64720  0.01140  Biso   1.000  C
  C37      1.0000 0.43770  0.56360  0.66020  Biso   1.000  C
  C38      1.0000 0.55130  0.66730  0.64010  Biso   1.000  C
  C39      1.0000 0.54710  0.73110  0.42990  Biso   1.000  C
  C40      1.0000 0.64720  0.74650  0.48860  Biso   1.000  C
  C41      1.0000 0.43640  0.87410  0.66020  Biso   1.000  C
  C42      1.0000 0.33270  0.88400  0.64010  Biso   1.000  C
  C43      1.0000 0.26890  0.81600  0.42990  Biso   1.000  C
  C44      1.0000 0.25350  0.90070  0.48860  Biso   1.000  C
  C45      1.0000 0.12590  0.56230  0.66020  Biso   1.000  C
  C46      1.0000 0.11600  0.44870  0.64010  Biso   1.000  C
  C47      1.0000 0.18400  0.45290  0.42990  Biso   1.000  C
  C48      1.0000 0.09930  0.35280  0.48860  Biso   1.000  C
  N1       1.0000 0.04270  0.65280  0.05840  Biso   1.000  N
  N2       1.0000 0.61010  0.95730  0.05840  Biso   1.000  N
  N3       1.0000 0.34720  0.38990  0.05840  Biso   1.000  N
  N4       1.0000 0.38990  0.34720  0.44160  Biso   1.000  N
  N5       1.0000 0.65280  0.04270  0.44160  Biso   1.000  N
  N6       1.0000 0.95730  0.61010  0.44160  Biso   1.000  N
  N7       1.0000 0.95730  0.34720  0.94160  Biso   1.000  N
  N8       1.0000 0.38990  0.04270  0.94160  Biso   1.000  N
  N9       1.0000 0.65280  0.61010  0.94160  Biso   1.000  N
  N10      1.0000 0.61010  0.65280  0.55840  Biso   1.000  N
  N11      1.0000 0.34720  0.95730  0.55840  Biso   1.000  N
  N12      1.0000 0.04270  0.38990  0.55840  Biso   1.000  N
  O1       1.0000 0.18850  0.63950  0.94130  Biso   1.000  O
  O2       1.0000 0.07440  0.47610  0.10830  Biso   1.000  O
  O3       1.0000 0.24580  0.80560  0.87280  Biso   1.000  O
  O4       1.0000 0.18420  0.56530  0.22840  Biso   1.000  O
  O5       1.0000 0.45100  0.81150  0.94130  Biso   1.000  O
  O6       1.0000 0.40170  0.92560  0.10830  Biso   1.000  O
  O7       1.0000 0.55980  0.75420  0.87280  Biso   1.000  O
  O8       1.0000 0.38110  0.81580  0.22840  Biso   1.000  O
  O9       1.0000 0.36050  0.54900  0.94130  Biso   1.000  O
  O10      1.0000 0.52390  0.59830  0.10830  Biso   1.000  O
  O11      1.0000 0.19440  0.44020  0.87280  Biso   1.000  O
  O12      1.0000 0.43470  0.61890  0.22840  Biso   1.000  O
  O13      1.0000 0.54900  0.36050  0.55870  Biso   1.000  O
  O14      1.0000 0.59830  0.52390  0.39170  Biso   1.000  O
  O15      1.0000 0.44020  0.19440  0.62720  Biso   1.000  O
  O16      1.0000 0.61890  0.43470  0.27160  Biso   1.000  O
  O17      1.0000 0.63950  0.18850  0.55870  Biso   1.000  O
  O18      1.0000 0.47610  0.07440  0.39170  Biso   1.000  O
  O19      1.0000 0.80560  0.24580  0.62720  Biso   1.000  O
  O20      1.0000 0.56530  0.18420  0.27160  Biso   1.000  O
  O21      1.0000 0.81150  0.45100  0.55870  Biso   1.000  O
  O22      1.0000 0.92560  0.40170  0.39170  Biso   1.000  O
  O23      1.0000 0.75420  0.55980  0.62720  Biso   1.000  O
  O24      1.0000 0.81580  0.38110  0.27160  Biso   1.000  O
  O25      1.0000 0.81150  0.36050  0.05870  Biso   1.000  O
  O26      1.0000 0.92560  0.52390  0.89170  Biso   1.000  O
  O27      1.0000 0.75420  0.19440  0.12720  Biso   1.000  O
  O28      1.0000 0.81580  0.43470  0.77160  Biso   1.000  O
  O29      1.0000 0.54900  0.18850  0.05870  Biso   1.000  O
  O30      1.0000 0.59830  0.07440  0.89170  Biso   1.000  O
  O31      1.0000 0.44020  0.24580  0.12720  Biso   1.000  O
  O32      1.0000 0.61890  0.18420  0.77160  Biso   1.000  O
  O33      1.0000 0.63950  0.45100  0.05870  Biso   1.000  O
  O34      1.0000 0.47610  0.40170  0.89170  Biso   1.000  O
  O35      1.0000 0.80560  0.55980  0.12720  Biso   1.000  O
  O36      1.0000 0.56530  0.38110  0.77160  Biso   1.000  O
  O37      1.0000 0.45100  0.63950  0.44130  Biso   1.000  O
  O38      1.0000 0.40170  0.47610  0.60830  Biso   1.000  O
  O39      1.0000 0.55980  0.80560  0.37280  Biso   1.000  O
  O40      1.0000 0.38110  0.56530  0.72840  Biso   1.000  O
  O41      1.0000 0.36050  0.81150  0.44130  Biso   1.000  O
  O42      1.0000 0.52390  0.92560  0.60830  Biso   1.000  O
  O43      1.0000 0.19440  0.75420  0.37280  Biso   1.000  O
  O44      1.0000 0.43470  0.81580  0.72840  Biso   1.000  O
  O45      1.0000 0.18850  0.54900  0.44130  Biso   1.000  O
  O46      1.0000 0.07440  0.59830  0.60830  Biso   1.000  O
  O47      1.0000 0.24580  0.44020  0.37280  Biso   1.000  O
  O48      1.0000 0.18420  0.61890  0.72840  Biso   1.000  O
