data_image0
_cell_length_a       7.4881
_cell_length_b       13.2539
_cell_length_c       13.2539
_cell_angle_alpha    120
_cell_angle_beta     90
_cell_angle_gamma    90

_symmetry_space_group_name_H-M    P 1
_symmetry_int_tables_number       1

loop_
  _symmetry_equiv_pos_as_xyz
  'x, y, z'

loop_
  _atom_site_label
  _atom_site_occupancy
  _atom_site_fract_x
  _atom_site_fract_y
  _atom_site_fract_z
  _atom_site_thermal_displace_type
  _atom_site_B_iso_or_equiv
  _atom_site_type_symbol
  La1      1.0000 0.33051  0.66667  0.33334  Biso   1.000  La
  La2      1.0000 0.66949  0.33333  0.66666  Biso   1.000  La
  Ni1      1.0000 0.00000  0.50000  0.50000  Biso   1.000  Ni
  Ni2      1.0000 0.00000  0.00000  0.50000  Biso   1.000  Ni
  Ni3      1.0000 0.00000  0.50000  0.00000  Biso   1.000  Ni
  H1       1.0000 0.71470  0.73120  0.55750  Biso   1.000  H
  H2       1.0000 0.60520  0.66650  0.60860  Biso   1.000  H
  H3       1.0000 0.83890  0.64550  0.68200  Biso   1.000  H
  H4       1.0000 0.06630  0.75570  0.71780  Biso   1.000  H
  H5       1.0000 0.93510  0.81630  0.67220  Biso   1.000  H
  H6       1.0000 0.71470  0.82630  0.26880  Biso   1.000  H
  H7       1.0000 0.60520  0.94210  0.33350  Biso   1.000  H
  H8       1.0000 0.83890  0.03650  0.35450  Biso   1.000  H
  H9       1.0000 0.06630  0.96210  0.24430  Biso   1.000  H
  H10      1.0000 0.93510  0.85590  0.18370  Biso   1.000  H
  H11      1.0000 0.71470  0.44250  0.17370  Biso   1.000  H
  H12      1.0000 0.60520  0.39140  0.05790  Biso   1.000  H
  H13      1.0000 0.83890  0.31800  0.96350  Biso   1.000  H
  H14      1.0000 0.06630  0.28220  0.03790  Biso   1.000  H
  H15      1.0000 0.93510  0.32780  0.14410  Biso   1.000  H
  H16      1.0000 0.28530  0.26880  0.44250  Biso   1.000  H
  H17      1.0000 0.39480  0.33350  0.39140  Biso   1.000  H
  H18      1.0000 0.16110  0.35450  0.31800  Biso   1.000  H
  H19      1.0000 0.93370  0.24430  0.28220  Biso   1.000  H
  H20      1.0000 0.06490  0.18370  0.32780  Biso   1.000  H
  H21      1.0000 0.28530  0.17370  0.73120  Biso   1.000  H
  H22      1.0000 0.39480  0.05790  0.66650  Biso   1.000  H
  H23      1.0000 0.16110  0.96350  0.64550  Biso   1.000  H
  H24      1.0000 0.93370  0.03790  0.75570  Biso   1.000  H
  H25      1.0000 0.06490  0.14410  0.81630  Biso   1.000  H
  H26      1.0000 0.28530  0.55750  0.82630  Biso   1.000  H
  H27      1.0000 0.39480  0.60860  0.94210  Biso   1.000  H
  H28      1.0000 0.16110  0.68200  0.03650  Biso   1.000  H
  H29      1.0000 0.93370  0.71780  0.96210  Biso   1.000  H
  H30      1.0000 0.06490  0.67220  0.85590  Biso   1.000  H
  C1       1.0000 0.67660  0.56040  0.44020  Biso   1.000  C
  C2       1.0000 0.70760  0.65990  0.56090  Biso   1.000  C
  C3       1.0000 0.99850  0.74450  0.65060  Biso   1.000  C
  C4       1.0000 0.12580  0.71780  0.55110  Biso   1.000  C
  C5       1.0000 0.67660  0.87980  0.43960  Biso   1.000  C
  C6       1.0000 0.70760  0.90100  0.34010  Biso   1.000  C
  C7       1.0000 0.99850  0.90610  0.25550  Biso   1.000  C
  C8       1.0000 0.12580  0.83330  0.28220  Biso   1.000  C
  C9       1.0000 0.67660  0.55980  0.12020  Biso   1.000  C
  C10      1.0000 0.70760  0.43910  0.09900  Biso   1.000  C
  C11      1.0000 0.99850  0.34940  0.09390  Biso   1.000  C
  C12      1.0000 0.12580  0.44890  0.16670  Biso   1.000  C
  C13      1.0000 0.32340  0.43960  0.55980  Biso   1.000  C
  C14      1.0000 0.29240  0.34010  0.43910  Biso   1.000  C
  C15      1.0000 0.00150  0.25550  0.34940  Biso   1.000  C
  C16      1.0000 0.87420  0.28220  0.44890  Biso   1.000  C
  C17      1.0000 0.32340  0.12020  0.56040  Biso   1.000  C
  C18      1.0000 0.29240  0.09900  0.65990  Biso   1.000  C
  C19      1.0000 0.00150  0.09390  0.74450  Biso   1.000  C
  C20      1.0000 0.87420  0.16670  0.71780  Biso   1.000  C
  C21      1.0000 0.32340  0.44020  0.87980  Biso   1.000  C
  C22      1.0000 0.29240  0.56090  0.90100  Biso   1.000  C
  C23      1.0000 0.00150  0.65060  0.90610  Biso   1.000  C
  C24      1.0000 0.87420  0.55110  0.83330  Biso   1.000  C
  N1       1.0000 0.86950  0.65014  0.61804  Biso   1.000  N
  N2       1.0000 0.86950  0.96790  0.34986  Biso   1.000  N
  N3       1.0000 0.86950  0.38196  0.03210  Biso   1.000  N
  N4       1.0000 0.13050  0.34986  0.38196  Biso   1.000  N
  N5       1.0000 0.13050  0.03210  0.65014  Biso   1.000  N
  N6       1.0000 0.13050  0.61804  0.96790  Biso   1.000  N
  O1       1.0000 0.53950  0.56580  0.38970  Biso   1.000  O
  O2       1.0000 0.78510  0.47644  0.39616  Biso   1.000  O
  O3       1.0000 0.11050  0.62027  0.45805  Biso   1.000  O
  O4       1.0000 0.23940  0.79012  0.56127  Biso   1.000  O
  O5       1.0000 0.53950  0.82390  0.43420  Biso   1.000  O
  O6       1.0000 0.78510  0.91972  0.52356  Biso   1.000  O
  O7       1.0000 0.11050  0.83778  0.37973  Biso   1.000  O
  O8       1.0000 0.23940  0.77115  0.20988  Biso   1.000  O
  O9       1.0000 0.53950  0.61030  0.17610  Biso   1.000  O
  O10      1.0000 0.78510  0.60384  0.08028  Biso   1.000  O
  O11      1.0000 0.11050  0.54195  0.16222  Biso   1.000  O
  O12      1.0000 0.23940  0.43873  0.22885  Biso   1.000  O
  O13      1.0000 0.46050  0.43420  0.61030  Biso   1.000  O
  O14      1.0000 0.21490  0.52356  0.60384  Biso   1.000  O
  O15      1.0000 0.88950  0.37973  0.54195  Biso   1.000  O
  O16      1.0000 0.76060  0.20988  0.43873  Biso   1.000  O
  O17      1.0000 0.46050  0.17610  0.56580  Biso   1.000  O
  O18      1.0000 0.21490  0.08028  0.47644  Biso   1.000  O
  O19      1.0000 0.88950  0.16222  0.62027  Biso   1.000  O
  O20      1.0000 0.76060  0.22885  0.79012  Biso   1.000  O
  O21      1.0000 0.46050  0.38970  0.82390  Biso   1.000  O
  O22      1.0000 0.21490  0.39616  0.91972  Biso   1.000  O
  O23      1.0000 0.88950  0.45805  0.83778  Biso   1.000  O
  O24      1.0000 0.76060  0.56127  0.77115  Biso   1.000  O
