data_image0
_cell_length_a       10.888
_cell_length_b       12.822
_cell_length_c       13.4783
_cell_angle_alpha    118.402
_cell_angle_beta     109.353
_cell_angle_gamma    90

_symmetry_space_group_name_H-M    P 1
_symmetry_int_tables_number       1

loop_
  _symmetry_equiv_pos_as_xyz
  'x, y, z'

loop_
  _atom_site_label
  _atom_site_occupancy
  _atom_site_fract_x
  _atom_site_fract_y
  _atom_site_fract_z
  _atom_site_thermal_displace_type
  _atom_site_B_iso_or_equiv
  _atom_site_type_symbol
  Cd1      1.0000 0.75000  0.92086  0.00000  Biso   1.000  Cd
  Cd2      1.0000 0.25000  0.07914  0.00000  Biso   1.000  Cd
  H1       1.0000 0.89290  0.78440  0.14000  Biso   1.000  H
  H2       1.0000 0.87960  0.71020  0.26280  Biso   1.000  H
  H3       1.0000 0.69940  0.73300  0.32580  Biso   1.000  H
  H4       1.0000 0.55860  0.90090  0.13560  Biso   1.000  H
  H5       1.0000 0.40920  0.80740  0.20120  Biso   1.000  H
  H6       1.0000 0.49590  0.93020  0.32300  Biso   1.000  H
  H7       1.0000 0.53530  0.75440  0.51740  Biso   1.000  H
  H8       1.0000 0.41930  0.79970  0.64520  Biso   1.000  H
  H9       1.0000 0.23520  0.89120  0.61880  Biso   1.000  H
  H10      1.0000 0.28730  0.89420  0.33460  Biso   1.000  H
  H11      1.0000 0.10080  0.97660  0.39200  Biso   1.000  H
  H12      1.0000 0.60710  0.64440  0.86000  Biso   1.000  H
  H13      1.0000 0.62040  0.44740  0.73720  Biso   1.000  H
  H14      1.0000 0.80060  0.40720  0.67420  Biso   1.000  H
  H15      1.0000 0.94140  0.76530  0.86440  Biso   1.000  H
  H16      1.0000 0.09080  0.60620  0.79880  Biso   1.000  H
  H17      1.0000 0.00410  0.60720  0.67700  Biso   1.000  H
  H18      1.0000 0.96470  0.23700  0.48260  Biso   1.000  H
  H19      1.0000 0.08070  0.15450  0.35480  Biso   1.000  H
  H20      1.0000 0.26480  0.27240  0.38120  Biso   1.000  H
  H21      1.0000 0.21270  0.55960  0.66540  Biso   1.000  H
  H22      1.0000 0.39920  0.58460  0.60800  Biso   1.000  H
  H23      1.0000 0.10710  0.21560  0.86000  Biso   1.000  H
  H24      1.0000 0.12040  0.28980  0.73720  Biso   1.000  H
  H25      1.0000 0.30060  0.26700  0.67420  Biso   1.000  H
  H26      1.0000 0.44140  0.09910  0.86440  Biso   1.000  H
  H27      1.0000 0.59080  0.19260  0.79880  Biso   1.000  H
  H28      1.0000 0.50410  0.06980  0.67700  Biso   1.000  H
  H29      1.0000 0.46470  0.24560  0.48260  Biso   1.000  H
  H30      1.0000 0.58070  0.20030  0.35480  Biso   1.000  H
  H31      1.0000 0.76480  0.10880  0.38120  Biso   1.000  H
  H32      1.0000 0.71270  0.10580  0.66540  Biso   1.000  H
  H33      1.0000 0.89920  0.02340  0.60800  Biso   1.000  H
  H34      1.0000 0.39290  0.35560  0.14000  Biso   1.000  H
  H35      1.0000 0.37960  0.55260  0.26280  Biso   1.000  H
  H36      1.0000 0.19940  0.59280  0.32580  Biso   1.000  H
  H37      1.0000 0.05860  0.23470  0.13560  Biso   1.000  H
  H38      1.0000 0.90920  0.39380  0.20120  Biso   1.000  H
  H39      1.0000 0.99590  0.39280  0.32300  Biso   1.000  H
  H40      1.0000 0.03530  0.76300  0.51740  Biso   1.000  H
  H41      1.0000 0.91930  0.84550  0.64520  Biso   1.000  H
  H42      1.0000 0.73520  0.72760  0.61880  Biso   1.000  H
  H43      1.0000 0.78730  0.44040  0.33460  Biso   1.000  H
  H44      1.0000 0.60080  0.41540  0.39200  Biso   1.000  H
  C1       1.0000 0.81930  0.79356  0.16452  Biso   1.000  C
  C2       1.0000 0.81230  0.74950  0.23780  Biso   1.000  C
  C3       1.0000 0.70600  0.76290  0.27500  Biso   1.000  C
  C4       1.0000 0.60960  0.82076  0.23692  Biso   1.000  C
  C5       1.0000 0.62470  0.86160  0.16240  Biso   1.000  C
  C6       1.0000 0.49240  0.84243  0.27426  Biso   1.000  C
  C7       1.0000 0.42170  0.82048  0.41536  Biso   1.000  C
  C8       1.0000 0.46080  0.79220  0.50680  Biso   1.000  C
  C9       1.0000 0.39180  0.81874  0.58208  Biso   1.000  C
  C10      1.0000 0.28250  0.87300  0.56640  Biso   1.000  C
  C11      1.0000 0.24200  0.90102  0.47364  Biso   1.000  C
  C12      1.0000 0.31320  0.87478  0.39756  Biso   1.000  C
  C13      1.0000 0.12480  0.95514  0.45348  Biso   1.000  C
  C14      1.0000 0.90880  0.01694  0.87548  Biso   1.000  C
  C15      1.0000 0.68070  0.62904  0.83548  Biso   1.000  C
  C16      1.0000 0.68770  0.51170  0.76220  Biso   1.000  C
  C17      1.0000 0.79400  0.48790  0.72500  Biso   1.000  C
  C18      1.0000 0.89040  0.58384  0.76308  Biso   1.000  C
  C19      1.0000 0.87530  0.69920  0.83760  Biso   1.000  C
  C20      1.0000 0.00760  0.56817  0.72574  Biso   1.000  C
  C21      1.0000 0.07830  0.40512  0.58464  Biso   1.000  C
  C22      1.0000 0.03920  0.28540  0.49320  Biso   1.000  C
  C23      1.0000 0.10820  0.23666  0.41792  Biso   1.000  C
  C24      1.0000 0.21750  0.30660  0.43360  Biso   1.000  C
  C25      1.0000 0.25800  0.42738  0.52636  Biso   1.000  C
  C26      1.0000 0.18680  0.47722  0.60244  Biso   1.000  C
  C27      1.0000 0.37520  0.50166  0.54652  Biso   1.000  C
  C28      1.0000 0.59120  0.14146  0.12452  Biso   1.000  C
  C29      1.0000 0.18070  0.20644  0.83548  Biso   1.000  C
  C30      1.0000 0.18770  0.25050  0.76220  Biso   1.000  C
  C31      1.0000 0.29400  0.23710  0.72500  Biso   1.000  C
  C32      1.0000 0.39040  0.17924  0.76308  Biso   1.000  C
  C33      1.0000 0.37530  0.13840  0.83760  Biso   1.000  C
  C34      1.0000 0.50760  0.15757  0.72574  Biso   1.000  C
  C35      1.0000 0.57830  0.17952  0.58464  Biso   1.000  C
  C36      1.0000 0.53920  0.20780  0.49320  Biso   1.000  C
  C37      1.0000 0.60820  0.18126  0.41792  Biso   1.000  C
  C38      1.0000 0.71750  0.12700  0.43360  Biso   1.000  C
  C39      1.0000 0.75800  0.09898  0.52636  Biso   1.000  C
  C40      1.0000 0.68680  0.12522  0.60244  Biso   1.000  C
  C41      1.0000 0.87520  0.04486  0.54652  Biso   1.000  C
  C42      1.0000 0.09120  0.98306  0.12452  Biso   1.000  C
  C43      1.0000 0.31930  0.37096  0.16452  Biso   1.000  C
  C44      1.0000 0.31230  0.48830  0.23780  Biso   1.000  C
  C45      1.0000 0.20600  0.51210  0.27500  Biso   1.000  C
  C46      1.0000 0.10960  0.41616  0.23692  Biso   1.000  C
  C47      1.0000 0.12470  0.30080  0.16240  Biso   1.000  C
  C48      1.0000 0.99240  0.43183  0.27426  Biso   1.000  C
  C49      1.0000 0.92170  0.59488  0.41536  Biso   1.000  C
  C50      1.0000 0.96080  0.71460  0.50680  Biso   1.000  C
  C51      1.0000 0.89180  0.76334  0.58208  Biso   1.000  C
  C52      1.0000 0.78250  0.69340  0.56640  Biso   1.000  C
  C53      1.0000 0.74200  0.57262  0.47364  Biso   1.000  C
  C54      1.0000 0.81320  0.52278  0.39756  Biso   1.000  C
  C55      1.0000 0.62480  0.49834  0.45348  Biso   1.000  C
  C56      1.0000 0.40880  0.85854  0.87548  Biso   1.000  C
  S1       1.0000 0.74787  0.98271  0.83304  Biso   1.000  S
  S2       1.0000 0.75213  0.14967  0.16696  Biso   1.000  S
  S3       1.0000 0.25213  0.01729  0.16696  Biso   1.000  S
  S4       1.0000 0.24787  0.85033  0.83304  Biso   1.000  S
  N1       1.0000 0.72660  0.84902  0.12604  Biso   1.000  N
  N2       1.0000 0.05410  0.97403  0.51706  Biso   1.000  N
  N3       1.0000 0.02190  0.03912  0.90204  Biso   1.000  N
  N4       1.0000 0.77340  0.72298  0.87396  Biso   1.000  N
  N5       1.0000 0.44590  0.45697  0.48294  Biso   1.000  N
  N6       1.0000 0.47810  0.13708  0.09796  Biso   1.000  N
  N7       1.0000 0.27340  0.15098  0.87396  Biso   1.000  N
  N8       1.0000 0.94590  0.02597  0.48294  Biso   1.000  N
  N9       1.0000 0.97810  0.96088  0.09796  Biso   1.000  N
  N10      1.0000 0.22660  0.27702  0.12604  Biso   1.000  N
  N11      1.0000 0.55410  0.54303  0.51706  Biso   1.000  N
  N12      1.0000 0.52190  0.86292  0.90204  Biso   1.000  N
  O1       1.0000 0.49620  0.78720  0.34420  Biso   1.000  O
  O2       1.0000 0.00380  0.44300  0.65580  Biso   1.000  O
  O3       1.0000 0.50380  0.21280  0.65580  Biso   1.000  O
  O4       1.0000 0.99620  0.55700  0.34420  Biso   1.000  O
