data_image0
_cell_length_a       17.5859
_cell_length_b       11.447
_cell_length_c       21.6831
_cell_angle_alpha    90
_cell_angle_beta     114.472
_cell_angle_gamma    90

_symmetry_space_group_name_H-M    "P 1"
_symmetry_int_tables_number       1

loop_
  _symmetry_equiv_pos_as_xyz
  'x, y, z'

loop_
  _atom_site_label
  _atom_site_occupancy
  _atom_site_fract_x
  _atom_site_fract_y
  _atom_site_fract_z
  _atom_site_thermal_displace_type
  _atom_site_B_iso_or_equiv
  _atom_site_type_symbol
  Cu1      1.0000 0.50519  0.89735  0.55737  Biso   1.000  Cu
  Cu2      1.0000 0.50835  0.67468  0.75466  Biso   1.000  Cu
  N1       1.0000 0.25440  0.86040  0.51410  Biso   1.000  N
  N2       1.0000 0.38440  0.87540  0.52240  Biso   1.000  N
  N3       1.0000 0.76060  0.91390  0.62260  Biso   1.000  N
  N4       1.0000 0.62890  0.91240  0.60500  Biso   1.000  N
  N5       1.0000 0.25190  0.66970  0.69150  Biso   1.000  N
  N6       1.0000 0.38530  0.65770  0.70940  Biso   1.000  N
  N7       1.0000 0.76230  0.72230  0.80660  Biso   1.000  N
  N8       1.0000 0.63230  0.70200  0.79790  Biso   1.000  N
  O1       1.0000 0.50790  0.74710  0.65170  Biso   1.000  O
  O2       1.0000 0.51810  0.72400  0.55370  Biso   1.000  O
  O3       1.0000 0.51090  0.58120  0.85110  Biso   1.000  O
  O4       1.0000 0.50610  0.57090  0.95150  Biso   1.000  O
  O5       1.0000 0.52620  0.51930  0.72020  Biso   1.000  O
  O6       1.0000 0.51160  0.32730  0.71060  Biso   1.000  O
  C1       1.0000 0.51230  0.68770  0.60710  Biso   1.000  C
  H1       1.0000 0.51140  0.60720  0.61240  Biso   1.000  H
  C2       1.0000 0.51120  0.62680  0.90230  Biso   1.000  C
  H2       1.0000 0.51550  0.70780  0.90560  Biso   1.000  H
  C3       1.0000 0.50270  0.42130  0.73540  Biso   1.000  C
  H3       1.0000 0.47820  0.42080  0.76600  Biso   1.000  H
  C4       1.0000 0.33370  0.90080  0.54900  Biso   1.000  C
  H4       1.0000 0.34960  0.94340  0.58900  Biso   1.000  H
  C5       1.0000 0.33560  0.81530  0.46360  Biso   1.000  C
  H5       1.0000 0.35380  0.78640  0.43190  Biso   1.000  H
  C6       1.0000 0.25910  0.80570  0.46010  Biso   1.000  C
  H6       1.0000 0.21510  0.76740  0.42600  Biso   1.000  H
  C7       1.0000 0.18730  0.86810  0.53180  Biso   1.000  C
  C8       1.0000 0.12140  0.79240  0.50470  Biso   1.000  C
  H7       1.0000 0.12210  0.73640  0.47380  Biso   1.000  H
  C9       1.0000 0.05560  0.79650  0.52140  Biso   1.000  C
  H8       1.0000 0.01430  0.73970  0.50400  Biso   1.000  H
  C10      1.0000 0.04680  0.88320  0.56420  Biso   1.000  C
  C11      1.0000 0.11300  0.96050  0.58850  Biso   1.000  C
  H9       1.0000 0.11120  0.02140  0.61620  Biso   1.000  H
  C12      1.0000 0.18090  0.95140  0.57350  Biso   1.000  C
  H10      1.0000 0.22440  0.00460  0.59280  Biso   1.000  H
  C13      1.0000 0.68090  0.89290  0.57870  Biso   1.000  C
  H11      1.0000 0.66550  0.86720  0.53440  Biso   1.000  H
  C14      1.0000 0.67530  0.94960  0.67160  Biso   1.000  C
  H12      1.0000 0.65490  0.96820  0.70370  Biso   1.000  H
  C15      1.0000 0.75520  0.95280  0.67990  Biso   1.000  C
  H13      1.0000 0.80000  0.97780  0.71890  Biso   1.000  H
  C16      1.0000 0.82990  0.90460  0.60800  Biso   1.000  C
  C17      1.0000 0.83530  0.82130  0.56470  Biso   1.000  C
  H14      1.0000 0.79190  0.76820  0.54470  Biso   1.000  H
  C18      1.0000 0.90450  0.81560  0.55060  Biso   1.000  C
  H15      1.0000 0.90570  0.75870  0.52040  Biso   1.000  H
  C19      1.0000 0.97390  0.89140  0.57950  Biso   1.000  C
  C20      1.0000 0.96690  0.97240  0.62480  Biso   1.000  C
  H16      1.0000 0.01090  0.02390  0.64640  Biso   1.000  H
  C21      1.0000 0.89770  0.97980  0.63910  Biso   1.000  C
  H17      1.0000 0.89620  0.03550  0.66980  Biso   1.000  H
  C22      1.0000 0.33310  0.69560  0.73220  Biso   1.000  C
  H18      1.0000 0.34910  0.73680  0.77260  Biso   1.000  H
  C23      1.0000 0.25780  0.60700  0.63890  Biso   1.000  C
  H19      1.0000 0.21370  0.57310  0.60260  Biso   1.000  H
  C24      1.0000 0.33860  0.60410  0.64980  Biso   1.000  C
  H20      1.0000 0.35950  0.57060  0.62090  Biso   1.000  H
  C25      1.0000 0.18260  0.69010  0.70510  Biso   1.000  C
  C26      1.0000 0.10880  0.61980  0.67030  Biso   1.000  C
  H21      1.0000 0.10690  0.56620  0.63750  Biso   1.000  H
  C27      1.0000 0.04070  0.63330  0.68660  Biso   1.000  C
  H22      1.0000 0.99360  0.58790  0.66320  Biso   1.000  H
  C28      1.0000 0.03800  0.71130  0.73610  Biso   1.000  C
  C29      1.0000 0.11120  0.78240  0.76690  Biso   1.000  C
  H23      1.0000 0.11280  0.83890  0.79830  Biso   1.000  H
  C30      1.0000 0.17830  0.76980  0.75170  Biso   1.000  C
  H24      1.0000 0.22430  0.81770  0.77400  Biso   1.000  H
  C31      1.0000 0.68480  0.68070  0.77180  Biso   1.000  C
  H25      1.0000 0.66990  0.63940  0.73150  Biso   1.000  H
  C32      1.0000 0.67580  0.76310  0.85500  Biso   1.000  C
  H26      1.0000 0.65480  0.79180  0.88500  Biso   1.000  H
  C33      1.0000 0.75370  0.77500  0.86100  Biso   1.000  C
  H27      1.0000 0.79630  0.81300  0.89650  Biso   1.000  H
  C34      1.0000 0.82870  0.71580  0.78890  Biso   1.000  C
  C35      1.0000 0.82770  0.65260  0.73550  Biso   1.000  C
  H28      1.0000 0.78040  0.60930  0.70970  Biso   1.000  H
  C36      1.0000 0.89360  0.65150  0.71910  Biso   1.000  C
  H29      1.0000 0.89020  0.60450  0.68310  Biso   1.000  H
  C37      1.0000 0.96770  0.71660  0.75290  Biso   1.000  C
  C38      1.0000 0.96840  0.77930  0.80760  Biso   1.000  C
  H30      1.0000 0.01590  0.82250  0.83300  Biso   1.000  H
  C39      1.0000 0.90300  0.78130  0.82650  Biso   1.000  C
  H31      1.0000 0.90690  0.82520  0.86380  Biso   1.000  H
  Cu3      1.0000 0.49481  0.39735  0.94263  Biso   1.000  Cu
  Cu4      1.0000 0.49165  0.17468  0.74534  Biso   1.000  Cu
  N9       1.0000 0.74560  0.36040  0.98590  Biso   1.000  N
  N10      1.0000 0.61560  0.37540  0.97760  Biso   1.000  N
  N11      1.0000 0.23940  0.41390  0.87740  Biso   1.000  N
  N12      1.0000 0.37110  0.41240  0.89500  Biso   1.000  N
  N13      1.0000 0.74810  0.16970  0.80850  Biso   1.000  N
  N14      1.0000 0.61470  0.15770  0.79060  Biso   1.000  N
  N15      1.0000 0.23770  0.22230  0.69340  Biso   1.000  N
  N16      1.0000 0.36770  0.20200  0.70210  Biso   1.000  N
  O7       1.0000 0.49210  0.24710  0.84830  Biso   1.000  O
  O8       1.0000 0.48190  0.22400  0.94630  Biso   1.000  O
  O9       1.0000 0.48910  0.08120  0.64890  Biso   1.000  O
  O10      1.0000 0.49390  0.07090  0.54850  Biso   1.000  O
  O11      1.0000 0.47380  0.01930  0.77980  Biso   1.000  O
  O12      1.0000 0.48840  0.82730  0.78940  Biso   1.000  O
  C40      1.0000 0.48770  0.18770  0.89290  Biso   1.000  C
  H32      1.0000 0.48860  0.10720  0.88760  Biso   1.000  H
  C41      1.0000 0.48880  0.12680  0.59770  Biso   1.000  C
  H33      1.0000 0.48450  0.20780  0.59440  Biso   1.000  H
  C42      1.0000 0.49730  0.92130  0.76460  Biso   1.000  C
  H34      1.0000 0.52180  0.92080  0.73400  Biso   1.000  H
  C43      1.0000 0.66630  0.40080  0.95100  Biso   1.000  C
  H35      1.0000 0.65040  0.44340  0.91100  Biso   1.000  H
  C44      1.0000 0.66440  0.31530  0.03640  Biso   1.000  C
  H36      1.0000 0.64620  0.28640  0.06810  Biso   1.000  H
  C45      1.0000 0.74090  0.30570  0.03990  Biso   1.000  C
  H37      1.0000 0.78490  0.26740  0.07400  Biso   1.000  H
  C46      1.0000 0.81270  0.36810  0.96820  Biso   1.000  C
  C47      1.0000 0.87860  0.29240  0.99530  Biso   1.000  C
  H38      1.0000 0.87790  0.23640  0.02620  Biso   1.000  H
  C48      1.0000 0.94440  0.29650  0.97860  Biso   1.000  C
  H39      1.0000 0.98570  0.23970  0.99600  Biso   1.000  H
  C49      1.0000 0.95320  0.38320  0.93580  Biso   1.000  C
  C50      1.0000 0.88700  0.46050  0.91150  Biso   1.000  C
  H40      1.0000 0.88880  0.52140  0.88380  Biso   1.000  H
  C51      1.0000 0.81910  0.45140  0.92650  Biso   1.000  C
  H41      1.0000 0.77560  0.50460  0.90720  Biso   1.000  H
  C52      1.0000 0.31910  0.39290  0.92130  Biso   1.000  C
  H42      1.0000 0.33450  0.36720  0.96560  Biso   1.000  H
  C53      1.0000 0.32470  0.44960  0.82840  Biso   1.000  C
  H43      1.0000 0.34510  0.46820  0.79630  Biso   1.000  H
  C54      1.0000 0.24480  0.45280  0.82010  Biso   1.000  C
  H44      1.0000 0.20000  0.47780  0.78110  Biso   1.000  H
  C55      1.0000 0.17010  0.40460  0.89200  Biso   1.000  C
  C56      1.0000 0.16470  0.32130  0.93530  Biso   1.000  C
  H45      1.0000 0.20810  0.26820  0.95530  Biso   1.000  H
  C57      1.0000 0.09550  0.31560  0.94940  Biso   1.000  C
  H46      1.0000 0.09430  0.25870  0.97960  Biso   1.000  H
  C58      1.0000 0.02610  0.39140  0.92050  Biso   1.000  C
  C59      1.0000 0.03310  0.47240  0.87520  Biso   1.000  C
  H47      1.0000 0.98910  0.52390  0.85360  Biso   1.000  H
  C60      1.0000 0.10230  0.47980  0.86090  Biso   1.000  C
  H48      1.0000 0.10380  0.53550  0.83020  Biso   1.000  H
  C61      1.0000 0.66690  0.19560  0.76780  Biso   1.000  C
  H49      1.0000 0.65090  0.23680  0.72740  Biso   1.000  H
  C62      1.0000 0.74220  0.10700  0.86110  Biso   1.000  C
  H50      1.0000 0.78630  0.07310  0.89740  Biso   1.000  H
  C63      1.0000 0.66140  0.10410  0.85020  Biso   1.000  C
  H51      1.0000 0.64050  0.07060  0.87910  Biso   1.000  H
  C64      1.0000 0.81740  0.19010  0.79490  Biso   1.000  C
  C65      1.0000 0.89120  0.11980  0.82970  Biso   1.000  C
  H52      1.0000 0.89310  0.06620  0.86250  Biso   1.000  H
  C66      1.0000 0.95930  0.13330  0.81340  Biso   1.000  C
  H53      1.0000 0.00640  0.08790  0.83680  Biso   1.000  H
  C67      1.0000 0.96200  0.21130  0.76390  Biso   1.000  C
  C68      1.0000 0.88880  0.28240  0.73310  Biso   1.000  C
  H54      1.0000 0.88720  0.33890  0.70170  Biso   1.000  H
  C69      1.0000 0.82170  0.26980  0.74830  Biso   1.000  C
  H55      1.0000 0.77570  0.31770  0.72600  Biso   1.000  H
  C70      1.0000 0.31520  0.18070  0.72820  Biso   1.000  C
  H56      1.0000 0.33010  0.13940  0.76850  Biso   1.000  H
  C71      1.0000 0.32420  0.26310  0.64500  Biso   1.000  C
  H57      1.0000 0.34520  0.29180  0.61500  Biso   1.000  H
  C72      1.0000 0.24630  0.27500  0.63900  Biso   1.000  C
  H58      1.0000 0.20370  0.31300  0.60350  Biso   1.000  H
  C73      1.0000 0.17130  0.21580  0.71110  Biso   1.000  C
  C74      1.0000 0.17230  0.15260  0.76450  Biso   1.000  C
  H59      1.0000 0.21960  0.10930  0.79030  Biso   1.000  H
  C75      1.0000 0.10640  0.15150  0.78090  Biso   1.000  C
  H60      1.0000 0.10980  0.10450  0.81690  Biso   1.000  H
  C76      1.0000 0.03230  0.21660  0.74710  Biso   1.000  C
  C77      1.0000 0.03160  0.27930  0.69240  Biso   1.000  C
  H61      1.0000 0.98410  0.32250  0.66700  Biso   1.000  H
  C78      1.0000 0.09700  0.28130  0.67350  Biso   1.000  C
  H62      1.0000 0.09310  0.32520  0.63620  Biso   1.000  H
  Cu5      1.0000 0.49481  0.10265  0.44263  Biso   1.000  Cu
  Cu6      1.0000 0.49165  0.32532  0.24534  Biso   1.000  Cu
  N17      1.0000 0.74560  0.13960  0.48590  Biso   1.000  N
  N18      1.0000 0.61560  0.12460  0.47760  Biso   1.000  N
  N19      1.0000 0.23940  0.08610  0.37740  Biso   1.000  N
  N20      1.0000 0.37110  0.08760  0.39500  Biso   1.000  N
  N21      1.0000 0.74810  0.33030  0.30850  Biso   1.000  N
  N22      1.0000 0.61470  0.34230  0.29060  Biso   1.000  N
  N23      1.0000 0.23770  0.27770  0.19340  Biso   1.000  N
  N24      1.0000 0.36770  0.29800  0.20210  Biso   1.000  N
  O13      1.0000 0.49210  0.25290  0.34830  Biso   1.000  O
  O14      1.0000 0.48190  0.27600  0.44630  Biso   1.000  O
  O15      1.0000 0.48910  0.41880  0.14890  Biso   1.000  O
  O16      1.0000 0.49390  0.42910  0.04850  Biso   1.000  O
  O17      1.0000 0.47380  0.48070  0.27980  Biso   1.000  O
  O18      1.0000 0.48840  0.67270  0.28940  Biso   1.000  O
  C79      1.0000 0.48770  0.31230  0.39290  Biso   1.000  C
  H63      1.0000 0.48860  0.39280  0.38760  Biso   1.000  H
  C80      1.0000 0.48880  0.37320  0.09770  Biso   1.000  C
  H64      1.0000 0.48450  0.29220  0.09440  Biso   1.000  H
  C81      1.0000 0.49730  0.57870  0.26460  Biso   1.000  C
  H65      1.0000 0.52180  0.57920  0.23400  Biso   1.000  H
  C82      1.0000 0.66630  0.09920  0.45100  Biso   1.000  C
  H66      1.0000 0.65040  0.05660  0.41100  Biso   1.000  H
  C83      1.0000 0.66440  0.18470  0.53640  Biso   1.000  C
  H67      1.0000 0.64620  0.21360  0.56810  Biso   1.000  H
  C84      1.0000 0.74090  0.19430  0.53990  Biso   1.000  C
  H68      1.0000 0.78490  0.23260  0.57400  Biso   1.000  H
  C85      1.0000 0.81270  0.13190  0.46820  Biso   1.000  C
  C86      1.0000 0.87860  0.20760  0.49530  Biso   1.000  C
  H69      1.0000 0.87790  0.26360  0.52620  Biso   1.000  H
  C87      1.0000 0.94440  0.20350  0.47860  Biso   1.000  C
  H70      1.0000 0.98570  0.26030  0.49600  Biso   1.000  H
  C88      1.0000 0.95320  0.11680  0.43580  Biso   1.000  C
  C89      1.0000 0.88700  0.03950  0.41150  Biso   1.000  C
  H71      1.0000 0.88880  0.97860  0.38380  Biso   1.000  H
  C90      1.0000 0.81910  0.04860  0.42650  Biso   1.000  C
  H72      1.0000 0.77560  0.99540  0.40720  Biso   1.000  H
  C91      1.0000 0.31910  0.10710  0.42130  Biso   1.000  C
  H73      1.0000 0.33450  0.13280  0.46560  Biso   1.000  H
  C92      1.0000 0.32470  0.05040  0.32840  Biso   1.000  C
  H74      1.0000 0.34510  0.03180  0.29630  Biso   1.000  H
  C93      1.0000 0.24480  0.04720  0.32010  Biso   1.000  C
  H75      1.0000 0.20000  0.02220  0.28110  Biso   1.000  H
  C94      1.0000 0.17010  0.09540  0.39200  Biso   1.000  C
  C95      1.0000 0.16470  0.17870  0.43530  Biso   1.000  C
  H76      1.0000 0.20810  0.23180  0.45530  Biso   1.000  H
  C96      1.0000 0.09550  0.18440  0.44940  Biso   1.000  C
  H77      1.0000 0.09430  0.24130  0.47960  Biso   1.000  H
  C97      1.0000 0.02610  0.10860  0.42050  Biso   1.000  C
  C98      1.0000 0.03310  0.02760  0.37520  Biso   1.000  C
  H78      1.0000 0.98910  0.97610  0.35360  Biso   1.000  H
  C99      1.0000 0.10230  0.02020  0.36090  Biso   1.000  C
  H79      1.0000 0.10380  0.96450  0.33020  Biso   1.000  H
  C100     1.0000 0.66690  0.30440  0.26780  Biso   1.000  C
  H80      1.0000 0.65090  0.26320  0.22740  Biso   1.000  H
  C101     1.0000 0.74220  0.39300  0.36110  Biso   1.000  C
  H81      1.0000 0.78630  0.42690  0.39740  Biso   1.000  H
  C102     1.0000 0.66140  0.39590  0.35020  Biso   1.000  C
  H82      1.0000 0.64050  0.42940  0.37910  Biso   1.000  H
  C103     1.0000 0.81740  0.30990  0.29490  Biso   1.000  C
  C104     1.0000 0.89120  0.38020  0.32970  Biso   1.000  C
  H83      1.0000 0.89310  0.43380  0.36250  Biso   1.000  H
  C105     1.0000 0.95930  0.36670  0.31340  Biso   1.000  C
  H84      1.0000 0.00640  0.41210  0.33680  Biso   1.000  H
  C106     1.0000 0.96200  0.28870  0.26390  Biso   1.000  C
  C107     1.0000 0.88880  0.21760  0.23310  Biso   1.000  C
  H85      1.0000 0.88720  0.16110  0.20170  Biso   1.000  H
  C108     1.0000 0.82170  0.23020  0.24830  Biso   1.000  C
  H86      1.0000 0.77570  0.18230  0.22600  Biso   1.000  H
  C109     1.0000 0.31520  0.31930  0.22820  Biso   1.000  C
  H87      1.0000 0.33010  0.36060  0.26850  Biso   1.000  H
  C110     1.0000 0.32420  0.23690  0.14500  Biso   1.000  C
  H88      1.0000 0.34520  0.20820  0.11500  Biso   1.000  H
  C111     1.0000 0.24630  0.22500  0.13900  Biso   1.000  C
  H89      1.0000 0.20370  0.18700  0.10350  Biso   1.000  H
  C112     1.0000 0.17130  0.28420  0.21110  Biso   1.000  C
  C113     1.0000 0.17230  0.34740  0.26450  Biso   1.000  C
  H90      1.0000 0.21960  0.39070  0.29030  Biso   1.000  H
  C114     1.0000 0.10640  0.34850  0.28090  Biso   1.000  C
  H91      1.0000 0.10980  0.39550  0.31690  Biso   1.000  H
  C115     1.0000 0.03230  0.28340  0.24710  Biso   1.000  C
  C116     1.0000 0.03160  0.22070  0.19240  Biso   1.000  C
  H92      1.0000 0.98410  0.17750  0.16700  Biso   1.000  H
  C117     1.0000 0.09700  0.21870  0.17350  Biso   1.000  C
  H93      1.0000 0.09310  0.17480  0.13620  Biso   1.000  H
  Cu7      1.0000 0.50519  0.60265  0.05737  Biso   1.000  Cu
  Cu8      1.0000 0.50835  0.82532  0.25466  Biso   1.000  Cu
  N25      1.0000 0.25440  0.63960  0.01410  Biso   1.000  N
  N26      1.0000 0.38440  0.62460  0.02240  Biso   1.000  N
  N27      1.0000 0.76060  0.58610  0.12260  Biso   1.000  N
  N28      1.0000 0.62890  0.58760  0.10500  Biso   1.000  N
  N29      1.0000 0.25190  0.83030  0.19150  Biso   1.000  N
  N30      1.0000 0.38530  0.84230  0.20940  Biso   1.000  N
  N31      1.0000 0.76230  0.77770  0.30660  Biso   1.000  N
  N32      1.0000 0.63230  0.79800  0.29790  Biso   1.000  N
  O19      1.0000 0.50790  0.75290  0.15170  Biso   1.000  O
  O20      1.0000 0.51810  0.77600  0.05370  Biso   1.000  O
  O21      1.0000 0.51090  0.91880  0.35110  Biso   1.000  O
  O22      1.0000 0.50610  0.92910  0.45150  Biso   1.000  O
  O23      1.0000 0.52620  0.98070  0.22020  Biso   1.000  O
  O24      1.0000 0.51160  0.17270  0.21060  Biso   1.000  O
  C118     1.0000 0.51230  0.81230  0.10710  Biso   1.000  C
  H94      1.0000 0.51140  0.89280  0.11240  Biso   1.000  H
  C119     1.0000 0.51120  0.87320  0.40230  Biso   1.000  C
  H95      1.0000 0.51550  0.79220  0.40560  Biso   1.000  H
  C120     1.0000 0.50270  0.07870  0.23540  Biso   1.000  C
  H96      1.0000 0.47820  0.07920  0.26600  Biso   1.000  H
  C121     1.0000 0.33370  0.59920  0.04900  Biso   1.000  C
  H97      1.0000 0.34960  0.55660  0.08900  Biso   1.000  H
  C122     1.0000 0.33560  0.68470  0.96360  Biso   1.000  C
  H98      1.0000 0.35380  0.71360  0.93190  Biso   1.000  H
  C123     1.0000 0.25910  0.69430  0.96010  Biso   1.000  C
  H99      1.0000 0.21510  0.73260  0.92600  Biso   1.000  H
  C124     1.0000 0.18730  0.63190  0.03180  Biso   1.000  C
  C125     1.0000 0.12140  0.70760  0.00470  Biso   1.000  C
  H100     1.0000 0.12210  0.76360  0.97380  Biso   1.000  H
  C126     1.0000 0.05560  0.70350  0.02140  Biso   1.000  C
  H101     1.0000 0.01430  0.76030  0.00400  Biso   1.000  H
  C127     1.0000 0.04680  0.61680  0.06420  Biso   1.000  C
  C128     1.0000 0.11300  0.53950  0.08850  Biso   1.000  C
  H102     1.0000 0.11120  0.47860  0.11620  Biso   1.000  H
  C129     1.0000 0.18090  0.54860  0.07350  Biso   1.000  C
  H103     1.0000 0.22440  0.49540  0.09280  Biso   1.000  H
  C130     1.0000 0.68090  0.60710  0.07870  Biso   1.000  C
  H104     1.0000 0.66550  0.63280  0.03440  Biso   1.000  H
  C131     1.0000 0.67530  0.55040  0.17160  Biso   1.000  C
  H105     1.0000 0.65490  0.53180  0.20370  Biso   1.000  H
  C132     1.0000 0.75520  0.54720  0.17990  Biso   1.000  C
  H106     1.0000 0.80000  0.52220  0.21890  Biso   1.000  H
  C133     1.0000 0.82990  0.59540  0.10800  Biso   1.000  C
  C134     1.0000 0.83530  0.67870  0.06470  Biso   1.000  C
  H107     1.0000 0.79190  0.73180  0.04470  Biso   1.000  H
  C135     1.0000 0.90450  0.68440  0.05060  Biso   1.000  C
  H108     1.0000 0.90570  0.74130  0.02040  Biso   1.000  H
  C136     1.0000 0.97390  0.60860  0.07950  Biso   1.000  C
  C137     1.0000 0.96690  0.52760  0.12480  Biso   1.000  C
  H109     1.0000 0.01090  0.47610  0.14640  Biso   1.000  H
  C138     1.0000 0.89770  0.52020  0.13910  Biso   1.000  C
  H110     1.0000 0.89620  0.46450  0.16980  Biso   1.000  H
  C139     1.0000 0.33310  0.80440  0.23220  Biso   1.000  C
  H111     1.0000 0.34910  0.76320  0.27260  Biso   1.000  H
  C140     1.0000 0.25780  0.89300  0.13890  Biso   1.000  C
  H112     1.0000 0.21370  0.92690  0.10260  Biso   1.000  H
  C141     1.0000 0.33860  0.89590  0.14980  Biso   1.000  C
  H113     1.0000 0.35950  0.92940  0.12090  Biso   1.000  H
  C142     1.0000 0.18260  0.80990  0.20510  Biso   1.000  C
  C143     1.0000 0.10880  0.88020  0.17030  Biso   1.000  C
  H114     1.0000 0.10690  0.93380  0.13750  Biso   1.000  H
  C144     1.0000 0.04070  0.86670  0.18660  Biso   1.000  C
  H115     1.0000 0.99360  0.91210  0.16320  Biso   1.000  H
  C145     1.0000 0.03800  0.78870  0.23610  Biso   1.000  C
  C146     1.0000 0.11120  0.71760  0.26690  Biso   1.000  C
  H116     1.0000 0.11280  0.66110  0.29830  Biso   1.000  H
  C147     1.0000 0.17830  0.73020  0.25170  Biso   1.000  C
  H117     1.0000 0.22430  0.68230  0.27400  Biso   1.000  H
  C148     1.0000 0.68480  0.81930  0.27180  Biso   1.000  C
  H118     1.0000 0.66990  0.86060  0.23150  Biso   1.000  H
  C149     1.0000 0.67580  0.73690  0.35500  Biso   1.000  C
  H119     1.0000 0.65480  0.70820  0.38500  Biso   1.000  H
  C150     1.0000 0.75370  0.72500  0.36100  Biso   1.000  C
  H120     1.0000 0.79630  0.68700  0.39650  Biso   1.000  H
  C151     1.0000 0.82870  0.78420  0.28890  Biso   1.000  C
  C152     1.0000 0.82770  0.84740  0.23550  Biso   1.000  C
  H121     1.0000 0.78040  0.89070  0.20970  Biso   1.000  H
  C153     1.0000 0.89360  0.84850  0.21910  Biso   1.000  C
  H122     1.0000 0.89020  0.89550  0.18310  Biso   1.000  H
  C154     1.0000 0.96770  0.78340  0.25290  Biso   1.000  C
  C155     1.0000 0.96840  0.72070  0.30760  Biso   1.000  C
  H123     1.0000 0.01590  0.67750  0.33300  Biso   1.000  H
  C156     1.0000 0.90300  0.71870  0.32650  Biso   1.000  C
  H124     1.0000 0.90690  0.67480  0.36380  Biso   1.000  H
