data_image0
_cell_length_a       7.779
_cell_length_b       14.855
_cell_length_c       15.339
_cell_angle_alpha    90
_cell_angle_beta     90
_cell_angle_gamma    98.631

_symmetry_space_group_name_H-M    P 1
_symmetry_int_tables_number       1

loop_
  _symmetry_equiv_pos_as_xyz
  'x, y, z'

loop_
  _atom_site_label
  _atom_site_occupancy
  _atom_site_fract_x
  _atom_site_fract_y
  _atom_site_fract_z
  _atom_site_thermal_displace_type
  _atom_site_B_iso_or_equiv
  _atom_site_type_symbol
  Ca1      1.0000 0.54889  0.22053  0.71929  Biso   1.000  Ca
  Ca2      1.0000 0.95111  0.77947  0.21929  Biso   1.000  Ca
  Ca3      1.0000 0.45111  0.77947  0.28071  Biso   1.000  Ca
  Ca4      1.0000 0.04889  0.22053  0.78071  Biso   1.000  Ca
  H1       1.0000 0.77250  0.04290  0.94670  Biso   1.000  H
  H2       1.0000 0.76170  0.13900  0.98590  Biso   1.000  H
  H3       1.0000 0.53870  0.91220  0.98250  Biso   1.000  H
  H4       1.0000 0.40890  0.95960  0.92720  Biso   1.000  H
  H5       1.0000 0.30040  0.37890  0.95830  Biso   1.000  H
  H6       1.0000 0.46170  0.34290  0.99890  Biso   1.000  H
  H7       1.0000 0.48640  0.51110  0.90870  Biso   1.000  H
  H8       1.0000 0.64380  0.47550  0.95400  Biso   1.000  H
  H9       1.0000 0.49600  0.61000  0.38100  Biso   1.000  H
  H10      1.0000 0.63500  0.66900  0.37800  Biso   1.000  H
  H11      1.0000 0.27000  0.89180  0.37600  Biso   1.000  H
  H12      1.0000 0.41500  0.94700  0.38600  Biso   1.000  H
  H13      1.0000 0.72750  0.95710  0.44670  Biso   1.000  H
  H14      1.0000 0.73830  0.86100  0.48590  Biso   1.000  H
  H15      1.0000 0.96130  0.08780  0.48250  Biso   1.000  H
  H16      1.0000 0.09110  0.04040  0.42720  Biso   1.000  H
  H17      1.0000 0.19960  0.62110  0.45830  Biso   1.000  H
  H18      1.0000 0.03830  0.65710  0.49890  Biso   1.000  H
  H19      1.0000 0.01360  0.48890  0.40870  Biso   1.000  H
  H20      1.0000 0.85620  0.52450  0.45400  Biso   1.000  H
  H21      1.0000 0.00400  0.39000  0.88100  Biso   1.000  H
  H22      1.0000 0.86500  0.33100  0.87800  Biso   1.000  H
  H23      1.0000 0.23000  0.10820  0.87600  Biso   1.000  H
  H24      1.0000 0.08500  0.05300  0.88600  Biso   1.000  H
  H25      1.0000 0.22750  0.95710  0.05330  Biso   1.000  H
  H26      1.0000 0.23830  0.86100  0.01410  Biso   1.000  H
  H27      1.0000 0.46130  0.08780  0.01750  Biso   1.000  H
  H28      1.0000 0.59110  0.04040  0.07280  Biso   1.000  H
  H29      1.0000 0.69960  0.62110  0.04170  Biso   1.000  H
  H30      1.0000 0.53830  0.65710  0.00110  Biso   1.000  H
  H31      1.0000 0.51360  0.48890  0.09130  Biso   1.000  H
  H32      1.0000 0.35620  0.52450  0.04600  Biso   1.000  H
  H33      1.0000 0.50400  0.39000  0.61900  Biso   1.000  H
  H34      1.0000 0.36500  0.33100  0.62200  Biso   1.000  H
  H35      1.0000 0.73000  0.10820  0.62400  Biso   1.000  H
  H36      1.0000 0.58500  0.05300  0.61400  Biso   1.000  H
  H37      1.0000 0.27250  0.04290  0.55330  Biso   1.000  H
  H38      1.0000 0.26170  0.13900  0.51410  Biso   1.000  H
  H39      1.0000 0.03870  0.91220  0.51750  Biso   1.000  H
  H40      1.0000 0.90890  0.95960  0.57280  Biso   1.000  H
  H41      1.0000 0.80040  0.37890  0.54170  Biso   1.000  H
  H42      1.0000 0.96170  0.34290  0.50110  Biso   1.000  H
  H43      1.0000 0.98640  0.51110  0.59130  Biso   1.000  H
  H44      1.0000 0.14380  0.47550  0.54600  Biso   1.000  H
  H45      1.0000 0.99600  0.61000  0.11900  Biso   1.000  H
  H46      1.0000 0.13500  0.66900  0.12200  Biso   1.000  H
  H47      1.0000 0.77000  0.89180  0.12400  Biso   1.000  H
  H48      1.0000 0.91500  0.94700  0.11400  Biso   1.000  H
  C1       1.0000 0.64660  0.12021  0.86813  Biso   1.000  C
  C2       1.0000 0.69570  0.08792  0.95540  Biso   1.000  C
  C3       1.0000 0.54600  0.04619  0.01448  Biso   1.000  C
  C4       1.0000 0.45410  0.33156  0.86628  Biso   1.000  C
  C5       1.0000 0.42410  0.37821  0.95130  Biso   1.000  C
  C6       1.0000 0.51960  0.47632  0.95780  Biso   1.000  C
  C7       1.0000 0.85340  0.87979  0.36813  Biso   1.000  C
  C8       1.0000 0.80430  0.91208  0.45540  Biso   1.000  C
  C9       1.0000 0.95400  0.95381  0.51448  Biso   1.000  C
  C10      1.0000 0.04590  0.66844  0.36628  Biso   1.000  C
  C11      1.0000 0.07590  0.62179  0.45130  Biso   1.000  C
  C12      1.0000 0.98040  0.52368  0.45780  Biso   1.000  C
  C13      1.0000 0.35340  0.87979  0.13187  Biso   1.000  C
  C14      1.0000 0.30430  0.91208  0.04460  Biso   1.000  C
  C15      1.0000 0.45400  0.95381  0.98552  Biso   1.000  C
  C16      1.0000 0.54590  0.66844  0.13372  Biso   1.000  C
  C17      1.0000 0.57590  0.62179  0.04870  Biso   1.000  C
  C18      1.0000 0.48040  0.52368  0.04220  Biso   1.000  C
  C19      1.0000 0.14660  0.12021  0.63187  Biso   1.000  C
  C20      1.0000 0.19570  0.08792  0.54460  Biso   1.000  C
  C21      1.0000 0.04600  0.04619  0.48552  Biso   1.000  C
  C22      1.0000 0.95410  0.33156  0.63372  Biso   1.000  C
  C23      1.0000 0.92410  0.37821  0.54870  Biso   1.000  C
  C24      1.0000 0.01960  0.47632  0.54220  Biso   1.000  C
  O1       1.0000 0.76640  0.15002  0.81530  Biso   1.000  O
  O2       1.0000 0.48930  0.11907  0.84772  Biso   1.000  O
  O3       1.0000 0.60910  0.33040  0.84180  Biso   1.000  O
  O4       1.0000 0.32740  0.29559  0.82138  Biso   1.000  O
  O5       1.0000 0.54470  0.67096  0.38282  Biso   1.000  O
  O6       1.0000 0.36240  0.88928  0.38214  Biso   1.000  O
  O7       1.0000 0.73360  0.84998  0.31530  Biso   1.000  O
  O8       1.0000 0.01070  0.88093  0.34772  Biso   1.000  O
  O9       1.0000 0.89090  0.66960  0.34180  Biso   1.000  O
  O10      1.0000 0.17260  0.70441  0.32138  Biso   1.000  O
  O11      1.0000 0.95530  0.32904  0.88282  Biso   1.000  O
  O12      1.0000 0.13760  0.11072  0.88214  Biso   1.000  O
  O13      1.0000 0.23360  0.84998  0.18470  Biso   1.000  O
  O14      1.0000 0.51070  0.88093  0.15228  Biso   1.000  O
  O15      1.0000 0.39090  0.66960  0.15820  Biso   1.000  O
  O16      1.0000 0.67260  0.70441  0.17862  Biso   1.000  O
  O17      1.0000 0.45530  0.32904  0.61718  Biso   1.000  O
  O18      1.0000 0.63760  0.11072  0.61786  Biso   1.000  O
  O19      1.0000 0.26640  0.15002  0.68470  Biso   1.000  O
  O20      1.0000 0.98930  0.11907  0.65228  Biso   1.000  O
  O21      1.0000 0.10910  0.33040  0.65820  Biso   1.000  O
  O22      1.0000 0.82740  0.29559  0.67862  Biso   1.000  O
  O23      1.0000 0.04470  0.67096  0.11718  Biso   1.000  O
  O24      1.0000 0.86240  0.88928  0.11786  Biso   1.000  O
