data_image0
_cell_length_a       7.7536
_cell_length_b       15.0736
_cell_length_c       16.8008
_cell_angle_alpha    90
_cell_angle_beta     99.799
_cell_angle_gamma    90

_symmetry_space_group_name_H-M    P 1
_symmetry_int_tables_number       1

loop_
  _symmetry_equiv_pos_as_xyz
  'x, y, z'

loop_
  _atom_site_label
  _atom_site_occupancy
  _atom_site_fract_x
  _atom_site_fract_y
  _atom_site_fract_z
  _atom_site_thermal_displace_type
  _atom_site_B_iso_or_equiv
  _atom_site_type_symbol
  Ca1      1.0000 0.50477  0.21911  0.24950  Biso   1.000  Ca
  Ca2      1.0000 0.99523  0.71911  0.75050  Biso   1.000  Ca
  Ca3      1.0000 0.49523  0.78089  0.75050  Biso   1.000  Ca
  Ca4      1.0000 0.00477  0.28089  0.24950  Biso   1.000  Ca
  H1       1.0000 0.61620  0.49280  0.13450  Biso   1.000  H
  H2       1.0000 0.73600  0.44010  0.08700  Biso   1.000  H
  H3       1.0000 0.62950  0.54340  0.96450  Biso   1.000  H
  H4       1.0000 0.51290  0.59230  0.01440  Biso   1.000  H
  H5       1.0000 0.37930  0.49370  0.36310  Biso   1.000  H
  H6       1.0000 0.27140  0.43810  0.41350  Biso   1.000  H
  H7       1.0000 0.63470  0.47310  0.45780  Biso   1.000  H
  H8       1.0000 0.54320  0.40980  0.50840  Biso   1.000  H
  H9       1.0000 0.69180  0.86960  0.64720  Biso   1.000  H
  H10      1.0000 0.53690  0.86420  0.59850  Biso   1.000  H
  H11      1.0000 0.30020  0.86930  0.85530  Biso   1.000  H
  H12      1.0000 0.45890  0.86980  0.90120  Biso   1.000  H
  H13      1.0000 0.88380  0.99280  0.86550  Biso   1.000  H
  H14      1.0000 0.76400  0.94010  0.91300  Biso   1.000  H
  H15      1.0000 0.87050  0.04340  0.03550  Biso   1.000  H
  H16      1.0000 0.98710  0.09230  0.98560  Biso   1.000  H
  H17      1.0000 0.12070  0.99370  0.63690  Biso   1.000  H
  H18      1.0000 0.22860  0.93810  0.58650  Biso   1.000  H
  H19      1.0000 0.86530  0.97310  0.54220  Biso   1.000  H
  H20      1.0000 0.95680  0.90980  0.49160  Biso   1.000  H
  H21      1.0000 0.80820  0.36960  0.35280  Biso   1.000  H
  H22      1.0000 0.96310  0.36420  0.40150  Biso   1.000  H
  H23      1.0000 0.19980  0.36930  0.14470  Biso   1.000  H
  H24      1.0000 0.04110  0.36980  0.09880  Biso   1.000  H
  H25      1.0000 0.38380  0.50720  0.86550  Biso   1.000  H
  H26      1.0000 0.26400  0.55990  0.91300  Biso   1.000  H
  H27      1.0000 0.37050  0.45660  0.03550  Biso   1.000  H
  H28      1.0000 0.48710  0.40770  0.98560  Biso   1.000  H
  H29      1.0000 0.62070  0.50630  0.63690  Biso   1.000  H
  H30      1.0000 0.72860  0.56190  0.58650  Biso   1.000  H
  H31      1.0000 0.36530  0.52690  0.54220  Biso   1.000  H
  H32      1.0000 0.45680  0.59020  0.49160  Biso   1.000  H
  H33      1.0000 0.30820  0.13040  0.35280  Biso   1.000  H
  H34      1.0000 0.46310  0.13580  0.40150  Biso   1.000  H
  H35      1.0000 0.69980  0.13070  0.14470  Biso   1.000  H
  H36      1.0000 0.54110  0.13020  0.09880  Biso   1.000  H
  H37      1.0000 0.11620  0.00720  0.13450  Biso   1.000  H
  H38      1.0000 0.23600  0.05990  0.08700  Biso   1.000  H
  H39      1.0000 0.12950  0.95660  0.96450  Biso   1.000  H
  H40      1.0000 0.01290  0.90770  0.01440  Biso   1.000  H
  H41      1.0000 0.87930  0.00630  0.36310  Biso   1.000  H
  H42      1.0000 0.77140  0.06190  0.41350  Biso   1.000  H
  H43      1.0000 0.13470  0.02690  0.45780  Biso   1.000  H
  H44      1.0000 0.04320  0.09020  0.50840  Biso   1.000  H
  H45      1.0000 0.19180  0.63040  0.64720  Biso   1.000  H
  H46      1.0000 0.03690  0.63580  0.59850  Biso   1.000  H
  H47      1.0000 0.80020  0.63070  0.85530  Biso   1.000  H
  H48      1.0000 0.95890  0.63020  0.90120  Biso   1.000  H
  C1       1.0000 0.58984  0.36197  0.14754  Biso   1.000  C
  C2       1.0000 0.61902  0.44353  0.09851  Biso   1.000  C
  C3       1.0000 0.48571  0.45694  0.02175  Biso   1.000  C
  C4       1.0000 0.41810  0.36326  0.35059  Biso   1.000  C
  C5       1.0000 0.38609  0.44455  0.39990  Biso   1.000  C
  C6       1.0000 0.52449  0.46147  0.47455  Biso   1.000  C
  C7       1.0000 0.91016  0.86197  0.85246  Biso   1.000  C
  C8       1.0000 0.88098  0.94353  0.90149  Biso   1.000  C
  C9       1.0000 0.01429  0.95694  0.97825  Biso   1.000  C
  C10      1.0000 0.08190  0.86326  0.64941  Biso   1.000  C
  C11      1.0000 0.11391  0.94455  0.60010  Biso   1.000  C
  C12      1.0000 0.97551  0.96147  0.52545  Biso   1.000  C
  C13      1.0000 0.41016  0.63803  0.85246  Biso   1.000  C
  C14      1.0000 0.38098  0.55647  0.90149  Biso   1.000  C
  C15      1.0000 0.51429  0.54306  0.97825  Biso   1.000  C
  C16      1.0000 0.58190  0.63674  0.64941  Biso   1.000  C
  C17      1.0000 0.61391  0.55545  0.60010  Biso   1.000  C
  C18      1.0000 0.47551  0.53853  0.52545  Biso   1.000  C
  C19      1.0000 0.08984  0.13803  0.14754  Biso   1.000  C
  C20      1.0000 0.11902  0.05647  0.09851  Biso   1.000  C
  C21      1.0000 0.98571  0.04306  0.02175  Biso   1.000  C
  C22      1.0000 0.91810  0.13674  0.35059  Biso   1.000  C
  C23      1.0000 0.88609  0.05545  0.39990  Biso   1.000  C
  C24      1.0000 0.02449  0.03853  0.47455  Biso   1.000  C
  O1       1.0000 0.43701  0.33237  0.14428  Biso   1.000  O
  O2       1.0000 0.71919  0.32674  0.19169  Biso   1.000  O
  O3       1.0000 0.28984  0.32718  0.30662  Biso   1.000  O
  O4       1.0000 0.57193  0.33461  0.35421  Biso   1.000  O
  O5       1.0000 0.58250  0.87215  0.64770  Biso   1.000  O
  O6       1.0000 0.40800  0.87493  0.85241  Biso   1.000  O
  O7       1.0000 0.06299  0.83237  0.85572  Biso   1.000  O
  O8       1.0000 0.78081  0.82674  0.80831  Biso   1.000  O
  O9       1.0000 0.21016  0.82718  0.69338  Biso   1.000  O
  O10      1.0000 0.92807  0.83461  0.64579  Biso   1.000  O
  O11      1.0000 0.91750  0.37215  0.35230  Biso   1.000  O
  O12      1.0000 0.09200  0.37493  0.14759  Biso   1.000  O
  O13      1.0000 0.56299  0.66763  0.85572  Biso   1.000  O
  O14      1.0000 0.28081  0.67326  0.80831  Biso   1.000  O
  O15      1.0000 0.71016  0.67282  0.69338  Biso   1.000  O
  O16      1.0000 0.42807  0.66539  0.64579  Biso   1.000  O
  O17      1.0000 0.41750  0.12785  0.35230  Biso   1.000  O
  O18      1.0000 0.59200  0.12507  0.14759  Biso   1.000  O
  O19      1.0000 0.93701  0.16763  0.14428  Biso   1.000  O
  O20      1.0000 0.21919  0.17326  0.19169  Biso   1.000  O
  O21      1.0000 0.78984  0.17282  0.30662  Biso   1.000  O
  O22      1.0000 0.07193  0.16539  0.35421  Biso   1.000  O
  O23      1.0000 0.08250  0.62785  0.64770  Biso   1.000  O
  O24      1.0000 0.90800  0.62507  0.85241  Biso   1.000  O
