data_image0
_cell_length_a       10.099
_cell_length_b       14.363
_cell_length_c       12.975
_cell_angle_alpha    90
_cell_angle_beta     105.69
_cell_angle_gamma    90

_symmetry_space_group_name_H-M    "P 1"
_symmetry_int_tables_number       1

loop_
  _symmetry_equiv_pos_as_xyz
  'x, y, z'

loop_
  _atom_site_label
  _atom_site_occupancy
  _atom_site_fract_x
  _atom_site_fract_y
  _atom_site_fract_z
  _atom_site_thermal_displace_type
  _atom_site_B_iso_or_equiv
  _atom_site_type_symbol
  O1       1.0000 0.30370  0.09868  0.43160  Biso   1.000  O
  O2       1.0000 0.45270  0.44141  0.16760  Biso   1.000  O
  O3       1.0000 0.60040  0.36318  0.09690  Biso   1.000  O
  C1       1.0000 0.52990  0.37440  0.16260  Biso   1.000  C
  O4       1.0000 0.78120  0.04277  0.44280  Biso   1.000  O
  Cd1      1.0000 0.09120  0.06628  0.43947  Biso   1.000  Cd
  O5       1.0000 0.89520  0.13801  0.36200  Biso   1.000  O
  C2       1.0000 0.65520  0.24280  0.27710  Biso   1.000  C
  C3       1.0000 0.54440  0.14800  0.38020  Biso   1.000  C
  C4       1.0000 0.66120  0.16920  0.34720  Biso   1.000  C
  C5       1.0000 0.42260  0.27510  0.27780  Biso   1.000  C
  C6       1.0000 0.53720  0.29660  0.24260  Biso   1.000  C
  C7       1.0000 0.42520  0.19930  0.34490  Biso   1.000  C
  C8       1.0000 0.78980  0.11180  0.38700  Biso   1.000  C
  C9       1.0000 0.29620  0.16970  0.37410  Biso   1.000  C
  O6       1.0000 0.18900  0.21310  0.34090  Biso   1.000  O
  H1       1.0000 0.34400  0.31000  0.25500  Biso   1.000  H
  H2       1.0000 0.54300  0.09300  0.42700  Biso   1.000  H
  H3       1.0000 0.73000  0.25400  0.25300  Biso   1.000  H
  O7       1.0000 0.19630  0.59868  0.06840  Biso   1.000  O
  O8       1.0000 0.04730  0.94141  0.33240  Biso   1.000  O
  O9       1.0000 0.89960  0.86318  0.40310  Biso   1.000  O
  C10      1.0000 0.97010  0.87440  0.33740  Biso   1.000  C
  O10      1.0000 0.71880  0.54277  0.05720  Biso   1.000  O
  Cd2      1.0000 0.40880  0.56628  0.06053  Biso   1.000  Cd
  O11      1.0000 0.60480  0.63801  0.13800  Biso   1.000  O
  C11      1.0000 0.84480  0.74280  0.22290  Biso   1.000  C
  C12      1.0000 0.95560  0.64800  0.11980  Biso   1.000  C
  C13      1.0000 0.83880  0.66920  0.15280  Biso   1.000  C
  C14      1.0000 0.07740  0.77510  0.22220  Biso   1.000  C
  C15      1.0000 0.96280  0.79660  0.25740  Biso   1.000  C
  C16      1.0000 0.07480  0.69930  0.15510  Biso   1.000  C
  C17      1.0000 0.71020  0.61180  0.11300  Biso   1.000  C
  C18      1.0000 0.20380  0.66970  0.12590  Biso   1.000  C
  O12      1.0000 0.31100  0.71310  0.15910  Biso   1.000  O
  H4       1.0000 0.15600  0.81000  0.24500  Biso   1.000  H
  H5       1.0000 0.95700  0.59300  0.07300  Biso   1.000  H
  H6       1.0000 0.77000  0.75400  0.24700  Biso   1.000  H
  O13      1.0000 0.69630  0.90132  0.56840  Biso   1.000  O
  O14      1.0000 0.54730  0.55859  0.83240  Biso   1.000  O
  O15      1.0000 0.39960  0.63682  0.90310  Biso   1.000  O
  C19      1.0000 0.47010  0.62560  0.83740  Biso   1.000  C
  O16      1.0000 0.21880  0.95723  0.55720  Biso   1.000  O
  Cd3      1.0000 0.90880  0.93372  0.56053  Biso   1.000  Cd
  O17      1.0000 0.10480  0.86199  0.63800  Biso   1.000  O
  C20      1.0000 0.34480  0.75720  0.72290  Biso   1.000  C
  C21      1.0000 0.45560  0.85200  0.61980  Biso   1.000  C
  C22      1.0000 0.33880  0.83080  0.65280  Biso   1.000  C
  C23      1.0000 0.57740  0.72490  0.72220  Biso   1.000  C
  C24      1.0000 0.46280  0.70340  0.75740  Biso   1.000  C
  C25      1.0000 0.57480  0.80070  0.65510  Biso   1.000  C
  C26      1.0000 0.21020  0.88820  0.61300  Biso   1.000  C
  C27      1.0000 0.70380  0.83030  0.62590  Biso   1.000  C
  O18      1.0000 0.81100  0.78690  0.65910  Biso   1.000  O
  H7       1.0000 0.65600  0.69000  0.74500  Biso   1.000  H
  H8       1.0000 0.45700  0.90700  0.57300  Biso   1.000  H
  H9       1.0000 0.27000  0.74600  0.74700  Biso   1.000  H
  O19      1.0000 0.80370  0.40132  0.93160  Biso   1.000  O
  O20      1.0000 0.95270  0.05859  0.66760  Biso   1.000  O
  O21      1.0000 0.10040  0.13682  0.59690  Biso   1.000  O
  C28      1.0000 0.02990  0.12560  0.66260  Biso   1.000  C
  O22      1.0000 0.28120  0.45723  0.94280  Biso   1.000  O
  Cd4      1.0000 0.59120  0.43372  0.93947  Biso   1.000  Cd
  O23      1.0000 0.39520  0.36199  0.86200  Biso   1.000  O
  C29      1.0000 0.15520  0.25720  0.77710  Biso   1.000  C
  C30      1.0000 0.04440  0.35200  0.88020  Biso   1.000  C
  C31      1.0000 0.16120  0.33080  0.84720  Biso   1.000  C
  C32      1.0000 0.92260  0.22490  0.77780  Biso   1.000  C
  C33      1.0000 0.03720  0.20340  0.74260  Biso   1.000  C
  C34      1.0000 0.92520  0.30070  0.84490  Biso   1.000  C
  C35      1.0000 0.28980  0.38820  0.88700  Biso   1.000  C
  C36      1.0000 0.79620  0.33030  0.87410  Biso   1.000  C
  O24      1.0000 0.68900  0.28690  0.84090  Biso   1.000  O
  H10      1.0000 0.84400  0.19000  0.75500  Biso   1.000  H
  H11      1.0000 0.04300  0.40700  0.92700  Biso   1.000  H
  H12      1.0000 0.23000  0.24600  0.75300  Biso   1.000  H
