data_PARKUQ_charged
_audit_creation_date              2014-07-02
_audit_creation_method            'Materials Studio'
_symmetry_space_group_name_H-M    'P1'
_symmetry_Int_Tables_number       1
_symmetry_cell_setting            triclinic
loop_
_symmetry_equiv_pos_as_xyz
  x,y,z
_cell_length_a                    10.0957
_cell_length_b                    12.9606
_cell_length_c                    14.3518
_cell_angle_alpha                 90.0000
_cell_angle_beta                  90.0000
_cell_angle_gamma                 105.7700
loop_
_atom_site_label
_atom_site_type_symbol
_atom_site_fract_x
_atom_site_fract_y
_atom_site_fract_z
_atom_site_U_iso_or_equiv
_atom_site_adp_type
_atom_site_occupancy
Cd1    Cd    0.90877   0.06047   0.93377   0.01267  Uiso   1.00
Cd2    Cd    0.59123   0.43953   0.43377   0.01267  Uiso   1.00
Cd3    Cd    0.09123   0.93953   0.06623   0.01267  Uiso   1.00
Cd4    Cd    0.40877   0.56047   0.56623   0.01267  Uiso   1.00
H1     H     0.65580   0.24350   0.68810   0.01267  Uiso   1.00
H2     H     0.26810   0.24730   0.74320   0.01267  Uiso   1.00
H3     H     0.45330   0.07340   0.90170   0.01267  Uiso   1.00
H4     H     0.84420   0.25650   0.18810   0.01267  Uiso   1.00
H5     H     0.23190   0.25270   0.24320   0.01267  Uiso   1.00
H6     H     0.04670   0.42660   0.40170   0.01267  Uiso   1.00
H7     H     0.34420   0.75650   0.31190   0.01267  Uiso   1.00
H8     H     0.73190   0.75270   0.25680   0.01267  Uiso   1.00
H9     H     0.54670   0.92660   0.09830   0.01267  Uiso   1.00
H10    H     0.15580   0.74350   0.81190   0.01267  Uiso   1.00
H11    H     0.76810   0.74730   0.75680   0.01267  Uiso   1.00
H12    H     0.95330   0.57340   0.59830   0.01267  Uiso   1.00
C1     C     0.70430   0.12600   0.83000   0.01267  Uiso   1.00
C2     C     0.46990   0.33730   0.62580   0.01267  Uiso   1.00
C3     C     0.21070   0.11290   0.88790   0.01267  Uiso   1.00
C4     C     0.57540   0.15530   0.80050   0.01267  Uiso   1.00
C5     C     0.57720   0.22220   0.72480   0.01267  Uiso   1.00
C6     C     0.46260   0.25770   0.70320   0.01267  Uiso   1.00
C7     C     0.34460   0.22300   0.75690   0.01267  Uiso   1.00
C8     C     0.33900   0.15290   0.83054   0.01267  Uiso   1.00
C9     C     0.45580   0.11990   0.85201   0.01267  Uiso   1.00
C10    C     0.79570   0.37400   0.33000   0.01267  Uiso   1.00
C11    C     0.03010   0.16270   0.12580   0.01267  Uiso   1.00
C12    C     0.28930   0.38710   0.38790   0.01267  Uiso   1.00
C13    C     0.92460   0.34470   0.30050   0.01267  Uiso   1.00
C14    C     0.92280   0.27780   0.22480   0.01267  Uiso   1.00
C15    C     0.03740   0.24230   0.20320   0.01267  Uiso   1.00
C16    C     0.15540   0.27700   0.25690   0.01267  Uiso   1.00
C17    C     0.16100   0.34710   0.33054   0.01267  Uiso   1.00
C18    C     0.04420   0.38010   0.35201   0.01267  Uiso   1.00
C19    C     0.29570   0.87400   0.17000   0.01267  Uiso   1.00
C20    C     0.53010   0.66270   0.37420   0.01267  Uiso   1.00
C21    C     0.78930   0.88710   0.11210   0.01267  Uiso   1.00
C22    C     0.42460   0.84470   0.19950   0.01267  Uiso   1.00
C23    C     0.42280   0.77780   0.27520   0.01267  Uiso   1.00
C24    C     0.53740   0.74230   0.29680   0.01267  Uiso   1.00
C25    C     0.65540   0.77700   0.24310   0.01267  Uiso   1.00
C26    C     0.66100   0.84710   0.16946   0.01267  Uiso   1.00
C27    C     0.54420   0.88010   0.14799   0.01267  Uiso   1.00
C28    C     0.20430   0.62600   0.67000   0.01267  Uiso   1.00
C29    C     0.96990   0.83730   0.87420   0.01267  Uiso   1.00
C30    C     0.71070   0.61290   0.61210   0.01267  Uiso   1.00
C31    C     0.07540   0.65530   0.69950   0.01267  Uiso   1.00
C32    C     0.07720   0.72220   0.77520   0.01267  Uiso   1.00
C33    C     0.96260   0.75770   0.79680   0.01267  Uiso   1.00
C34    C     0.84460   0.72300   0.74310   0.01267  Uiso   1.00
C35    C     0.83900   0.65290   0.66946   0.01267  Uiso   1.00
C36    C     0.95580   0.61990   0.64799   0.01267  Uiso   1.00
O1     O     0.69610   0.06860   0.90148   0.01267  Uiso   1.00
O2     O     0.81050   0.15850   0.78680   0.01267  Uiso   1.00
O3     O     0.54700   0.33250   0.55832   0.01267  Uiso   1.00
O4     O     0.39940   0.40284   0.63665   0.01267  Uiso   1.00
O5     O     0.10430   0.13797   0.86183   0.01267  Uiso   1.00
O6     O     0.21890   0.05700   0.95689   0.01267  Uiso   1.00
O7     O     0.80390   0.43140   0.40148   0.01267  Uiso   1.00
O8     O     0.68950   0.34150   0.28680   0.01267  Uiso   1.00
O9     O     0.95300   0.16750   0.05832   0.01267  Uiso   1.00
O10    O     0.10060   0.09716   0.13665   0.01267  Uiso   1.00
O11    O     0.39570   0.36203   0.36183   0.01267  Uiso   1.00
O12    O     0.28110   0.44300   0.45689   0.01267  Uiso   1.00
O13    O     0.30390   0.93140   0.09852   0.01267  Uiso   1.00
O14    O     0.18950   0.84150   0.21320   0.01267  Uiso   1.00
O15    O     0.45300   0.66750   0.44168   0.01267  Uiso   1.00
O16    O     0.60060   0.59716   0.36335   0.01267  Uiso   1.00
O17    O     0.89570   0.86203   0.13817   0.01267  Uiso   1.00
O18    O     0.78110   0.94300   0.04311   0.01267  Uiso   1.00
O19    O     0.19610   0.56860   0.59852   0.01267  Uiso   1.00
O20    O     0.31050   0.65850   0.71320   0.01267  Uiso   1.00
O21    O     0.04700   0.83250   0.94168   0.01267  Uiso   1.00
O22    O     0.89940   0.90284   0.86335   0.01267  Uiso   1.00
O23    O     0.60430   0.63797   0.63817   0.01267  Uiso   1.00
O24    O     0.71890   0.55700   0.54311   0.01267  Uiso   1.00
H13    H     0.10080   0.29370   0.59580   0.01267  Uiso   1.00
H14    H     0.10470   0.40640   0.59320   0.01267  Uiso   1.00
H15    H     0.01410   0.40490   0.73670   0.01267  Uiso   1.00
H16    H     0.16250   0.38880   0.73570   0.01267  Uiso   1.00
H17    H     0.03400   0.28990   0.74890   0.01267  Uiso   1.00
H18    H     0.86660   0.24430   0.61180   0.01267  Uiso   1.00
H19    H     0.91530   0.30040   0.51620   0.01267  Uiso   1.00
H20    H     0.87160   0.36520   0.59740   0.01267  Uiso   1.00
C37    C     0.06820   0.35780   0.71830   0.01267  Uiso   1.00
C38    C     0.91560   0.31020   0.58250   0.01267  Uiso   1.00
N1     N     0.05880   0.34220   0.61660   0.01267  Uiso   1.00
H21    H     0.39920   0.20630   0.09580   0.01267  Uiso   1.00
H22    H     0.39530   0.09360   0.09320   0.01267  Uiso   1.00
H23    H     0.48590   0.09510   0.23670   0.01267  Uiso   1.00
H24    H     0.33750   0.11120   0.23570   0.01267  Uiso   1.00
H25    H     0.46600   0.21010   0.24890   0.01267  Uiso   1.00
H26    H     0.63340   0.25570   0.11180   0.01267  Uiso   1.00
H27    H     0.58470   0.19960   0.01620   0.01267  Uiso   1.00
H28    H     0.62840   0.13480   0.09740   0.01267  Uiso   1.00
C39    C     0.43180   0.14220   0.21830   0.01267  Uiso   1.00
C40    C     0.58440   0.18980   0.08250   0.01267  Uiso   1.00
N2     N     0.44120   0.15780   0.11660   0.01267  Uiso   1.00
H29    H     0.89920   0.70630   0.40420   0.01267  Uiso   1.00
H30    H     0.89530   0.59360   0.40680   0.01267  Uiso   1.00
H31    H     0.98590   0.59510   0.26330   0.01267  Uiso   1.00
H32    H     0.83750   0.61120   0.26430   0.01267  Uiso   1.00
H33    H     0.96600   0.71010   0.25110   0.01267  Uiso   1.00
H34    H     0.13340   0.75570   0.38820   0.01267  Uiso   1.00
H35    H     0.08470   0.69960   0.48380   0.01267  Uiso   1.00
H36    H     0.12840   0.63480   0.40260   0.01267  Uiso   1.00
C41    C     0.93180   0.64220   0.28170   0.01267  Uiso   1.00
C42    C     0.08440   0.68980   0.41750   0.01267  Uiso   1.00
N3     N     0.94120   0.65780   0.38340   0.01267  Uiso   1.00
H37    H     0.60080   0.79370   0.90420   0.01267  Uiso   1.00
H38    H     0.60470   0.90640   0.90680   0.01267  Uiso   1.00
H39    H     0.51410   0.90490   0.76330   0.01267  Uiso   1.00
H40    H     0.66250   0.88880   0.76430   0.01267  Uiso   1.00
H41    H     0.53400   0.78990   0.75110   0.01267  Uiso   1.00
H42    H     0.36660   0.74430   0.88820   0.01267  Uiso   1.00
H43    H     0.41530   0.80040   0.98380   0.01267  Uiso   1.00
H44    H     0.37160   0.86520   0.90260   0.01267  Uiso   1.00
C43    C     0.56820   0.85780   0.78170   0.01267  Uiso   1.00
C44    C     0.41560   0.81020   0.91750   0.01267  Uiso   1.00
N4     N     0.55880   0.84220   0.88340   0.01267  Uiso   1.00
