data_image0
_cell_length_a       8.3862
_cell_length_b       15.0363
_cell_length_c       15.0363
_cell_angle_alpha    90
_cell_angle_beta     90
_cell_angle_gamma    90

_symmetry_space_group_name_H-M    P 1
_symmetry_int_tables_number       1

loop_
  _symmetry_equiv_pos_as_xyz
  'x, y, z'

loop_
  _atom_site_label
  _atom_site_occupancy
  _atom_site_fract_x
  _atom_site_fract_y
  _atom_site_fract_z
  _atom_site_thermal_displace_type
  _atom_site_B_iso_or_equiv
  _atom_site_type_symbol
  Ni1      1.0000 0.00000  0.25580  0.25580  Biso   1.000  Ni
  Ni2      1.0000 0.50000  0.74420  0.74420  Biso   1.000  Ni
  Ni3      1.0000 0.25000  0.24420  0.75580  Biso   1.000  Ni
  Ni4      1.0000 0.75000  0.75580  0.24420  Biso   1.000  Ni
  H1       1.0000 0.17540  0.27420  0.07710  Biso   1.000  H
  H2       1.0000 0.06850  0.27380  0.93150  Biso   1.000  H
  H3       1.0000 0.75700  0.25800  0.86100  Biso   1.000  H
  H4       1.0000 0.43700  0.22100  0.05100  Biso   1.000  H
  H5       1.0000 0.63400  0.23100  0.16300  Biso   1.000  H
  H6       1.0000 0.67540  0.72580  0.92290  Biso   1.000  H
  H7       1.0000 0.56850  0.72620  0.06850  Biso   1.000  H
  H8       1.0000 0.25700  0.74200  0.13900  Biso   1.000  H
  H9       1.0000 0.93700  0.77900  0.94900  Biso   1.000  H
  H10      1.0000 0.13400  0.76900  0.83700  Biso   1.000  H
  H11      1.0000 0.42540  0.42290  0.77420  Biso   1.000  H
  H12      1.0000 0.31850  0.56850  0.77380  Biso   1.000  H
  H13      1.0000 0.00700  0.63900  0.75800  Biso   1.000  H
  H14      1.0000 0.68700  0.44900  0.72100  Biso   1.000  H
  H15      1.0000 0.88400  0.33700  0.73100  Biso   1.000  H
  H16      1.0000 0.92540  0.57710  0.22580  Biso   1.000  H
  H17      1.0000 0.81850  0.43150  0.22620  Biso   1.000  H
  H18      1.0000 0.50700  0.36100  0.24200  Biso   1.000  H
  H19      1.0000 0.18700  0.55100  0.27900  Biso   1.000  H
  H20      1.0000 0.38400  0.66300  0.26900  Biso   1.000  H
  H21      1.0000 0.07460  0.22580  0.57710  Biso   1.000  H
  H22      1.0000 0.18150  0.22620  0.43150  Biso   1.000  H
  H23      1.0000 0.49300  0.24200  0.36100  Biso   1.000  H
  H24      1.0000 0.81300  0.27900  0.55100  Biso   1.000  H
  H25      1.0000 0.61600  0.26900  0.66300  Biso   1.000  H
  H26      1.0000 0.57460  0.77420  0.42290  Biso   1.000  H
  H27      1.0000 0.68150  0.77380  0.56850  Biso   1.000  H
  H28      1.0000 0.99300  0.75800  0.63900  Biso   1.000  H
  H29      1.0000 0.31300  0.72100  0.44900  Biso   1.000  H
  H30      1.0000 0.11600  0.73100  0.33700  Biso   1.000  H
  H31      1.0000 0.82460  0.07710  0.27420  Biso   1.000  H
  H32      1.0000 0.93150  0.93150  0.27380  Biso   1.000  H
  H33      1.0000 0.24300  0.86100  0.25800  Biso   1.000  H
  H34      1.0000 0.56300  0.05100  0.22100  Biso   1.000  H
  H35      1.0000 0.36600  0.16300  0.23100  Biso   1.000  H
  H36      1.0000 0.32460  0.92290  0.72580  Biso   1.000  H
  H37      1.0000 0.43150  0.06850  0.72620  Biso   1.000  H
  H38      1.0000 0.74300  0.13900  0.74200  Biso   1.000  H
  H39      1.0000 0.06300  0.94900  0.77900  Biso   1.000  H
  H40      1.0000 0.86600  0.83700  0.76900  Biso   1.000  H
  C1       1.0000 0.44810  0.24100  0.87770  Biso   1.000  C
  C2       1.0000 0.57900  0.24220  0.94480  Biso   1.000  C
  C3       1.0000 0.54250  0.23300  0.03600  Biso   1.000  C
  C4       1.0000 0.65780  0.23730  0.10110  Biso   1.000  C
  C5       1.0000 0.81570  0.25130  0.07420  Biso   1.000  C
  C6       1.0000 0.84980  0.25680  0.98350  Biso   1.000  C
  C7       1.0000 0.73390  0.25300  0.91820  Biso   1.000  C
  C8       1.0000 0.06790  0.26860  0.06290  Biso   1.000  C
  C9       1.0000 0.94810  0.75900  0.12230  Biso   1.000  C
  C10      1.0000 0.07900  0.75780  0.05520  Biso   1.000  C
  C11      1.0000 0.04250  0.76700  0.96400  Biso   1.000  C
  C12      1.0000 0.15780  0.76270  0.89890  Biso   1.000  C
  C13      1.0000 0.31570  0.74870  0.92580  Biso   1.000  C
  C14      1.0000 0.34980  0.74320  0.01650  Biso   1.000  C
  C15      1.0000 0.23390  0.74700  0.08180  Biso   1.000  C
  C16      1.0000 0.56790  0.73140  0.93710  Biso   1.000  C
  C17      1.0000 0.69810  0.62230  0.74100  Biso   1.000  C
  C18      1.0000 0.82900  0.55520  0.74220  Biso   1.000  C
  C19      1.0000 0.79250  0.46400  0.73300  Biso   1.000  C
  C20      1.0000 0.90780  0.39890  0.73730  Biso   1.000  C
  C21      1.0000 0.06570  0.42580  0.75130  Biso   1.000  C
  C22      1.0000 0.09980  0.51650  0.75680  Biso   1.000  C
  C23      1.0000 0.98390  0.58180  0.75300  Biso   1.000  C
  C24      1.0000 0.31790  0.43710  0.76860  Biso   1.000  C
  C25      1.0000 0.19810  0.37770  0.25900  Biso   1.000  C
  C26      1.0000 0.32900  0.44480  0.25780  Biso   1.000  C
  C27      1.0000 0.29250  0.53600  0.26700  Biso   1.000  C
  C28      1.0000 0.40780  0.60110  0.26270  Biso   1.000  C
  C29      1.0000 0.56570  0.57420  0.24870  Biso   1.000  C
  C30      1.0000 0.59980  0.48350  0.24320  Biso   1.000  C
  C31      1.0000 0.48390  0.41820  0.24700  Biso   1.000  C
  C32      1.0000 0.81790  0.56290  0.23140  Biso   1.000  C
  C33      1.0000 0.80190  0.25900  0.37770  Biso   1.000  C
  C34      1.0000 0.67100  0.25780  0.44480  Biso   1.000  C
  C35      1.0000 0.70750  0.26700  0.53600  Biso   1.000  C
  C36      1.0000 0.59220  0.26270  0.60110  Biso   1.000  C
  C37      1.0000 0.43430  0.24870  0.57420  Biso   1.000  C
  C38      1.0000 0.40020  0.24320  0.48350  Biso   1.000  C
  C39      1.0000 0.51610  0.24700  0.41820  Biso   1.000  C
  C40      1.0000 0.18210  0.23140  0.56290  Biso   1.000  C
  C41      1.0000 0.30190  0.74100  0.62230  Biso   1.000  C
  C42      1.0000 0.17100  0.74220  0.55520  Biso   1.000  C
  C43      1.0000 0.20750  0.73300  0.46400  Biso   1.000  C
  C44      1.0000 0.09220  0.73730  0.39890  Biso   1.000  C
  C45      1.0000 0.93430  0.75130  0.42580  Biso   1.000  C
  C46      1.0000 0.90020  0.75680  0.51650  Biso   1.000  C
  C47      1.0000 0.01610  0.75300  0.58180  Biso   1.000  C
  C48      1.0000 0.68210  0.76860  0.43710  Biso   1.000  C
  C49      1.0000 0.55190  0.87770  0.24100  Biso   1.000  C
  C50      1.0000 0.42100  0.94480  0.24220  Biso   1.000  C
  C51      1.0000 0.45750  0.03600  0.23300  Biso   1.000  C
  C52      1.0000 0.34220  0.10110  0.23730  Biso   1.000  C
  C53      1.0000 0.18430  0.07420  0.25130  Biso   1.000  C
  C54      1.0000 0.15020  0.98350  0.25680  Biso   1.000  C
  C55      1.0000 0.26610  0.91820  0.25300  Biso   1.000  C
  C56      1.0000 0.93210  0.06290  0.26860  Biso   1.000  C
  C57      1.0000 0.05190  0.12230  0.75900  Biso   1.000  C
  C58      1.0000 0.92100  0.05520  0.75780  Biso   1.000  C
  C59      1.0000 0.95750  0.96400  0.76700  Biso   1.000  C
  C60      1.0000 0.84220  0.89890  0.76270  Biso   1.000  C
  C61      1.0000 0.68430  0.92580  0.74870  Biso   1.000  C
  C62      1.0000 0.65020  0.01650  0.74320  Biso   1.000  C
  C63      1.0000 0.76610  0.08180  0.74700  Biso   1.000  C
  C64      1.0000 0.43210  0.93710  0.73140  Biso   1.000  C
  N1       1.0000 0.95540  0.26020  0.12252  Biso   1.000  N
  N2       1.0000 0.01260  0.26810  0.97910  Biso   1.000  N
  N3       1.0000 0.45540  0.73980  0.87748  Biso   1.000  N
  N4       1.0000 0.51260  0.73190  0.02090  Biso   1.000  N
  N5       1.0000 0.20540  0.37748  0.76020  Biso   1.000  N
  N6       1.0000 0.26260  0.52090  0.76810  Biso   1.000  N
  N7       1.0000 0.70540  0.62252  0.23980  Biso   1.000  N
  N8       1.0000 0.76260  0.47910  0.23190  Biso   1.000  N
  N9       1.0000 0.29460  0.23980  0.62252  Biso   1.000  N
  N10      1.0000 0.23740  0.23190  0.47910  Biso   1.000  N
  N11      1.0000 0.79460  0.76020  0.37748  Biso   1.000  N
  N12      1.0000 0.73740  0.76810  0.52090  Biso   1.000  N
  N13      1.0000 0.04460  0.12252  0.26020  Biso   1.000  N
  N14      1.0000 0.98740  0.97910  0.26810  Biso   1.000  N
  N15      1.0000 0.54460  0.87748  0.73980  Biso   1.000  N
  N16      1.0000 0.48740  0.02090  0.73190  Biso   1.000  N
  O1       1.0000 0.30480  0.23930  0.90034  Biso   1.000  O
  O2       1.0000 0.48470  0.24495  0.79588  Biso   1.000  O
  O3       1.0000 0.80480  0.76070  0.09966  Biso   1.000  O
  O4       1.0000 0.98470  0.75505  0.20412  Biso   1.000  O
  O5       1.0000 0.55480  0.59966  0.73930  Biso   1.000  O
  O6       1.0000 0.73470  0.70412  0.74495  Biso   1.000  O
  O7       1.0000 0.05480  0.40034  0.26070  Biso   1.000  O
  O8       1.0000 0.23470  0.29588  0.25505  Biso   1.000  O
  O9       1.0000 0.94520  0.26070  0.40034  Biso   1.000  O
  O10      1.0000 0.76530  0.25505  0.29588  Biso   1.000  O
  O11      1.0000 0.44520  0.73930  0.59966  Biso   1.000  O
  O12      1.0000 0.26530  0.74495  0.70412  Biso   1.000  O
  O13      1.0000 0.69520  0.90034  0.23930  Biso   1.000  O
  O14      1.0000 0.51530  0.79588  0.24495  Biso   1.000  O
  O15      1.0000 0.19520  0.09966  0.76070  Biso   1.000  O
  O16      1.0000 0.01530  0.20412  0.75505  Biso   1.000  O
