data_image0
_cell_length_a       16.1544
_cell_length_b       16.1544
_cell_length_c       21.82
_cell_angle_alpha    84.6006
_cell_angle_beta     84.6006
_cell_angle_gamma    60.4822

_symmetry_space_group_name_H-M    P 1
_symmetry_int_tables_number       1

loop_
  _symmetry_equiv_pos_as_xyz
  'x, y, z'

loop_
  _atom_site_label
  _atom_site_occupancy
  _atom_site_fract_x
  _atom_site_fract_y
  _atom_site_fract_z
  _atom_site_thermal_displace_type
  _atom_site_B_iso_or_equiv
  _atom_site_type_symbol
  Cu1      1.0000 0.49445  0.98977  0.81322  Biso   1.000  Cu
  Cu2      1.0000 0.46042  0.44122  0.50512  Biso   1.000  Cu
  Cu3      1.0000 0.51023  0.00555  0.68678  Biso   1.000  Cu
  Cu4      1.0000 0.05878  0.03958  0.99488  Biso   1.000  Cu
  Cu5      1.0000 0.50555  0.01023  0.18678  Biso   1.000  Cu
  Cu6      1.0000 0.53958  0.55878  0.49488  Biso   1.000  Cu
  Cu7      1.0000 0.48977  0.99445  0.31322  Biso   1.000  Cu
  Cu8      1.0000 0.94122  0.96042  0.00512  Biso   1.000  Cu
  H1       1.0000 0.73410  0.14810  0.86650  Biso   1.000  H
  H2       1.0000 0.65950  0.21410  0.63280  Biso   1.000  H
  H3       1.0000 0.80480  0.39660  0.78880  Biso   1.000  H
  H4       1.0000 0.19520  0.03640  0.82150  Biso   1.000  H
  H5       1.0000 0.03870  0.06310  0.81400  Biso   1.000  H
  H6       1.0000 0.54990  0.70830  0.65460  Biso   1.000  H
  H7       1.0000 0.59570  0.68670  0.83940  Biso   1.000  H
  H8       1.0000 0.21910  0.08490  0.63380  Biso   1.000  H
  H9       1.0000 0.91640  0.26320  0.85050  Biso   1.000  H
  H10      1.0000 0.79670  0.09350  0.68690  Biso   1.000  H
  H11      1.0000 0.06160  0.11780  0.62520  Biso   1.000  H
  H12      1.0000 0.60270  0.54130  0.65860  Biso   1.000  H
  H13      1.0000 0.78830  0.38310  0.60540  Biso   1.000  H
  H14      1.0000 0.91740  0.26920  0.66640  Biso   1.000  H
  H15      1.0000 0.65160  0.52020  0.84190  Biso   1.000  H
  H16      1.0000 0.44990  0.86130  0.89800  Biso   1.000  H
  H17      1.0000 0.42870  0.97530  0.02460  Biso   1.000  H
  H18      1.0000 0.45390  0.88530  0.07040  Biso   1.000  H
  H19      1.0000 0.34860  0.95400  0.05330  Biso   1.000  H
  H20      1.0000 0.37500  0.79360  0.04540  Biso   1.000  H
  H21      1.0000 0.45020  0.73940  0.99300  Biso   1.000  H
  H22      1.0000 0.34430  0.80850  0.97730  Biso   1.000  H
  H23      1.0000 0.35190  0.76590  0.63350  Biso   1.000  H
  H24      1.0000 0.28590  0.84050  0.86720  Biso   1.000  H
  H25      1.0000 0.10340  0.69520  0.71120  Biso   1.000  H
  H26      1.0000 0.46360  0.30480  0.67850  Biso   1.000  H
  H27      1.0000 0.43690  0.46130  0.68600  Biso   1.000  H
  H28      1.0000 0.79170  0.95010  0.84540  Biso   1.000  H
  H29      1.0000 0.81330  0.90430  0.66060  Biso   1.000  H
  H30      1.0000 0.41510  0.28090  0.86620  Biso   1.000  H
  H31      1.0000 0.23680  0.58360  0.64950  Biso   1.000  H
  H32      1.0000 0.40650  0.70330  0.81310  Biso   1.000  H
  H33      1.0000 0.38220  0.43840  0.87480  Biso   1.000  H
  H34      1.0000 0.95870  0.89730  0.84140  Biso   1.000  H
  H35      1.0000 0.11690  0.71170  0.89460  Biso   1.000  H
  H36      1.0000 0.23080  0.58260  0.83360  Biso   1.000  H
  H37      1.0000 0.97980  0.84840  0.65810  Biso   1.000  H
  H38      1.0000 0.63870  0.05010  0.60200  Biso   1.000  H
  H39      1.0000 0.52470  0.07130  0.47540  Biso   1.000  H
  H40      1.0000 0.61470  0.04610  0.42960  Biso   1.000  H
  H41      1.0000 0.54600  0.15140  0.44670  Biso   1.000  H
  H42      1.0000 0.70640  0.12500  0.45460  Biso   1.000  H
  H43      1.0000 0.76060  0.04980  0.50700  Biso   1.000  H
  H44      1.0000 0.69150  0.15570  0.52270  Biso   1.000  H
  H45      1.0000 0.26590  0.85190  0.13350  Biso   1.000  H
  H46      1.0000 0.34050  0.78590  0.36720  Biso   1.000  H
  H47      1.0000 0.19520  0.60340  0.21120  Biso   1.000  H
  H48      1.0000 0.80480  0.96360  0.17850  Biso   1.000  H
  H49      1.0000 0.96130  0.93690  0.18600  Biso   1.000  H
  H50      1.0000 0.45010  0.29170  0.34540  Biso   1.000  H
  H51      1.0000 0.40430  0.31330  0.16060  Biso   1.000  H
  H52      1.0000 0.78090  0.91510  0.36620  Biso   1.000  H
  H53      1.0000 0.08360  0.73680  0.14950  Biso   1.000  H
  H54      1.0000 0.20330  0.90650  0.31310  Biso   1.000  H
  H55      1.0000 0.93840  0.88220  0.37480  Biso   1.000  H
  H56      1.0000 0.39730  0.45870  0.34140  Biso   1.000  H
  H57      1.0000 0.21170  0.61690  0.39460  Biso   1.000  H
  H58      1.0000 0.08260  0.73080  0.33360  Biso   1.000  H
  H59      1.0000 0.34840  0.47980  0.15810  Biso   1.000  H
  H60      1.0000 0.55010  0.13870  0.10200  Biso   1.000  H
  H61      1.0000 0.57130  0.02470  0.97540  Biso   1.000  H
  H62      1.0000 0.54610  0.11470  0.92960  Biso   1.000  H
  H63      1.0000 0.65140  0.04600  0.94670  Biso   1.000  H
  H64      1.0000 0.62500  0.20640  0.95460  Biso   1.000  H
  H65      1.0000 0.54980  0.26060  0.00700  Biso   1.000  H
  H66      1.0000 0.65570  0.19150  0.02270  Biso   1.000  H
  H67      1.0000 0.64810  0.23410  0.36650  Biso   1.000  H
  H68      1.0000 0.71410  0.15950  0.13280  Biso   1.000  H
  H69      1.0000 0.89660  0.30480  0.28880  Biso   1.000  H
  H70      1.0000 0.53640  0.69520  0.32150  Biso   1.000  H
  H71      1.0000 0.56310  0.53870  0.31400  Biso   1.000  H
  H72      1.0000 0.20830  0.04990  0.15460  Biso   1.000  H
  H73      1.0000 0.18670  0.09570  0.33940  Biso   1.000  H
  H74      1.0000 0.58490  0.71910  0.13380  Biso   1.000  H
  H75      1.0000 0.76320  0.41640  0.35050  Biso   1.000  H
  H76      1.0000 0.59350  0.29670  0.18690  Biso   1.000  H
  H77      1.0000 0.61780  0.56160  0.12520  Biso   1.000  H
  H78      1.0000 0.04130  0.10270  0.15860  Biso   1.000  H
  H79      1.0000 0.88310  0.28830  0.10540  Biso   1.000  H
  H80      1.0000 0.76920  0.41740  0.16640  Biso   1.000  H
  H81      1.0000 0.02020  0.15160  0.34190  Biso   1.000  H
  H82      1.0000 0.36130  0.94990  0.39800  Biso   1.000  H
  H83      1.0000 0.47530  0.92870  0.52460  Biso   1.000  H
  H84      1.0000 0.38530  0.95390  0.57040  Biso   1.000  H
  H85      1.0000 0.45400  0.84860  0.55330  Biso   1.000  H
  H86      1.0000 0.29360  0.87500  0.54540  Biso   1.000  H
  H87      1.0000 0.23940  0.95020  0.49300  Biso   1.000  H
  H88      1.0000 0.30850  0.84430  0.47730  Biso   1.000  H
  C1       1.0000 0.57560  0.71380  0.74720  Biso   1.000  C
  C2       1.0000 0.54900  0.81880  0.74650  Biso   1.000  C
  C3       1.0000 0.22290  0.05970  0.72750  Biso   1.000  C
  C4       1.0000 0.74700  0.19880  0.85110  Biso   1.000  C
  C5       1.0000 0.62860  0.38260  0.57370  Biso   1.000  C
  C6       1.0000 0.68240  0.27660  0.81120  Biso   1.000  C
  C7       1.0000 0.71230  0.22410  0.63760  Biso   1.000  C
  C8       1.0000 0.62320  0.51820  0.74860  Biso   1.000  C
  C9       1.0000 0.83080  0.19580  0.86840  Biso   1.000  C
  C10      1.0000 0.79220  0.34560  0.80420  Biso   1.000  C
  C11      1.0000 0.70640  0.34900  0.78960  Biso   1.000  C
  C12      1.0000 0.70980  0.31180  0.61260  Biso   1.000  C
  C13      1.0000 0.16770  0.05270  0.78190  Biso   1.000  C
  C14      1.0000 0.07470  0.06870  0.77800  Biso   1.000  C
  C15      1.0000 0.57150  0.66990  0.69240  Biso   1.000  C
  C16      1.0000 0.03440  0.09400  0.71720  Biso   1.000  C
  C17      1.0000 0.59930  0.65730  0.80230  Biso   1.000  C
  C18      1.0000 0.32760  0.04060  0.73110  Biso   1.000  C
  C19      1.0000 0.18260  0.08160  0.67020  Biso   1.000  C
  C20      1.0000 0.85670  0.26910  0.84210  Biso   1.000  C
  C21      1.0000 0.79380  0.15280  0.67090  Biso   1.000  C
  C22      1.0000 0.87380  0.16920  0.67900  Biso   1.000  C
  C23      1.0000 0.89820  0.11720  0.91490  Biso   1.000  C
  C24      1.0000 0.08890  0.10010  0.66490  Biso   1.000  C
  C25      1.0000 0.60020  0.57120  0.69520  Biso   1.000  C
  C26      1.0000 0.78880  0.32560  0.62280  Biso   1.000  C
  C27      1.0000 0.86810  0.25610  0.65770  Biso   1.000  C
  C28      1.0000 0.62840  0.55980  0.80470  Biso   1.000  C
  C29      1.0000 0.44560  0.90080  0.92970  Biso   1.000  C
  C30      1.0000 0.41350  0.92550  0.03810  Biso   1.000  C
  C31      1.0000 0.39410  0.79810  0.00280  Biso   1.000  C
  C32      1.0000 0.78620  0.92440  0.75280  Biso   1.000  C
  C33      1.0000 0.68120  0.95100  0.75350  Biso   1.000  C
  C34      1.0000 0.44030  0.27710  0.77250  Biso   1.000  C
  C35      1.0000 0.30120  0.75300  0.64890  Biso   1.000  C
  C36      1.0000 0.11740  0.87140  0.92630  Biso   1.000  C
  C37      1.0000 0.22340  0.81760  0.68880  Biso   1.000  C
  C38      1.0000 0.27590  0.78770  0.86240  Biso   1.000  C
  C39      1.0000 0.98180  0.87680  0.75140  Biso   1.000  C
  C40      1.0000 0.30420  0.66920  0.63160  Biso   1.000  C
  C41      1.0000 0.15440  0.70780  0.69580  Biso   1.000  C
  C42      1.0000 0.15100  0.79360  0.71040  Biso   1.000  C
  C43      1.0000 0.18820  0.79020  0.88740  Biso   1.000  C
  C44      1.0000 0.44730  0.33230  0.71810  Biso   1.000  C
  C45      1.0000 0.43130  0.42530  0.72200  Biso   1.000  C
  C46      1.0000 0.83010  0.92850  0.80760  Biso   1.000  C
  C47      1.0000 0.40600  0.46560  0.78280  Biso   1.000  C
  C48      1.0000 0.84270  0.90070  0.69770  Biso   1.000  C
  C49      1.0000 0.45940  0.17240  0.76890  Biso   1.000  C
  C50      1.0000 0.41840  0.31740  0.82980  Biso   1.000  C
  C51      1.0000 0.23090  0.64330  0.65790  Biso   1.000  C
  C52      1.0000 0.34720  0.70620  0.82910  Biso   1.000  C
  C53      1.0000 0.33080  0.62620  0.82100  Biso   1.000  C
  C54      1.0000 0.38280  0.60180  0.58510  Biso   1.000  C
  C55      1.0000 0.39990  0.41110  0.83510  Biso   1.000  C
  C56      1.0000 0.92880  0.89980  0.80480  Biso   1.000  C
  C57      1.0000 0.17440  0.71120  0.87720  Biso   1.000  C
  C58      1.0000 0.24390  0.63190  0.84230  Biso   1.000  C
  C59      1.0000 0.94020  0.87160  0.69530  Biso   1.000  C
  C60      1.0000 0.59920  0.05440  0.57030  Biso   1.000  C
  C61      1.0000 0.57450  0.08650  0.46190  Biso   1.000  C
  C62      1.0000 0.70190  0.10590  0.49720  Biso   1.000  C
  C63      1.0000 0.42440  0.28620  0.25280  Biso   1.000  C
  C64      1.0000 0.45100  0.18120  0.25350  Biso   1.000  C
  C65      1.0000 0.77710  0.94030  0.27250  Biso   1.000  C
  C66      1.0000 0.25300  0.80120  0.14890  Biso   1.000  C
  C67      1.0000 0.37140  0.61740  0.42630  Biso   1.000  C
  C68      1.0000 0.31760  0.72340  0.18880  Biso   1.000  C
  C69      1.0000 0.28770  0.77590  0.36240  Biso   1.000  C
  C70      1.0000 0.37680  0.48180  0.25140  Biso   1.000  C
  C71      1.0000 0.16920  0.80420  0.13160  Biso   1.000  C
  C72      1.0000 0.20780  0.65440  0.19580  Biso   1.000  C
  C73      1.0000 0.29360  0.65100  0.21040  Biso   1.000  C
  C74      1.0000 0.29020  0.68820  0.38740  Biso   1.000  C
  C75      1.0000 0.83230  0.94730  0.21810  Biso   1.000  C
  C76      1.0000 0.92530  0.93130  0.22200  Biso   1.000  C
  C77      1.0000 0.42850  0.33010  0.30760  Biso   1.000  C
  C78      1.0000 0.96560  0.90600  0.28280  Biso   1.000  C
  C79      1.0000 0.40070  0.34270  0.19770  Biso   1.000  C
  C80      1.0000 0.67240  0.95940  0.26890  Biso   1.000  C
  C81      1.0000 0.81740  0.91840  0.32980  Biso   1.000  C
  C82      1.0000 0.14330  0.73090  0.15790  Biso   1.000  C
  C83      1.0000 0.20620  0.84720  0.32910  Biso   1.000  C
  C84      1.0000 0.12620  0.83080  0.32100  Biso   1.000  C
  C85      1.0000 0.10180  0.88280  0.08510  Biso   1.000  C
  C86      1.0000 0.91110  0.89990  0.33510  Biso   1.000  C
  C87      1.0000 0.39980  0.42880  0.30480  Biso   1.000  C
  C88      1.0000 0.21120  0.67440  0.37720  Biso   1.000  C
  C89      1.0000 0.13190  0.74390  0.34230  Biso   1.000  C
  C90      1.0000 0.37160  0.44020  0.19530  Biso   1.000  C
  C91      1.0000 0.55440  0.09920  0.07030  Biso   1.000  C
  C92      1.0000 0.58650  0.07450  0.96190  Biso   1.000  C
  C93      1.0000 0.60590  0.20190  0.99720  Biso   1.000  C
  C94      1.0000 0.21380  0.07560  0.24720  Biso   1.000  C
  C95      1.0000 0.31880  0.04900  0.24650  Biso   1.000  C
  C96      1.0000 0.55970  0.72290  0.22750  Biso   1.000  C
  C97      1.0000 0.69880  0.24700  0.35110  Biso   1.000  C
  C98      1.0000 0.88260  0.12860  0.07370  Biso   1.000  C
  C99      1.0000 0.77660  0.18240  0.31120  Biso   1.000  C
  C100     1.0000 0.72410  0.21230  0.13760  Biso   1.000  C
  C101     1.0000 0.01820  0.12320  0.24860  Biso   1.000  C
  C102     1.0000 0.69580  0.33080  0.36840  Biso   1.000  C
  C103     1.0000 0.84560  0.29220  0.30420  Biso   1.000  C
  C104     1.0000 0.84900  0.20640  0.28960  Biso   1.000  C
  C105     1.0000 0.81180  0.20980  0.11260  Biso   1.000  C
  C106     1.0000 0.55270  0.66770  0.28190  Biso   1.000  C
  C107     1.0000 0.56870  0.57470  0.27800  Biso   1.000  C
  C108     1.0000 0.16990  0.07150  0.19240  Biso   1.000  C
  C109     1.0000 0.59400  0.53440  0.21720  Biso   1.000  C
  C110     1.0000 0.15730  0.09930  0.30230  Biso   1.000  C
  C111     1.0000 0.54060  0.82760  0.23110  Biso   1.000  C
  C112     1.0000 0.58160  0.68260  0.17020  Biso   1.000  C
  C113     1.0000 0.76910  0.35670  0.34210  Biso   1.000  C
  C114     1.0000 0.65280  0.29380  0.17090  Biso   1.000  C
  C115     1.0000 0.66920  0.37380  0.17900  Biso   1.000  C
  C116     1.0000 0.61720  0.39820  0.41490  Biso   1.000  C
  C117     1.0000 0.60010  0.58890  0.16490  Biso   1.000  C
  C118     1.0000 0.07120  0.10020  0.19520  Biso   1.000  C
  C119     1.0000 0.82560  0.28880  0.12280  Biso   1.000  C
  C120     1.0000 0.75610  0.36810  0.15770  Biso   1.000  C
  C121     1.0000 0.05980  0.12840  0.30470  Biso   1.000  C
  C122     1.0000 0.40080  0.94560  0.42970  Biso   1.000  C
  C123     1.0000 0.42550  0.91350  0.53810  Biso   1.000  C
  C124     1.0000 0.29810  0.89410  0.50280  Biso   1.000  C
  N1       1.0000 0.41640  0.88180  0.98890  Biso   1.000  N
  N2       1.0000 0.61820  0.08360  0.51110  Biso   1.000  N
  N3       1.0000 0.58360  0.11820  0.01110  Biso   1.000  N
  N4       1.0000 0.38180  0.91640  0.48890  Biso   1.000  N
  O1       1.0000 0.56300  0.36100  0.56480  Biso   1.000  O
  O2       1.0000 0.63020  0.46140  0.55560  Biso   1.000  O
  O3       1.0000 0.54080  0.85200  0.80010  Biso   1.000  O
  O4       1.0000 0.53390  0.86690  0.69310  Biso   1.000  O
  O5       1.0000 0.64130  0.42330  0.74940  Biso   1.000  O
  O6       1.0000 0.87210  0.05410  0.93530  Biso   1.000  O
  O7       1.0000 0.97180  0.12140  0.92710  Biso   1.000  O
  O8       1.0000 0.36120  0.01660  0.78850  Biso   1.000  O
  O9       1.0000 0.37250  0.04890  0.68550  Biso   1.000  O
  O10      1.0000 0.94200  0.09900  0.71550  Biso   1.000  O
  O11      1.0000 0.46630  0.96410  0.91460  Biso   1.000  O
  O12      1.0000 0.13900  0.93700  0.93520  Biso   1.000  O
  O13      1.0000 0.03860  0.86980  0.94440  Biso   1.000  O
  O14      1.0000 0.64800  0.95920  0.69990  Biso   1.000  O
  O15      1.0000 0.63310  0.96610  0.80690  Biso   1.000  O
  O16      1.0000 0.07670  0.85870  0.75060  Biso   1.000  O
  O17      1.0000 0.44590  0.62790  0.56470  Biso   1.000  O
  O18      1.0000 0.37860  0.52820  0.57290  Biso   1.000  O
  O19      1.0000 0.48340  0.13880  0.71150  Biso   1.000  O
  O20      1.0000 0.45110  0.12750  0.81450  Biso   1.000  O
  O21      1.0000 0.40100  0.55800  0.78450  Biso   1.000  O
  O22      1.0000 0.53590  0.03370  0.58540  Biso   1.000  O
  O23      1.0000 0.43700  0.63900  0.43520  Biso   1.000  O
  O24      1.0000 0.36980  0.53860  0.44440  Biso   1.000  O
  O25      1.0000 0.45920  0.14800  0.19990  Biso   1.000  O
  O26      1.0000 0.46610  0.13310  0.30690  Biso   1.000  O
  O27      1.0000 0.35870  0.57670  0.25060  Biso   1.000  O
  O28      1.0000 0.12790  0.94590  0.06470  Biso   1.000  O
  O29      1.0000 0.02820  0.87860  0.07290  Biso   1.000  O
  O30      1.0000 0.63880  0.98340  0.21150  Biso   1.000  O
  O31      1.0000 0.62750  0.95110  0.31450  Biso   1.000  O
  O32      1.0000 0.05800  0.90100  0.28450  Biso   1.000  O
  O33      1.0000 0.53370  0.03590  0.08540  Biso   1.000  O
  O34      1.0000 0.86100  0.06300  0.06480  Biso   1.000  O
  O35      1.0000 0.96140  0.13020  0.05560  Biso   1.000  O
  O36      1.0000 0.35200  0.04080  0.30010  Biso   1.000  O
  O37      1.0000 0.36690  0.03390  0.19310  Biso   1.000  O
  O38      1.0000 0.92330  0.14130  0.24940  Biso   1.000  O
  O39      1.0000 0.55410  0.37210  0.43530  Biso   1.000  O
  O40      1.0000 0.62140  0.47180  0.42710  Biso   1.000  O
  O41      1.0000 0.51660  0.86120  0.28850  Biso   1.000  O
  O42      1.0000 0.54890  0.87250  0.18550  Biso   1.000  O
  O43      1.0000 0.59900  0.44200  0.21550  Biso   1.000  O
  O44      1.0000 0.46410  0.96630  0.41460  Biso   1.000  O
