data_image0
_cell_length_a       15.3862
_cell_length_b       15.3862
_cell_length_c       20.808
_cell_angle_alpha    85.3516
_cell_angle_beta     85.3516
_cell_angle_gamma    62.8625

_symmetry_space_group_name_H-M    P 1
_symmetry_int_tables_number       1

loop_
  _symmetry_equiv_pos_as_xyz
  'x, y, z'

loop_
  _atom_site_label
  _atom_site_occupancy
  _atom_site_fract_x
  _atom_site_fract_y
  _atom_site_fract_z
  _atom_site_thermal_displace_type
  _atom_site_B_iso_or_equiv
  _atom_site_type_symbol
  Cu1      1.0000 0.98967  0.99215  0.31369  Biso   1.000  Cu
  Cu2      1.0000 0.04121  0.55865  0.49695  Biso   1.000  Cu
  Cu3      1.0000 0.00785  0.01033  0.18631  Biso   1.000  Cu
  Cu4      1.0000 0.44135  0.95879  0.00305  Biso   1.000  Cu
  Cu5      1.0000 0.01033  0.00785  0.68631  Biso   1.000  Cu
  Cu6      1.0000 0.95879  0.44135  0.50305  Biso   1.000  Cu
  Cu7      1.0000 0.99215  0.98967  0.81369  Biso   1.000  Cu
  Cu8      1.0000 0.55865  0.04121  0.99695  Biso   1.000  Cu
  H1       1.0000 0.30730  0.97090  0.17890  Biso   1.000  H
  H2       1.0000 0.46550  0.94870  0.19070  Biso   1.000  H
  H3       1.0000 0.27720  0.92060  0.36900  Biso   1.000  H
  H4       1.0000 0.43530  0.89750  0.38250  Biso   1.000  H
  H5       1.0000 0.57350  0.74490  0.34530  Biso   1.000  H
  H6       1.0000 0.75730  0.90870  0.46980  Biso   1.000  H
  H7       1.0000 0.82140  0.82340  0.51780  Biso   1.000  H
  H8       1.0000 0.75740  0.92880  0.54250  Biso   1.000  H
  H9       1.0000 0.84440  0.79580  0.36790  Biso   1.000  H
  H10      1.0000 0.27620  0.13360  0.29540  Biso   1.000  H
  H11      1.0000 0.54290  0.10530  0.14960  Biso   1.000  H
  H12      1.0000 0.14750  0.23890  0.36070  Biso   1.000  H
  H13      1.0000 0.68140  0.11380  0.33670  Biso   1.000  H
  H14      1.0000 0.70810  0.05850  0.14900  Biso   1.000  H
  H15      1.0000 0.71180  0.91360  0.31520  Biso   1.000  H
  H16      1.0000 0.84870  0.95830  0.40200  Biso   1.000  H
  H17      1.0000 0.39060  0.32220  0.28120  Biso   1.000  H
  H18      1.0000 0.70760  0.62740  0.39780  Biso   1.000  H
  H19      1.0000 0.26570  0.42450  0.34810  Biso   1.000  H
  H20      1.0000 0.51660  0.15960  0.33810  Biso   1.000  H
  H21      1.0000 0.99370  0.91170  0.52900  Biso   1.000  H
  H22      1.0000 0.90650  0.93170  0.57990  Biso   1.000  H
  H23      1.0000 0.97050  0.82590  0.55600  Biso   1.000  H
  H24      1.0000 0.11190  0.70110  0.43200  Biso   1.000  H
  H25      1.0000 0.25550  0.76750  0.55600  Biso   1.000  H
  H26      1.0000 0.26390  0.66170  0.56190  Biso   1.000  H
  H27      1.0000 0.16570  0.75110  0.58280  Biso   1.000  H
  H28      1.0000 0.17180  0.80960  0.40710  Biso   1.000  H
  H29      1.0000 0.26690  0.79110  0.44060  Biso   1.000  H
  H30      1.0000 0.16480  0.87120  0.46540  Biso   1.000  H
  H31      1.0000 0.02910  0.69270  0.32110  Biso   1.000  H
  H32      1.0000 0.05130  0.53450  0.30930  Biso   1.000  H
  H33      1.0000 0.07940  0.72280  0.13100  Biso   1.000  H
  H34      1.0000 0.10250  0.56470  0.11750  Biso   1.000  H
  H35      1.0000 0.25510  0.42650  0.15470  Biso   1.000  H
  H36      1.0000 0.09130  0.24270  0.03020  Biso   1.000  H
  H37      1.0000 0.17660  0.17860  0.98220  Biso   1.000  H
  H38      1.0000 0.07120  0.24260  0.95750  Biso   1.000  H
  H39      1.0000 0.20420  0.15560  0.13210  Biso   1.000  H
  H40      1.0000 0.86640  0.72380  0.20460  Biso   1.000  H
  H41      1.0000 0.89470  0.45710  0.35040  Biso   1.000  H
  H42      1.0000 0.76110  0.85250  0.13930  Biso   1.000  H
  H43      1.0000 0.88620  0.31860  0.16330  Biso   1.000  H
  H44      1.0000 0.94150  0.29190  0.35100  Biso   1.000  H
  H45      1.0000 0.08640  0.28820  0.18480  Biso   1.000  H
  H46      1.0000 0.04170  0.15130  0.09800  Biso   1.000  H
  H47      1.0000 0.67780  0.60940  0.21880  Biso   1.000  H
  H48      1.0000 0.37260  0.29240  0.10220  Biso   1.000  H
  H49      1.0000 0.57550  0.73430  0.15190  Biso   1.000  H
  H50      1.0000 0.84040  0.48340  0.16190  Biso   1.000  H
  H51      1.0000 0.08830  0.00630  0.97100  Biso   1.000  H
  H52      1.0000 0.06830  0.09350  0.92010  Biso   1.000  H
  H53      1.0000 0.17410  0.02950  0.94400  Biso   1.000  H
  H54      1.0000 0.29890  0.88810  0.06800  Biso   1.000  H
  H55      1.0000 0.23250  0.74450  0.94400  Biso   1.000  H
  H56      1.0000 0.33830  0.73610  0.93810  Biso   1.000  H
  H57      1.0000 0.24890  0.83430  0.91720  Biso   1.000  H
  H58      1.0000 0.19040  0.82820  0.09290  Biso   1.000  H
  H59      1.0000 0.20890  0.73310  0.05940  Biso   1.000  H
  H60      1.0000 0.12880  0.83520  0.03460  Biso   1.000  H
  H61      1.0000 0.69270  0.02910  0.82110  Biso   1.000  H
  H62      1.0000 0.53450  0.05130  0.80930  Biso   1.000  H
  H63      1.0000 0.72280  0.07940  0.63100  Biso   1.000  H
  H64      1.0000 0.56470  0.10250  0.61750  Biso   1.000  H
  H65      1.0000 0.42650  0.25510  0.65470  Biso   1.000  H
  H66      1.0000 0.24270  0.09130  0.53020  Biso   1.000  H
  H67      1.0000 0.17860  0.17660  0.48220  Biso   1.000  H
  H68      1.0000 0.24260  0.07120  0.45750  Biso   1.000  H
  H69      1.0000 0.15560  0.20420  0.63210  Biso   1.000  H
  H70      1.0000 0.72380  0.86640  0.70460  Biso   1.000  H
  H71      1.0000 0.45710  0.89470  0.85040  Biso   1.000  H
  H72      1.0000 0.85250  0.76110  0.63930  Biso   1.000  H
  H73      1.0000 0.31860  0.88620  0.66330  Biso   1.000  H
  H74      1.0000 0.29190  0.94150  0.85100  Biso   1.000  H
  H75      1.0000 0.28820  0.08640  0.68480  Biso   1.000  H
  H76      1.0000 0.15130  0.04170  0.59800  Biso   1.000  H
  H77      1.0000 0.60940  0.67780  0.71880  Biso   1.000  H
  H78      1.0000 0.29240  0.37260  0.60220  Biso   1.000  H
  H79      1.0000 0.73430  0.57550  0.65190  Biso   1.000  H
  H80      1.0000 0.48340  0.84040  0.66190  Biso   1.000  H
  H81      1.0000 0.00630  0.08830  0.47100  Biso   1.000  H
  H82      1.0000 0.09350  0.06830  0.42010  Biso   1.000  H
  H83      1.0000 0.02950  0.17410  0.44400  Biso   1.000  H
  H84      1.0000 0.88810  0.29890  0.56800  Biso   1.000  H
  H85      1.0000 0.74450  0.23250  0.44400  Biso   1.000  H
  H86      1.0000 0.73610  0.33830  0.43810  Biso   1.000  H
  H87      1.0000 0.83430  0.24890  0.41720  Biso   1.000  H
  H88      1.0000 0.82820  0.19040  0.59290  Biso   1.000  H
  H89      1.0000 0.73310  0.20890  0.55940  Biso   1.000  H
  H90      1.0000 0.83520  0.12880  0.53460  Biso   1.000  H
  H91      1.0000 0.97090  0.30730  0.67890  Biso   1.000  H
  H92      1.0000 0.94870  0.46550  0.69070  Biso   1.000  H
  H93      1.0000 0.92060  0.27720  0.86900  Biso   1.000  H
  H94      1.0000 0.89750  0.43530  0.88250  Biso   1.000  H
  H95      1.0000 0.74490  0.57350  0.84530  Biso   1.000  H
  H96      1.0000 0.90870  0.75730  0.96980  Biso   1.000  H
  H97      1.0000 0.82340  0.82140  0.01780  Biso   1.000  H
  H98      1.0000 0.92880  0.75740  0.04250  Biso   1.000  H
  H99      1.0000 0.79580  0.84440  0.86790  Biso   1.000  H
  H100     1.0000 0.13360  0.27620  0.79540  Biso   1.000  H
  H101     1.0000 0.10530  0.54290  0.64960  Biso   1.000  H
  H102     1.0000 0.23890  0.14750  0.86070  Biso   1.000  H
  H103     1.0000 0.11380  0.68140  0.83670  Biso   1.000  H
  H104     1.0000 0.05850  0.70810  0.64900  Biso   1.000  H
  H105     1.0000 0.91360  0.71180  0.81520  Biso   1.000  H
  H106     1.0000 0.95830  0.84870  0.90200  Biso   1.000  H
  H107     1.0000 0.32220  0.39060  0.78120  Biso   1.000  H
  H108     1.0000 0.62740  0.70760  0.89780  Biso   1.000  H
  H109     1.0000 0.42450  0.26570  0.84810  Biso   1.000  H
  H110     1.0000 0.15960  0.51660  0.83810  Biso   1.000  H
  H111     1.0000 0.91170  0.99370  0.02900  Biso   1.000  H
  H112     1.0000 0.93170  0.90650  0.07990  Biso   1.000  H
  H113     1.0000 0.82590  0.97050  0.05600  Biso   1.000  H
  H114     1.0000 0.70110  0.11190  0.93200  Biso   1.000  H
  H115     1.0000 0.76750  0.25550  0.05600  Biso   1.000  H
  H116     1.0000 0.66170  0.26390  0.06190  Biso   1.000  H
  H117     1.0000 0.75110  0.16570  0.08280  Biso   1.000  H
  H118     1.0000 0.80960  0.17180  0.90710  Biso   1.000  H
  H119     1.0000 0.79110  0.26690  0.94060  Biso   1.000  H
  H120     1.0000 0.87120  0.16480  0.96540  Biso   1.000  H
  C1       1.0000 0.17440  0.96220  0.26520  Biso   1.000  C
  C2       1.0000 0.27630  0.94670  0.27350  Biso   1.000  C
  C3       1.0000 0.33310  0.95590  0.21960  Biso   1.000  C
  C4       1.0000 0.42790  0.94250  0.22650  Biso   1.000  C
  C5       1.0000 0.31510  0.92570  0.33320  Biso   1.000  C
  C6       1.0000 0.40980  0.91180  0.34170  Biso   1.000  C
  C7       1.0000 0.46530  0.92010  0.28710  Biso   1.000  C
  C8       1.0000 0.62940  0.84100  0.32590  Biso   1.000  C
  C9       1.0000 0.62760  0.75540  0.35010  Biso   1.000  C
  C10      1.0000 0.79650  0.89210  0.50670  Biso   1.000  C
  C11      1.0000 0.81910  0.04930  0.24340  Biso   1.000  C
  C12      1.0000 0.79010  0.78570  0.36380  Biso   1.000  C
  C13      1.0000 0.87340  0.62520  0.42580  Biso   1.000  C
  C14      1.0000 0.11700  0.40520  0.41030  Biso   1.000  C
  C15      1.0000 0.71200  0.08100  0.24280  Biso   1.000  C
  C16      1.0000 0.27380  0.19220  0.30620  Biso   1.000  C
  C17      1.0000 0.57130  0.10610  0.18720  Biso   1.000  C
  C18      1.0000 0.34640  0.21740  0.28320  Biso   1.000  C
  C19      1.0000 0.19720  0.25500  0.34570  Biso   1.000  C
  C20      1.0000 0.19450  0.34130  0.36280  Biso   1.000  C
  C21      1.0000 0.78940  0.69940  0.38960  Biso   1.000  C
  C22      1.0000 0.65330  0.11170  0.29930  Biso   1.000  C
  C23      1.0000 0.66970  0.07870  0.18690  Biso   1.000  C
  C24      1.0000 0.71080  0.85620  0.33220  Biso   1.000  C
  C25      1.0000 0.89380  0.94700  0.43280  Biso   1.000  C
  C26      1.0000 0.34250  0.30470  0.29810  Biso   1.000  C
  C27      1.0000 0.70810  0.68530  0.38160  Biso   1.000  C
  C28      1.0000 0.26770  0.36590  0.33780  Biso   1.000  C
  C29      1.0000 0.51430  0.13510  0.24440  Biso   1.000  C
  C30      1.0000 0.55520  0.13880  0.30030  Biso   1.000  C
  C31      1.0000 0.94250  0.89430  0.54350  Biso   1.000  C
  C32      1.0000 0.13400  0.69100  0.47360  Biso   1.000  C
  C33      1.0000 0.22100  0.72960  0.55260  Biso   1.000  C
  C34      1.0000 0.19860  0.80800  0.44750  Biso   1.000  C
  C35      1.0000 0.03780  0.82560  0.23480  Biso   1.000  C
  C36      1.0000 0.05330  0.72370  0.22650  Biso   1.000  C
  C37      1.0000 0.04410  0.66690  0.28040  Biso   1.000  C
  C38      1.0000 0.05750  0.57210  0.27350  Biso   1.000  C
  C39      1.0000 0.07430  0.68490  0.16680  Biso   1.000  C
  C40      1.0000 0.08820  0.59020  0.15830  Biso   1.000  C
  C41      1.0000 0.07990  0.53470  0.21290  Biso   1.000  C
  C42      1.0000 0.15900  0.37060  0.17410  Biso   1.000  C
  C43      1.0000 0.24460  0.37240  0.14990  Biso   1.000  C
  C44      1.0000 0.10790  0.20350  0.99330  Biso   1.000  C
  C45      1.0000 0.95070  0.18090  0.25660  Biso   1.000  C
  C46      1.0000 0.21430  0.20990  0.13620  Biso   1.000  C
  C47      1.0000 0.37480  0.12660  0.07420  Biso   1.000  C
  C48      1.0000 0.59480  0.88300  0.08970  Biso   1.000  C
  C49      1.0000 0.91900  0.28800  0.25720  Biso   1.000  C
  C50      1.0000 0.80780  0.72620  0.19380  Biso   1.000  C
  C51      1.0000 0.89390  0.42870  0.31280  Biso   1.000  C
  C52      1.0000 0.78260  0.65360  0.21680  Biso   1.000  C
  C53      1.0000 0.74500  0.80280  0.15430  Biso   1.000  C
  C54      1.0000 0.65870  0.80550  0.13720  Biso   1.000  C
  C55      1.0000 0.30060  0.21060  0.11040  Biso   1.000  C
  C56      1.0000 0.88830  0.34670  0.20070  Biso   1.000  C
  C57      1.0000 0.92130  0.33030  0.31310  Biso   1.000  C
  C58      1.0000 0.14380  0.28920  0.16780  Biso   1.000  C
  C59      1.0000 0.05300  0.10620  0.06720  Biso   1.000  C
  C60      1.0000 0.69530  0.65750  0.20190  Biso   1.000  C
  C61      1.0000 0.31470  0.29190  0.11840  Biso   1.000  C
  C62      1.0000 0.63410  0.73230  0.16220  Biso   1.000  C
  C63      1.0000 0.86490  0.48570  0.25560  Biso   1.000  C
  C64      1.0000 0.86120  0.44480  0.19970  Biso   1.000  C
  C65      1.0000 0.10570  0.05750  0.95650  Biso   1.000  C
  C66      1.0000 0.30900  0.86600  0.02640  Biso   1.000  C
  C67      1.0000 0.27040  0.77900  0.94740  Biso   1.000  C
  C68      1.0000 0.19200  0.80140  0.05250  Biso   1.000  C
  C69      1.0000 0.82560  0.03780  0.73480  Biso   1.000  C
  C70      1.0000 0.72370  0.05330  0.72650  Biso   1.000  C
  C71      1.0000 0.66690  0.04410  0.78040  Biso   1.000  C
  C72      1.0000 0.57210  0.05750  0.77350  Biso   1.000  C
  C73      1.0000 0.68490  0.07430  0.66680  Biso   1.000  C
  C74      1.0000 0.59020  0.08820  0.65830  Biso   1.000  C
  C75      1.0000 0.53470  0.07990  0.71290  Biso   1.000  C
  C76      1.0000 0.37060  0.15900  0.67410  Biso   1.000  C
  C77      1.0000 0.37240  0.24460  0.64990  Biso   1.000  C
  C78      1.0000 0.20350  0.10790  0.49330  Biso   1.000  C
  C79      1.0000 0.18090  0.95070  0.75660  Biso   1.000  C
  C80      1.0000 0.20990  0.21430  0.63620  Biso   1.000  C
  C81      1.0000 0.12660  0.37480  0.57420  Biso   1.000  C
  C82      1.0000 0.88300  0.59480  0.58970  Biso   1.000  C
  C83      1.0000 0.28800  0.91900  0.75720  Biso   1.000  C
  C84      1.0000 0.72620  0.80780  0.69380  Biso   1.000  C
  C85      1.0000 0.42870  0.89390  0.81280  Biso   1.000  C
  C86      1.0000 0.65360  0.78260  0.71680  Biso   1.000  C
  C87      1.0000 0.80280  0.74500  0.65430  Biso   1.000  C
  C88      1.0000 0.80550  0.65870  0.63720  Biso   1.000  C
  C89      1.0000 0.21060  0.30060  0.61040  Biso   1.000  C
  C90      1.0000 0.34670  0.88830  0.70070  Biso   1.000  C
  C91      1.0000 0.33030  0.92130  0.81310  Biso   1.000  C
  C92      1.0000 0.28920  0.14380  0.66780  Biso   1.000  C
  C93      1.0000 0.10620  0.05300  0.56720  Biso   1.000  C
  C94      1.0000 0.65750  0.69530  0.70190  Biso   1.000  C
  C95      1.0000 0.29190  0.31470  0.61840  Biso   1.000  C
  C96      1.0000 0.73230  0.63410  0.66220  Biso   1.000  C
  C97      1.0000 0.48570  0.86490  0.75560  Biso   1.000  C
  C98      1.0000 0.44480  0.86120  0.69970  Biso   1.000  C
  C99      1.0000 0.05750  0.10570  0.45650  Biso   1.000  C
  C100     1.0000 0.86600  0.30900  0.52640  Biso   1.000  C
  C101     1.0000 0.77900  0.27040  0.44740  Biso   1.000  C
  C102     1.0000 0.80140  0.19200  0.55250  Biso   1.000  C
  C103     1.0000 0.96220  0.17440  0.76520  Biso   1.000  C
  C104     1.0000 0.94670  0.27630  0.77350  Biso   1.000  C
  C105     1.0000 0.95590  0.33310  0.71960  Biso   1.000  C
  C106     1.0000 0.94250  0.42790  0.72650  Biso   1.000  C
  C107     1.0000 0.92570  0.31510  0.83320  Biso   1.000  C
  C108     1.0000 0.91180  0.40980  0.84170  Biso   1.000  C
  C109     1.0000 0.92010  0.46530  0.78710  Biso   1.000  C
  C110     1.0000 0.84100  0.62940  0.82590  Biso   1.000  C
  C111     1.0000 0.75540  0.62760  0.85010  Biso   1.000  C
  C112     1.0000 0.89210  0.79650  0.00670  Biso   1.000  C
  C113     1.0000 0.04930  0.81910  0.74340  Biso   1.000  C
  C114     1.0000 0.78570  0.79010  0.86380  Biso   1.000  C
  C115     1.0000 0.62520  0.87340  0.92580  Biso   1.000  C
  C116     1.0000 0.40520  0.11700  0.91030  Biso   1.000  C
  C117     1.0000 0.08100  0.71200  0.74280  Biso   1.000  C
  C118     1.0000 0.19220  0.27380  0.80620  Biso   1.000  C
  C119     1.0000 0.10610  0.57130  0.68720  Biso   1.000  C
  C120     1.0000 0.21740  0.34640  0.78320  Biso   1.000  C
  C121     1.0000 0.25500  0.19720  0.84570  Biso   1.000  C
  C122     1.0000 0.34130  0.19450  0.86280  Biso   1.000  C
  C123     1.0000 0.69940  0.78940  0.88960  Biso   1.000  C
  C124     1.0000 0.11170  0.65330  0.79930  Biso   1.000  C
  C125     1.0000 0.07870  0.66970  0.68690  Biso   1.000  C
  C126     1.0000 0.85620  0.71080  0.83220  Biso   1.000  C
  C127     1.0000 0.94700  0.89380  0.93280  Biso   1.000  C
  C128     1.0000 0.30470  0.34250  0.79810  Biso   1.000  C
  C129     1.0000 0.68530  0.70810  0.88160  Biso   1.000  C
  C130     1.0000 0.36590  0.26770  0.83780  Biso   1.000  C
  C131     1.0000 0.13510  0.51430  0.74440  Biso   1.000  C
  C132     1.0000 0.13880  0.55520  0.80030  Biso   1.000  C
  C133     1.0000 0.89430  0.94250  0.04350  Biso   1.000  C
  C134     1.0000 0.69100  0.13400  0.97360  Biso   1.000  C
  C135     1.0000 0.72960  0.22100  0.05260  Biso   1.000  C
  C136     1.0000 0.80800  0.19860  0.94750  Biso   1.000  C
  N1       1.0000 0.87700  0.91520  0.49170  Biso   1.000  N
  N2       1.0000 0.18820  0.74220  0.48800  Biso   1.000  N
  N3       1.0000 0.08480  0.12300  0.00830  Biso   1.000  N
  N4       1.0000 0.25780  0.81180  0.01200  Biso   1.000  N
  N5       1.0000 0.12300  0.08480  0.50830  Biso   1.000  N
  N6       1.0000 0.81180  0.25780  0.51200  Biso   1.000  N
  N7       1.0000 0.91520  0.87700  0.99170  Biso   1.000  N
  N8       1.0000 0.74220  0.18820  0.98800  Biso   1.000  N
  O1       1.0000 0.12773  0.95273  0.31613  Biso   1.000  O
  O2       1.0000 0.14200  0.98360  0.20944  Biso   1.000  O
  O3       1.0000 0.55641  0.91561  0.29080  Biso   1.000  O
  O4       1.0000 0.12222  0.48022  0.42540  Biso   1.000  O
  O5       1.0000 0.86983  0.54623  0.44453  Biso   1.000  O
  O6       1.0000 0.85292  0.03892  0.29871  Biso   1.000  O
  O7       1.0000 0.96390  0.96270  0.41583  Biso   1.000  O
  O8       1.0000 0.86883  0.03403  0.19063  Biso   1.000  O
  O9       1.0000 0.94143  0.64583  0.43667  Biso   1.000  O
  O10      1.0000 0.05364  0.37784  0.43186  Biso   1.000  O
  O11      1.0000 0.11653  0.64273  0.50580  Biso   1.000  O
  O12      1.0000 0.41799  0.15319  0.24190  Biso   1.000  O
  O13      1.0000 0.04727  0.87227  0.18387  Biso   1.000  O
  O14      1.0000 0.01640  0.85800  0.29056  Biso   1.000  O
  O15      1.0000 0.08439  0.44359  0.20920  Biso   1.000  O
  O16      1.0000 0.51978  0.87778  0.07460  Biso   1.000  O
  O17      1.0000 0.45377  0.13017  0.05547  Biso   1.000  O
  O18      1.0000 0.96108  0.14708  0.20129  Biso   1.000  O
  O19      1.0000 0.03730  0.03610  0.08417  Biso   1.000  O
  O20      1.0000 0.96597  0.13117  0.30937  Biso   1.000  O
  O21      1.0000 0.35417  0.05857  0.06333  Biso   1.000  O
  O22      1.0000 0.62216  0.94636  0.06814  Biso   1.000  O
  O23      1.0000 0.35727  0.88347  0.99420  Biso   1.000  O
  O24      1.0000 0.84681  0.58201  0.25810  Biso   1.000  O
  O25      1.0000 0.87227  0.04727  0.68387  Biso   1.000  O
  O26      1.0000 0.85800  0.01640  0.79056  Biso   1.000  O
  O27      1.0000 0.44359  0.08439  0.70920  Biso   1.000  O
  O28      1.0000 0.87778  0.51978  0.57460  Biso   1.000  O
  O29      1.0000 0.13017  0.45377  0.55547  Biso   1.000  O
  O30      1.0000 0.14708  0.96108  0.70129  Biso   1.000  O
  O31      1.0000 0.03610  0.03730  0.58417  Biso   1.000  O
  O32      1.0000 0.13117  0.96597  0.80937  Biso   1.000  O
  O33      1.0000 0.05857  0.35417  0.56333  Biso   1.000  O
  O34      1.0000 0.94636  0.62216  0.56814  Biso   1.000  O
  O35      1.0000 0.88347  0.35727  0.49420  Biso   1.000  O
  O36      1.0000 0.58201  0.84681  0.75810  Biso   1.000  O
  O37      1.0000 0.95273  0.12773  0.81613  Biso   1.000  O
  O38      1.0000 0.98360  0.14200  0.70944  Biso   1.000  O
  O39      1.0000 0.91561  0.55641  0.79080  Biso   1.000  O
  O40      1.0000 0.48022  0.12222  0.92540  Biso   1.000  O
  O41      1.0000 0.54623  0.86983  0.94453  Biso   1.000  O
  O42      1.0000 0.03892  0.85292  0.79871  Biso   1.000  O
  O43      1.0000 0.96270  0.96390  0.91583  Biso   1.000  O
  O44      1.0000 0.03403  0.86883  0.69063  Biso   1.000  O
  O45      1.0000 0.64583  0.94143  0.93667  Biso   1.000  O
  O46      1.0000 0.37784  0.05364  0.93186  Biso   1.000  O
  O47      1.0000 0.64273  0.11653  0.00580  Biso   1.000  O
  O48      1.0000 0.15319  0.41799  0.74190  Biso   1.000  O
