data_image0
_cell_length_a       10.5235
_cell_length_b       19.09
_cell_length_c       23.3491
_cell_angle_alpha    99.7101
_cell_angle_beta     103.024
_cell_angle_gamma    90

_symmetry_space_group_name_H-M    P 1
_symmetry_int_tables_number       1

loop_
  _symmetry_equiv_pos_as_xyz
  'x, y, z'

loop_
  _atom_site_label
  _atom_site_occupancy
  _atom_site_fract_x
  _atom_site_fract_y
  _atom_site_fract_z
  _atom_site_thermal_displace_type
  _atom_site_B_iso_or_equiv
  _atom_site_type_symbol
  Co1      1.0000 0.55832  0.07267  0.72174  Biso   1.000  Co
  Co2      1.0000 0.83658  0.42733  0.27826  Biso   1.000  Co
  Co3      1.0000 0.44168  0.92733  0.27826  Biso   1.000  Co
  Co4      1.0000 0.16342  0.57267  0.72174  Biso   1.000  Co
  Co5      1.0000 0.98234  0.25000  0.00000  Biso   1.000  Co
  Co6      1.0000 0.01766  0.75000  0.00000  Biso   1.000  Co
  H1       1.0000 0.08140  0.05810  0.49780  Biso   1.000  H
  H2       1.0000 0.05670  0.03920  0.55720  Biso   1.000  H
  H3       1.0000 0.68780  0.94400  0.66140  Biso   1.000  H
  H4       1.0000 0.69970  0.75910  0.66140  Biso   1.000  H
  H5       1.0000 0.75770  0.81800  0.63420  Biso   1.000  H
  H6       1.0000 0.86450  0.78690  0.74880  Biso   1.000  H
  H7       1.0000 0.92350  0.76180  0.69320  Biso   1.000  H
  H8       1.0000 0.35180  0.64950  0.64340  Biso   1.000  H
  H9       1.0000 0.41600  0.73130  0.59160  Biso   1.000  H
  H10      1.0000 0.35730  0.84760  0.60700  Biso   1.000  H
  H11      1.0000 0.24470  0.88930  0.67920  Biso   1.000  H
  H12      1.0000 0.10710  0.72420  0.78980  Biso   1.000  H
  H13      1.0000 0.07740  0.85780  0.80860  Biso   1.000  H
  H14      1.0000 0.14610  0.90430  0.77420  Biso   1.000  H
  H15      1.0000 0.60510  0.10410  0.83840  Biso   1.000  H
  H16      1.0000 0.70190  0.05840  0.82580  Biso   1.000  H
  H17      1.0000 0.46180  0.97300  0.81940  Biso   1.000  H
  H18      1.0000 0.43080  0.87690  0.86380  Biso   1.000  H
  H19      1.0000 0.50710  0.76720  0.83380  Biso   1.000  H
  H20      1.0000 0.62190  0.74940  0.75960  Biso   1.000  H
  H21      1.0000 0.63160  0.14950  0.60700  Biso   1.000  H
  H22      1.0000 0.60750  0.18460  0.51540  Biso   1.000  H
  H23      1.0000 0.44130  0.13720  0.43600  Biso   1.000  H
  H24      1.0000 0.28960  0.05510  0.44500  Biso   1.000  H
  H25      1.0000 0.32720  0.98200  0.63520  Biso   1.000  H
  H26      1.0000 0.15950  0.93080  0.54000  Biso   1.000  H
  H27      1.0000 0.18370  0.94940  0.48020  Biso   1.000  H
  H28      1.0000 0.13960  0.05940  0.70300  Biso   1.000  H
  H29      1.0000 0.22850  0.15320  0.87540  Biso   1.000  H
  H30      1.0000 0.85910  0.14220  0.78140  Biso   1.000  H
  H31      1.0000 0.04390  0.34180  0.90360  Biso   1.000  H
  H32      1.0000 0.05540  0.43620  0.85440  Biso   1.000  H
  H33      1.0000 0.93550  0.53520  0.87040  Biso   1.000  H
  H34      1.0000 0.79980  0.54410  0.93580  Biso   1.000  H
  H35      1.0000 0.77110  0.35110  0.04200  Biso   1.000  H
  H36      1.0000 0.71570  0.53090  0.03300  Biso   1.000  H
  H37      1.0000 0.67660  0.47020  0.06420  Biso   1.000  H
  H38      1.0000 0.51500  0.42730  0.97720  Biso   1.000  H
  H39      1.0000 0.55210  0.49050  0.94820  Biso   1.000  H
  H40      1.0000 0.91750  0.90610  0.74520  Biso   1.000  H
  H41      1.0000 0.98020  0.87970  0.69100  Biso   1.000  H
  H42      1.0000 0.58360  0.44190  0.50220  Biso   1.000  H
  H43      1.0000 0.49950  0.46080  0.44280  Biso   1.000  H
  H44      1.0000 0.02640  0.55600  0.33860  Biso   1.000  H
  H45      1.0000 0.03830  0.74090  0.33860  Biso   1.000  H
  H46      1.0000 0.12350  0.68200  0.36580  Biso   1.000  H
  H47      1.0000 0.11570  0.71310  0.25120  Biso   1.000  H
  H48      1.0000 0.23030  0.73820  0.30680  Biso   1.000  H
  H49      1.0000 0.70840  0.85050  0.35660  Biso   1.000  H
  H50      1.0000 0.82440  0.76870  0.40840  Biso   1.000  H
  H51      1.0000 0.75030  0.65240  0.39300  Biso   1.000  H
  H52      1.0000 0.56550  0.61070  0.32080  Biso   1.000  H
  H53      1.0000 0.31730  0.77580  0.21020  Biso   1.000  H
  H54      1.0000 0.26880  0.64220  0.19140  Biso   1.000  H
  H55      1.0000 0.37190  0.59570  0.22580  Biso   1.000  H
  H56      1.0000 0.76670  0.39590  0.16160  Biso   1.000  H
  H57      1.0000 0.87610  0.44160  0.17420  Biso   1.000  H
  H58      1.0000 0.64240  0.52700  0.18060  Biso   1.000  H
  H59      1.0000 0.56700  0.62310  0.13620  Biso   1.000  H
  H60      1.0000 0.67330  0.73280  0.16620  Biso   1.000  H
  H61      1.0000 0.86230  0.75060  0.24040  Biso   1.000  H
  H62      1.0000 0.02460  0.35050  0.39300  Biso   1.000  H
  H63      1.0000 0.09210  0.31540  0.48460  Biso   1.000  H
  H64      1.0000 0.00530  0.36280  0.56400  Biso   1.000  H
  H65      1.0000 0.84460  0.44490  0.55500  Biso   1.000  H
  H66      1.0000 0.69200  0.51800  0.36480  Biso   1.000  H
  H67      1.0000 0.61950  0.56920  0.46000  Biso   1.000  H
  H68      1.0000 0.70350  0.55060  0.51980  Biso   1.000  H
  H69      1.0000 0.43660  0.44060  0.29700  Biso   1.000  H
  H70      1.0000 0.35310  0.34680  0.12460  Biso   1.000  H
  H71      1.0000 0.07770  0.35780  0.21860  Biso   1.000  H
  H72      1.0000 0.14030  0.15820  0.09640  Biso   1.000  H
  H73      1.0000 0.20100  0.06380  0.14560  Biso   1.000  H
  H74      1.0000 0.06510  0.96480  0.12960  Biso   1.000  H
  H75      1.0000 0.86400  0.95590  0.06420  Biso   1.000  H
  H76      1.0000 0.72910  0.14890  0.95800  Biso   1.000  H
  H77      1.0000 0.68270  0.96910  0.96700  Biso   1.000  H
  H78      1.0000 0.61240  0.02980  0.93580  Biso   1.000  H
  H79      1.0000 0.53780  0.07270  0.02280  Biso   1.000  H
  H80      1.0000 0.60390  0.00950  0.05180  Biso   1.000  H
  H81      1.0000 0.17230  0.59390  0.25480  Biso   1.000  H
  H82      1.0000 0.28920  0.62030  0.30900  Biso   1.000  H
  H83      1.0000 0.91860  0.94190  0.50220  Biso   1.000  H
  H84      1.0000 0.94330  0.96080  0.44280  Biso   1.000  H
  H85      1.0000 0.31220  0.05600  0.33860  Biso   1.000  H
  H86      1.0000 0.30030  0.24090  0.33860  Biso   1.000  H
  H87      1.0000 0.24230  0.18200  0.36580  Biso   1.000  H
  H88      1.0000 0.13550  0.21310  0.25120  Biso   1.000  H
  H89      1.0000 0.07650  0.23820  0.30680  Biso   1.000  H
  H90      1.0000 0.64820  0.35050  0.35660  Biso   1.000  H
  H91      1.0000 0.58400  0.26870  0.40840  Biso   1.000  H
  H92      1.0000 0.64270  0.15240  0.39300  Biso   1.000  H
  H93      1.0000 0.75530  0.11070  0.32080  Biso   1.000  H
  H94      1.0000 0.89290  0.27580  0.21020  Biso   1.000  H
  H95      1.0000 0.92260  0.14220  0.19140  Biso   1.000  H
  H96      1.0000 0.85390  0.09570  0.22580  Biso   1.000  H
  H97      1.0000 0.39490  0.89590  0.16160  Biso   1.000  H
  H98      1.0000 0.29810  0.94160  0.17420  Biso   1.000  H
  H99      1.0000 0.53820  0.02700  0.18060  Biso   1.000  H
  H100     1.0000 0.56920  0.12310  0.13620  Biso   1.000  H
  H101     1.0000 0.49290  0.23280  0.16620  Biso   1.000  H
  H102     1.0000 0.37810  0.25060  0.24040  Biso   1.000  H
  H103     1.0000 0.36840  0.85050  0.39300  Biso   1.000  H
  H104     1.0000 0.39250  0.81540  0.48460  Biso   1.000  H
  H105     1.0000 0.55870  0.86280  0.56400  Biso   1.000  H
  H106     1.0000 0.71040  0.94490  0.55500  Biso   1.000  H
  H107     1.0000 0.67280  0.01800  0.36480  Biso   1.000  H
  H108     1.0000 0.84050  0.06920  0.46000  Biso   1.000  H
  H109     1.0000 0.81630  0.05060  0.51980  Biso   1.000  H
  H110     1.0000 0.86040  0.94060  0.29700  Biso   1.000  H
  H111     1.0000 0.77150  0.84680  0.12460  Biso   1.000  H
  H112     1.0000 0.14090  0.85780  0.21860  Biso   1.000  H
  H113     1.0000 0.95610  0.65820  0.09640  Biso   1.000  H
  H114     1.0000 0.94460  0.56380  0.14560  Biso   1.000  H
  H115     1.0000 0.06450  0.46480  0.12960  Biso   1.000  H
  H116     1.0000 0.20020  0.45590  0.06420  Biso   1.000  H
  H117     1.0000 0.22890  0.64890  0.95800  Biso   1.000  H
  H118     1.0000 0.28430  0.46910  0.96700  Biso   1.000  H
  H119     1.0000 0.32340  0.52980  0.93580  Biso   1.000  H
  H120     1.0000 0.48500  0.57270  0.02280  Biso   1.000  H
  H121     1.0000 0.44790  0.50950  0.05180  Biso   1.000  H
  H122     1.0000 0.08250  0.09390  0.25480  Biso   1.000  H
  H123     1.0000 0.01980  0.12030  0.30900  Biso   1.000  H
  H124     1.0000 0.41640  0.55810  0.49780  Biso   1.000  H
  H125     1.0000 0.50050  0.53920  0.55720  Biso   1.000  H
  H126     1.0000 0.97360  0.44400  0.66140  Biso   1.000  H
  H127     1.0000 0.96170  0.25910  0.66140  Biso   1.000  H
  H128     1.0000 0.87650  0.31800  0.63420  Biso   1.000  H
  H129     1.0000 0.88430  0.28690  0.74880  Biso   1.000  H
  H130     1.0000 0.76970  0.26180  0.69320  Biso   1.000  H
  H131     1.0000 0.29160  0.14950  0.64340  Biso   1.000  H
  H132     1.0000 0.17560  0.23130  0.59160  Biso   1.000  H
  H133     1.0000 0.24970  0.34760  0.60700  Biso   1.000  H
  H134     1.0000 0.43450  0.38930  0.67920  Biso   1.000  H
  H135     1.0000 0.68270  0.22420  0.78980  Biso   1.000  H
  H136     1.0000 0.73120  0.35780  0.80860  Biso   1.000  H
  H137     1.0000 0.62810  0.40430  0.77420  Biso   1.000  H
  H138     1.0000 0.23330  0.60410  0.83840  Biso   1.000  H
  H139     1.0000 0.12390  0.55840  0.82580  Biso   1.000  H
  H140     1.0000 0.35760  0.47300  0.81940  Biso   1.000  H
  H141     1.0000 0.43300  0.37690  0.86380  Biso   1.000  H
  H142     1.0000 0.32670  0.26720  0.83380  Biso   1.000  H
  H143     1.0000 0.13770  0.24940  0.75960  Biso   1.000  H
  H144     1.0000 0.97540  0.64950  0.60700  Biso   1.000  H
  H145     1.0000 0.90790  0.68460  0.51540  Biso   1.000  H
  H146     1.0000 0.99470  0.63720  0.43600  Biso   1.000  H
  H147     1.0000 0.15540  0.55510  0.44500  Biso   1.000  H
  H148     1.0000 0.30800  0.48200  0.63520  Biso   1.000  H
  H149     1.0000 0.38050  0.43080  0.54000  Biso   1.000  H
  H150     1.0000 0.29650  0.44940  0.48020  Biso   1.000  H
  H151     1.0000 0.56340  0.55940  0.70300  Biso   1.000  H
  H152     1.0000 0.64690  0.65320  0.87540  Biso   1.000  H
  H153     1.0000 0.92230  0.64220  0.78140  Biso   1.000  H
  H154     1.0000 0.85970  0.84180  0.90360  Biso   1.000  H
  H155     1.0000 0.79900  0.93620  0.85440  Biso   1.000  H
  H156     1.0000 0.93490  0.03520  0.87040  Biso   1.000  H
  H157     1.0000 0.13600  0.04410  0.93580  Biso   1.000  H
  H158     1.0000 0.27090  0.85110  0.04200  Biso   1.000  H
  H159     1.0000 0.31730  0.03090  0.03300  Biso   1.000  H
  H160     1.0000 0.38760  0.97020  0.06420  Biso   1.000  H
  H161     1.0000 0.46220  0.92730  0.97720  Biso   1.000  H
  H162     1.0000 0.39610  0.99050  0.94820  Biso   1.000  H
  H163     1.0000 0.82770  0.40610  0.74520  Biso   1.000  H
  H164     1.0000 0.71080  0.37970  0.69100  Biso   1.000  H
  C1       1.0000 0.06407  0.01919  0.51714  Biso   1.000  C
  C2       1.0000 0.65458  0.92608  0.68996  Biso   1.000  C
  C3       1.0000 0.74574  0.80512  0.67108  Biso   1.000  C
  C4       1.0000 0.87770  0.79986  0.71200  Biso   1.000  C
  C5       1.0000 0.22759  0.79236  0.70298  Biso   1.000  C
  C6       1.0000 0.25512  0.72040  0.69164  Biso   1.000  C
  C7       1.0000 0.32883  0.69674  0.65026  Biso   1.000  C
  C8       1.0000 0.36677  0.74586  0.61954  Biso   1.000  C
  C9       1.0000 0.33293  0.81650  0.62966  Biso   1.000  C
  C10      1.0000 0.26493  0.84171  0.67186  Biso   1.000  C
  C11      1.0000 0.14899  0.73359  0.76078  Biso   1.000  C
  C12      1.0000 0.09238  0.86157  0.76976  Biso   1.000  C
  C13      1.0000 0.60710  0.85128  0.74440  Biso   1.000  C
  C14      1.0000 0.55908  0.91820  0.76116  Biso   1.000  C
  C15      1.0000 0.49296  0.92873  0.80692  Biso   1.000  C
  C16      1.0000 0.47522  0.87122  0.83324  Biso   1.000  C
  C17      1.0000 0.52211  0.80483  0.81522  Biso   1.000  C
  C18      1.0000 0.58946  0.79355  0.77112  Biso   1.000  C
  C19      1.0000 0.37365  0.05311  0.53270  Biso   1.000  C
  C20      1.0000 0.47564  0.08038  0.58108  Biso   1.000  C
  C21      1.0000 0.56392  0.13037  0.57504  Biso   1.000  C
  C22      1.0000 0.54892  0.15098  0.52044  Biso   1.000  C
  C23      1.0000 0.44761  0.12240  0.47242  Biso   1.000  C
  C24      1.0000 0.35765  0.07360  0.47710  Biso   1.000  C
  C25      1.0000 0.35879  0.00838  0.61098  Biso   1.000  C
  C26      1.0000 0.17668  0.96957  0.52036  Biso   1.000  C
  C27      1.0000 0.11427  0.08322  0.73654  Biso   1.000  C
  C28      1.0000 0.20773  0.10509  0.78986  Biso   1.000  C
  C29      1.0000 0.16733  0.13961  0.83966  Biso   1.000  C
  C30      1.0000 0.03753  0.15409  0.83686  Biso   1.000  C
  C31      1.0000 0.94647  0.13255  0.78354  Biso   1.000  C
  C32      1.0000 0.98387  0.09717  0.73394  Biso   1.000  C
  C33      1.0000 0.35028  0.09286  0.79256  Biso   1.000  C
  C34      1.0000 0.98990  0.19040  0.88940  Biso   1.000  C
  C35      1.0000 0.83983  0.44713  0.95826  Biso   1.000  C
  C36      1.0000 0.91225  0.38627  0.94890  Biso   1.000  C
  C37      1.0000 0.99477  0.38165  0.90994  Biso   1.000  C
  C38      1.0000 0.00124  0.43808  0.88108  Biso   1.000  C
  C39      1.0000 0.92866  0.49810  0.89072  Biso   1.000  C
  C40      1.0000 0.84766  0.50377  0.92932  Biso   1.000  C
  C41      1.0000 0.80436  0.37093  0.01432  Biso   1.000  C
  C42      1.0000 0.68200  0.48220  0.02600  Biso   1.000  C
  C43      1.0000 0.54744  0.47640  0.98568  Biso   1.000  C
  C44      1.0000 0.96396  0.86758  0.72752  Biso   1.000  C
  C45      1.0000 0.54693  0.48081  0.48286  Biso   1.000  C
  C46      1.0000 0.96462  0.57392  0.31004  Biso   1.000  C
  C47      1.0000 0.07466  0.69488  0.32892  Biso   1.000  C
  C48      1.0000 0.16570  0.70014  0.28800  Biso   1.000  C
  C49      1.0000 0.52461  0.70764  0.29702  Biso   1.000  C
  C50      1.0000 0.56348  0.77960  0.30836  Biso   1.000  C
  C51      1.0000 0.67857  0.80326  0.34974  Biso   1.000  C
  C52      1.0000 0.74723  0.75414  0.38046  Biso   1.000  C
  C53      1.0000 0.70327  0.68350  0.37034  Biso   1.000  C
  C54      1.0000 0.59307  0.65829  0.32814  Biso   1.000  C
  C55      1.0000 0.38821  0.76641  0.23922  Biso   1.000  C
  C56      1.0000 0.32262  0.63843  0.23024  Biso   1.000  C
  C57      1.0000 0.86270  0.64872  0.25560  Biso   1.000  C
  C58      1.0000 0.79792  0.58180  0.23884  Biso   1.000  C
  C59      1.0000 0.68604  0.57127  0.19308  Biso   1.000  C
  C60      1.0000 0.64198  0.62878  0.16676  Biso   1.000  C
  C61      1.0000 0.70689  0.69517  0.18478  Biso   1.000  C
  C62      1.0000 0.81834  0.70645  0.22888  Biso   1.000  C
  C63      1.0000 0.84095  0.44689  0.46730  Biso   1.000  C
  C64      1.0000 0.89456  0.41962  0.41892  Biso   1.000  C
  C65      1.0000 0.98888  0.36963  0.42496  Biso   1.000  C
  C66      1.0000 0.02848  0.34902  0.47956  Biso   1.000  C
  C67      1.0000 0.97519  0.37760  0.52758  Biso   1.000  C
  C68      1.0000 0.88055  0.42640  0.52290  Biso   1.000  C
  C69      1.0000 0.74781  0.49162  0.38902  Biso   1.000  C
  C70      1.0000 0.65632  0.53043  0.47964  Biso   1.000  C
  C71      1.0000 0.37773  0.41678  0.26346  Biso   1.000  C
  C72      1.0000 0.41787  0.39491  0.21014  Biso   1.000  C
  C73      1.0000 0.32767  0.36039  0.16034  Biso   1.000  C
  C74      1.0000 0.20067  0.34591  0.16314  Biso   1.000  C
  C75      1.0000 0.16293  0.36745  0.21646  Biso   1.000  C
  C76      1.0000 0.24993  0.40283  0.26606  Biso   1.000  C
  C77      1.0000 0.55772  0.40714  0.20744  Biso   1.000  C
  C78      1.0000 0.10050  0.30960  0.11060  Biso   1.000  C
  C79      1.0000 0.88157  0.05287  0.04174  Biso   1.000  C
  C80      1.0000 0.96335  0.11373  0.05110  Biso   1.000  C
  C81      1.0000 0.08483  0.11835  0.09006  Biso   1.000  C
  C82      1.0000 0.12016  0.06192  0.11892  Biso   1.000  C
  C83      1.0000 0.03794  0.00190  0.10928  Biso   1.000  C
  C84      1.0000 0.91834  0.99623  0.07068  Biso   1.000  C
  C85      1.0000 0.79004  0.12907  0.98568  Biso   1.000  C
  C86      1.0000 0.65600  0.01780  0.97400  Biso   1.000  C
  C87      1.0000 0.56176  0.02360  0.01432  Biso   1.000  C
  C88      1.0000 0.23644  0.63242  0.27248  Biso   1.000  C
  C89      1.0000 0.93593  0.98081  0.48286  Biso   1.000  C
  C90      1.0000 0.34542  0.07392  0.31004  Biso   1.000  C
  C91      1.0000 0.25426  0.19488  0.32892  Biso   1.000  C
  C92      1.0000 0.12230  0.20014  0.28800  Biso   1.000  C
  C93      1.0000 0.77241  0.20764  0.29702  Biso   1.000  C
  C94      1.0000 0.74488  0.27960  0.30836  Biso   1.000  C
  C95      1.0000 0.67117  0.30326  0.34974  Biso   1.000  C
  C96      1.0000 0.63323  0.25414  0.38046  Biso   1.000  C
  C97      1.0000 0.66707  0.18350  0.37034  Biso   1.000  C
  C98      1.0000 0.73507  0.15829  0.32814  Biso   1.000  C
  C99      1.0000 0.85101  0.26641  0.23922  Biso   1.000  C
  C100     1.0000 0.90762  0.13843  0.23024  Biso   1.000  C
  C101     1.0000 0.39290  0.14872  0.25560  Biso   1.000  C
  C102     1.0000 0.44092  0.08180  0.23884  Biso   1.000  C
  C103     1.0000 0.50704  0.07127  0.19308  Biso   1.000  C
  C104     1.0000 0.52478  0.12878  0.16676  Biso   1.000  C
  C105     1.0000 0.47789  0.19517  0.18478  Biso   1.000  C
  C106     1.0000 0.41054  0.20645  0.22888  Biso   1.000  C
  C107     1.0000 0.62635  0.94689  0.46730  Biso   1.000  C
  C108     1.0000 0.52436  0.91962  0.41892  Biso   1.000  C
  C109     1.0000 0.43608  0.86963  0.42496  Biso   1.000  C
  C110     1.0000 0.45108  0.84902  0.47956  Biso   1.000  C
  C111     1.0000 0.55239  0.87760  0.52758  Biso   1.000  C
  C112     1.0000 0.64235  0.92640  0.52290  Biso   1.000  C
  C113     1.0000 0.64121  0.99162  0.38902  Biso   1.000  C
  C114     1.0000 0.82332  0.03043  0.47964  Biso   1.000  C
  C115     1.0000 0.88573  0.91678  0.26346  Biso   1.000  C
  C116     1.0000 0.79227  0.89491  0.21014  Biso   1.000  C
  C117     1.0000 0.83267  0.86039  0.16034  Biso   1.000  C
  C118     1.0000 0.96247  0.84591  0.16314  Biso   1.000  C
  C119     1.0000 0.05353  0.86745  0.21646  Biso   1.000  C
  C120     1.0000 0.01613  0.90283  0.26606  Biso   1.000  C
  C121     1.0000 0.64972  0.90714  0.20744  Biso   1.000  C
  C122     1.0000 0.01010  0.80960  0.11060  Biso   1.000  C
  C123     1.0000 0.16017  0.55287  0.04174  Biso   1.000  C
  C124     1.0000 0.08775  0.61373  0.05110  Biso   1.000  C
  C125     1.0000 0.00523  0.61835  0.09006  Biso   1.000  C
  C126     1.0000 0.99876  0.56192  0.11892  Biso   1.000  C
  C127     1.0000 0.07134  0.50190  0.10928  Biso   1.000  C
  C128     1.0000 0.15234  0.49623  0.07068  Biso   1.000  C
  C129     1.0000 0.19564  0.62907  0.98568  Biso   1.000  C
  C130     1.0000 0.31800  0.51780  0.97400  Biso   1.000  C
  C131     1.0000 0.45256  0.52360  0.01432  Biso   1.000  C
  C132     1.0000 0.03604  0.13242  0.27248  Biso   1.000  C
  C133     1.0000 0.45307  0.51919  0.51714  Biso   1.000  C
  C134     1.0000 0.03538  0.42608  0.68996  Biso   1.000  C
  C135     1.0000 0.92534  0.30512  0.67108  Biso   1.000  C
  C136     1.0000 0.83430  0.29986  0.71200  Biso   1.000  C
  C137     1.0000 0.47539  0.29236  0.70298  Biso   1.000  C
  C138     1.0000 0.43652  0.22040  0.69164  Biso   1.000  C
  C139     1.0000 0.32143  0.19674  0.65026  Biso   1.000  C
  C140     1.0000 0.25277  0.24586  0.61954  Biso   1.000  C
  C141     1.0000 0.29673  0.31650  0.62966  Biso   1.000  C
  C142     1.0000 0.40693  0.34171  0.67186  Biso   1.000  C
  C143     1.0000 0.61179  0.23359  0.76078  Biso   1.000  C
  C144     1.0000 0.67738  0.36157  0.76976  Biso   1.000  C
  C145     1.0000 0.13730  0.35128  0.74440  Biso   1.000  C
  C146     1.0000 0.20208  0.41820  0.76116  Biso   1.000  C
  C147     1.0000 0.31396  0.42873  0.80692  Biso   1.000  C
  C148     1.0000 0.35802  0.37122  0.83324  Biso   1.000  C
  C149     1.0000 0.29311  0.30483  0.81522  Biso   1.000  C
  C150     1.0000 0.18166  0.29355  0.77112  Biso   1.000  C
  C151     1.0000 0.15905  0.55311  0.53270  Biso   1.000  C
  C152     1.0000 0.10544  0.58038  0.58108  Biso   1.000  C
  C153     1.0000 0.01112  0.63037  0.57504  Biso   1.000  C
  C154     1.0000 0.97152  0.65098  0.52044  Biso   1.000  C
  C155     1.0000 0.02481  0.62240  0.47242  Biso   1.000  C
  C156     1.0000 0.11945  0.57360  0.47710  Biso   1.000  C
  C157     1.0000 0.25219  0.50838  0.61098  Biso   1.000  C
  C158     1.0000 0.34368  0.46957  0.52036  Biso   1.000  C
  C159     1.0000 0.62227  0.58322  0.73654  Biso   1.000  C
  C160     1.0000 0.58213  0.60509  0.78986  Biso   1.000  C
  C161     1.0000 0.67233  0.63961  0.83966  Biso   1.000  C
  C162     1.0000 0.79933  0.65409  0.83686  Biso   1.000  C
  C163     1.0000 0.83707  0.63255  0.78354  Biso   1.000  C
  C164     1.0000 0.75007  0.59717  0.73394  Biso   1.000  C
  C165     1.0000 0.44228  0.59286  0.79256  Biso   1.000  C
  C166     1.0000 0.89950  0.69040  0.88940  Biso   1.000  C
  C167     1.0000 0.11843  0.94713  0.95826  Biso   1.000  C
  C168     1.0000 0.03665  0.88627  0.94890  Biso   1.000  C
  C169     1.0000 0.91517  0.88165  0.90994  Biso   1.000  C
  C170     1.0000 0.87984  0.93808  0.88108  Biso   1.000  C
  C171     1.0000 0.96206  0.99810  0.89072  Biso   1.000  C
  C172     1.0000 0.08166  0.00377  0.92932  Biso   1.000  C
  C173     1.0000 0.20996  0.87093  0.01432  Biso   1.000  C
  C174     1.0000 0.34400  0.98220  0.02600  Biso   1.000  C
  C175     1.0000 0.43824  0.97640  0.98568  Biso   1.000  C
  C176     1.0000 0.76356  0.36758  0.72752  Biso   1.000  C
  S1       1.0000 0.86209  0.07412  0.66720  Biso   1.000  S
  S2       1.0000 0.19489  0.42588  0.33280  Biso   1.000  S
  S3       1.0000 0.13791  0.92588  0.33280  Biso   1.000  S
  S4       1.0000 0.80511  0.57412  0.66720  Biso   1.000  S
  N1       1.0000 0.59079  0.96475  0.72558  Biso   1.000  N
  N2       1.0000 0.66724  0.85807  0.69868  Biso   1.000  N
  N3       1.0000 0.20080  0.68412  0.72820  Biso   1.000  N
  N4       1.0000 0.16175  0.79940  0.74850  Biso   1.000  N
  N5       1.0000 0.46348  0.05024  0.63036  Biso   1.000  N
  N6       1.0000 0.30050  0.00662  0.55320  Biso   1.000  N
  N7       1.0000 0.88758  0.33879  0.98496  Biso   1.000  N
  N8       1.0000 0.77243  0.43501  0.00046  Biso   1.000  N
  N9       1.0000 0.86521  0.53525  0.27442  Biso   1.000  N
  N10      1.0000 0.96856  0.64193  0.30132  Biso   1.000  N
  N11      1.0000 0.47260  0.81588  0.27180  Biso   1.000  N
  N12      1.0000 0.41325  0.70060  0.25150  Biso   1.000  N
  N13      1.0000 0.83312  0.44976  0.36964  Biso   1.000  N
  N14      1.0000 0.74730  0.49338  0.44680  Biso   1.000  N
  N15      1.0000 0.90262  0.16121  0.01504  Biso   1.000  N
  N16      1.0000 0.77197  0.06499  0.99954  Biso   1.000  N
  N17      1.0000 0.40921  0.03525  0.27442  Biso   1.000  N
  N18      1.0000 0.33276  0.14193  0.30132  Biso   1.000  N
  N19      1.0000 0.79920  0.31588  0.27180  Biso   1.000  N
  N20      1.0000 0.83825  0.20060  0.25150  Biso   1.000  N
  N21      1.0000 0.53652  0.94976  0.36964  Biso   1.000  N
  N22      1.0000 0.69950  0.99338  0.44680  Biso   1.000  N
  N23      1.0000 0.11242  0.66121  0.01504  Biso   1.000  N
  N24      1.0000 0.22757  0.56499  0.99954  Biso   1.000  N
  N25      1.0000 0.13479  0.46475  0.72558  Biso   1.000  N
  N26      1.0000 0.03144  0.35807  0.69868  Biso   1.000  N
  N27      1.0000 0.52740  0.18412  0.72820  Biso   1.000  N
  N28      1.0000 0.58675  0.29940  0.74850  Biso   1.000  N
  N29      1.0000 0.16688  0.55024  0.63036  Biso   1.000  N
  N30      1.0000 0.25270  0.50662  0.55320  Biso   1.000  N
  N31      1.0000 0.09738  0.83879  0.98496  Biso   1.000  N
  N32      1.0000 0.22803  0.93501  0.00046  Biso   1.000  N
  O1       1.0000 0.37954  0.06288  0.74530  Biso   1.000  O
  O2       1.0000 0.42931  0.11354  0.84096  Biso   1.000  O
  O3       1.0000 0.87130  0.19560  0.88660  Biso   1.000  O
  O4       1.0000 0.07640  0.21489  0.93660  Biso   1.000  O
  O5       1.0000 0.74023  0.08079  0.68746  Biso   1.000  O
  O6       1.0000 0.87844  0.12541  0.63068  Biso   1.000  O
  O7       1.0000 0.88356  0.00198  0.64212  Biso   1.000  O
  O8       1.0000 0.66044  0.09487  0.81690  Biso   1.000  O
  O9       1.0000 0.63424  0.43712  0.25470  Biso   1.000  O
  O10      1.0000 0.58835  0.38646  0.15904  Biso   1.000  O
  O11      1.0000 0.98470  0.30440  0.11340  Biso   1.000  O
  O12      1.0000 0.13980  0.28511  0.06340  Biso   1.000  O
  O13      1.0000 0.05277  0.41921  0.31254  Biso   1.000  O
  O14      1.0000 0.24776  0.37459  0.36932  Biso   1.000  O
  O15      1.0000 0.24144  0.49802  0.35788  Biso   1.000  O
  O16      1.0000 0.84354  0.40513  0.18310  Biso   1.000  O
  O17      1.0000 0.62046  0.93712  0.25470  Biso   1.000  O
  O18      1.0000 0.57069  0.88646  0.15904  Biso   1.000  O
  O19      1.0000 0.12870  0.80440  0.11340  Biso   1.000  O
  O20      1.0000 0.92360  0.78511  0.06340  Biso   1.000  O
  O21      1.0000 0.25977  0.91921  0.31254  Biso   1.000  O
  O22      1.0000 0.12156  0.87459  0.36932  Biso   1.000  O
  O23      1.0000 0.11644  0.99802  0.35788  Biso   1.000  O
  O24      1.0000 0.33956  0.90513  0.18310  Biso   1.000  O
  O25      1.0000 0.36576  0.56288  0.74530  Biso   1.000  O
  O26      1.0000 0.41165  0.61354  0.84096  Biso   1.000  O
  O27      1.0000 0.01530  0.69560  0.88660  Biso   1.000  O
  O28      1.0000 0.86020  0.71489  0.93660  Biso   1.000  O
  O29      1.0000 0.94723  0.58079  0.68746  Biso   1.000  O
  O30      1.0000 0.75224  0.62541  0.63068  Biso   1.000  O
  O31      1.0000 0.75856  0.50198  0.64212  Biso   1.000  O
  O32      1.0000 0.15646  0.59487  0.81690  Biso   1.000  O
