data_image0
_cell_length_a       9.361
_cell_length_b       12.713
_cell_length_c       12.755
_cell_angle_alpha    111.843
_cell_angle_beta     105.938
_cell_angle_gamma    97.104

_symmetry_space_group_name_H-M    P 1
_symmetry_int_tables_number       1

loop_
  _symmetry_equiv_pos_as_xyz
  'x, y, z'

loop_
  _atom_site_label
  _atom_site_occupancy
  _atom_site_fract_x
  _atom_site_fract_y
  _atom_site_fract_z
  _atom_site_thermal_displace_type
  _atom_site_B_iso_or_equiv
  _atom_site_type_symbol
  Cd1      1.0000 0.01485  0.39669  0.57774  Biso   1.000  Cd
  Cd2      1.0000 0.98515  0.60331  0.42226  Biso   1.000  Cd
  H1       1.0000 0.62520  0.35260  0.44710  Biso   1.000  H
  H2       1.0000 0.44400  0.17650  0.28020  Biso   1.000  H
  H3       1.0000 0.86490  0.13490  0.33960  Biso   1.000  H
  H4       1.0000 0.38810  0.95640  0.20260  Biso   1.000  H
  H5       1.0000 0.29090  0.77320  0.04050  Biso   1.000  H
  H6       1.0000 0.66520  0.82910  0.95290  Biso   1.000  H
  H7       1.0000 0.75950  0.01090  0.11480  Biso   1.000  H
  H8       1.0000 0.18190  0.65750  0.82380  Biso   1.000  H
  H9       1.0000 0.59510  0.60480  0.85370  Biso   1.000  H
  H10      1.0000 0.40670  0.43940  0.67920  Biso   1.000  H
  H11      1.0000 0.06400  0.06110  0.63390  Biso   1.000  H
  H12      1.0000 0.22940  0.14120  0.71410  Biso   1.000  H
  H13      1.0000 0.41790  0.23860  0.68860  Biso   1.000  H
  H14      1.0000 0.22520  0.85340  0.40710  Biso   1.000  H
  H15      1.0000 0.67500  0.28360  0.70610  Biso   1.000  H
  H16      1.0000 0.69840  0.67120  0.64030  Biso   1.000  H
  H17      1.0000 0.84940  0.73780  0.63770  Biso   1.000  H
  H18      1.0000 0.83520  0.90270  0.69410  Biso   1.000  H
  H19      1.0000 0.91580  0.10550  0.78600  Biso   1.000  H
  H20      1.0000 0.02900  0.20420  0.99030  Biso   1.000  H
  H21      1.0000 0.37480  0.64740  0.55290  Biso   1.000  H
  H22      1.0000 0.55600  0.82350  0.71980  Biso   1.000  H
  H23      1.0000 0.13510  0.86510  0.66040  Biso   1.000  H
  H24      1.0000 0.61190  0.04360  0.79740  Biso   1.000  H
  H25      1.0000 0.70910  0.22680  0.95950  Biso   1.000  H
  H26      1.0000 0.33480  0.17090  0.04710  Biso   1.000  H
  H27      1.0000 0.24050  0.98910  0.88520  Biso   1.000  H
  H28      1.0000 0.81810  0.34250  0.17620  Biso   1.000  H
  H29      1.0000 0.40490  0.39520  0.14630  Biso   1.000  H
  H30      1.0000 0.59330  0.56060  0.32080  Biso   1.000  H
  H31      1.0000 0.93600  0.93890  0.36610  Biso   1.000  H
  H32      1.0000 0.77060  0.85880  0.28590  Biso   1.000  H
  H33      1.0000 0.58210  0.76140  0.31140  Biso   1.000  H
  H34      1.0000 0.77480  0.14660  0.59290  Biso   1.000  H
  H35      1.0000 0.32500  0.71640  0.29390  Biso   1.000  H
  H36      1.0000 0.30160  0.32880  0.35970  Biso   1.000  H
  H37      1.0000 0.15060  0.26220  0.36230  Biso   1.000  H
  H38      1.0000 0.16480  0.09730  0.30590  Biso   1.000  H
  H39      1.0000 0.08420  0.89450  0.21400  Biso   1.000  H
  H40      1.0000 0.97100  0.79580  0.00970  Biso   1.000  H
  C1       1.0000 0.65080  0.28520  0.40440  Biso   1.000  C
  C2       1.0000 0.55000  0.18930  0.31140  Biso   1.000  C
  C3       1.0000 0.78250  0.16780  0.34620  Biso   1.000  C
  C4       1.0000 0.57910  0.00150  0.17170  Biso   1.000  C
  C5       1.0000 0.44260  0.93060  0.15110  Biso   1.000  C
  C6       1.0000 0.38430  0.82100  0.05470  Biso   1.000  C
  C7       1.0000 0.46910  0.78410  0.97980  Biso   1.000  C
  C8       1.0000 0.60870  0.85500  0.00280  Biso   1.000  C
  C9       1.0000 0.66500  0.96360  0.09900  Biso   1.000  C
  C10      1.0000 0.26070  0.62320  0.80920  Biso   1.000  C
  C11      1.0000 0.48940  0.59560  0.82680  Biso   1.000  C
  C12      1.0000 0.38470  0.50420  0.73060  Biso   1.000  C
  C13      1.0000 0.10690  0.20920  0.60720  Biso   1.000  C
  C14      1.0000 0.15330  0.10850  0.63370  Biso   1.000  C
  C15      1.0000 0.36710  0.07290  0.56860  Biso   1.000  C
  C16      1.0000 0.45780  0.18190  0.64360  Biso   1.000  C
  C17      1.0000 0.42140  0.98550  0.49370  Biso   1.000  C
  C18      1.0000 0.32760  0.87260  0.41400  Biso   1.000  C
  C19      1.0000 0.61250  0.20910  0.65330  Biso   1.000  C
  C20      1.0000 0.86680  0.58350  0.64890  Biso   1.000  C
  C21      1.0000 0.80960  0.69240  0.67470  Biso   1.000  C
  C22      1.0000 0.90500  0.88150  0.84630  Biso   1.000  C
  C23      1.0000 0.88230  0.94220  0.77730  Biso   1.000  C
  C24      1.0000 0.93050  0.06370  0.83280  Biso   1.000  C
  C25      1.0000 0.99900  0.12280  0.95490  Biso   1.000  C
  C26      1.0000 0.97510  0.93820  0.97220  Biso   1.000  C
  C27      1.0000 0.34920  0.71480  0.59560  Biso   1.000  C
  C28      1.0000 0.45000  0.81070  0.68860  Biso   1.000  C
  C29      1.0000 0.21750  0.83220  0.65380  Biso   1.000  C
  C30      1.0000 0.42090  0.99850  0.82830  Biso   1.000  C
  C31      1.0000 0.55740  0.06940  0.84890  Biso   1.000  C
  C32      1.0000 0.61570  0.17900  0.94530  Biso   1.000  C
  C33      1.0000 0.53090  0.21590  0.02020  Biso   1.000  C
  C34      1.0000 0.39130  0.14500  0.99720  Biso   1.000  C
  C35      1.0000 0.33500  0.03640  0.90100  Biso   1.000  C
  C36      1.0000 0.73930  0.37680  0.19080  Biso   1.000  C
  C37      1.0000 0.51060  0.40440  0.17320  Biso   1.000  C
  C38      1.0000 0.61530  0.49580  0.26940  Biso   1.000  C
  C39      1.0000 0.89310  0.79080  0.39280  Biso   1.000  C
  C40      1.0000 0.84670  0.89150  0.36630  Biso   1.000  C
  C41      1.0000 0.63290  0.92710  0.43140  Biso   1.000  C
  C42      1.0000 0.54220  0.81810  0.35640  Biso   1.000  C
  C43      1.0000 0.57860  0.01450  0.50630  Biso   1.000  C
  C44      1.0000 0.67240  0.12740  0.58600  Biso   1.000  C
  C45      1.0000 0.38750  0.79090  0.34670  Biso   1.000  C
  C46      1.0000 0.13320  0.41650  0.35110  Biso   1.000  C
  C47      1.0000 0.19040  0.30760  0.32530  Biso   1.000  C
  C48      1.0000 0.09500  0.11850  0.15370  Biso   1.000  C
  C49      1.0000 0.11770  0.05780  0.22270  Biso   1.000  C
  C50      1.0000 0.06950  0.93630  0.16720  Biso   1.000  C
  C51      1.0000 0.00100  0.87720  0.04510  Biso   1.000  C
  C52      1.0000 0.02490  0.06180  0.02780  Biso   1.000  C
  N1       1.0000 0.79570  0.26970  0.42720  Biso   1.000  N
  N2       1.0000 0.63740  0.11430  0.27240  Biso   1.000  N
  N3       1.0000 0.41060  0.67280  0.87780  Biso   1.000  N
  N4       1.0000 0.23830  0.52170  0.72000  Biso   1.000  N
  N5       1.0000 0.20430  0.73030  0.57280  Biso   1.000  N
  N6       1.0000 0.36260  0.88570  0.72760  Biso   1.000  N
  N7       1.0000 0.58940  0.32720  0.12220  Biso   1.000  N
  N8       1.0000 0.76170  0.47830  0.28000  Biso   1.000  N
  O1       1.0000 0.12290  0.22200  0.51950  Biso   1.000  O
  O2       1.0000 0.05100  0.27440  0.67760  Biso   1.000  O
  O3       1.0000 0.89570  0.54540  0.55380  Biso   1.000  O
  O4       1.0000 0.88730  0.53480  0.71700  Biso   1.000  O
  O5       1.0000 0.85760  0.76120  0.80140  Biso   1.000  O
  O6       1.0000 0.21370  0.03460  0.55300  Biso   1.000  O
  O7       1.0000 0.87710  0.77800  0.48050  Biso   1.000  O
  O8       1.0000 0.94900  0.72560  0.32240  Biso   1.000  O
  O9       1.0000 0.10430  0.45460  0.44620  Biso   1.000  O
  O10      1.0000 0.11270  0.46520  0.28300  Biso   1.000  O
  O11      1.0000 0.14240  0.23880  0.19860  Biso   1.000  O
  O12      1.0000 0.78630  0.96540  0.44700  Biso   1.000  O
