data_image0
_cell_length_a       28.528
_cell_length_b       8.426
_cell_length_c       16.159
_cell_angle_alpha    90
_cell_angle_beta     90
_cell_angle_gamma    90

_symmetry_space_group_name_H-M    "P 1"
_symmetry_int_tables_number       1

loop_
  _symmetry_equiv_pos_as_xyz
  'x, y, z'

loop_
  _atom_site_label
  _atom_site_occupancy
  _atom_site_fract_x
  _atom_site_fract_y
  _atom_site_fract_z
  _atom_site_thermal_displace_type
  _atom_site_B_iso_or_equiv
  _atom_site_type_symbol
  Zn1      1.0000 0.12261  0.25865  0.23405  Biso   1.000  Zn
  O1       1.0000 0.05331  0.06490  0.43360  Biso   1.000  O
  O2       1.0000 0.07547  0.24490  0.31710  Biso   1.000  O
  O3       1.0000 0.10473  0.29450  0.46288  Biso   1.000  O
  O4       1.0000 0.09382  0.82310  0.62941  Biso   1.000  O
  O5       1.0000 0.07814  0.66050  0.50150  Biso   1.000  O
  O6       1.0000 0.01282  0.81430  0.56638  Biso   1.000  O
  P1       1.0000 0.06586  0.23337  0.40852  Biso   1.000  P
  H1       1.0000 0.02910  0.32300  0.42500  Biso   1.000  H
  P2       1.0000 0.05834  0.72480  0.58173  Biso   1.000  P
  H2       1.0000 0.04760  0.59900  0.62600  Biso   1.000  H
  Zn2      1.0000 0.12261  0.75865  0.73405  Biso   1.000  Zn
  O7       1.0000 0.05331  0.56490  0.93360  Biso   1.000  O
  O8       1.0000 0.07547  0.74490  0.81710  Biso   1.000  O
  O9       1.0000 0.10473  0.79450  0.96288  Biso   1.000  O
  O10      1.0000 0.09382  0.32310  0.12941  Biso   1.000  O
  O11      1.0000 0.07814  0.16050  0.00150  Biso   1.000  O
  O12      1.0000 0.01282  0.31430  0.06638  Biso   1.000  O
  P3       1.0000 0.06586  0.73337  0.90852  Biso   1.000  P
  H3       1.0000 0.02910  0.82300  0.92500  Biso   1.000  H
  P4       1.0000 0.05834  0.22480  0.08173  Biso   1.000  P
  H4       1.0000 0.04760  0.09900  0.12600  Biso   1.000  H
  Zn3      1.0000 0.62261  0.25865  0.73405  Biso   1.000  Zn
  O13      1.0000 0.55331  0.06490  0.93360  Biso   1.000  O
  O14      1.0000 0.57547  0.24490  0.81710  Biso   1.000  O
  O15      1.0000 0.60473  0.29450  0.96288  Biso   1.000  O
  O16      1.0000 0.59382  0.82310  0.12941  Biso   1.000  O
  O17      1.0000 0.57814  0.66050  0.00150  Biso   1.000  O
  O18      1.0000 0.51282  0.81430  0.06638  Biso   1.000  O
  P5       1.0000 0.56586  0.23337  0.90852  Biso   1.000  P
  H5       1.0000 0.52910  0.32300  0.92500  Biso   1.000  H
  P6       1.0000 0.55834  0.72480  0.08173  Biso   1.000  P
  H6       1.0000 0.54760  0.59900  0.12600  Biso   1.000  H
  Zn4      1.0000 0.62261  0.75865  0.23405  Biso   1.000  Zn
  O19      1.0000 0.55331  0.56490  0.43360  Biso   1.000  O
  O20      1.0000 0.57547  0.74490  0.31710  Biso   1.000  O
  O21      1.0000 0.60473  0.79450  0.46288  Biso   1.000  O
  O22      1.0000 0.59382  0.32310  0.62941  Biso   1.000  O
  O23      1.0000 0.57814  0.16050  0.50150  Biso   1.000  O
  O24      1.0000 0.51282  0.31430  0.56638  Biso   1.000  O
  P7       1.0000 0.56586  0.73337  0.40852  Biso   1.000  P
  H7       1.0000 0.52910  0.82300  0.42500  Biso   1.000  H
  P8       1.0000 0.55834  0.22480  0.58173  Biso   1.000  P
  H8       1.0000 0.54760  0.09900  0.62600  Biso   1.000  H
  Zn5      1.0000 0.87739  0.74135  0.23405  Biso   1.000  Zn
  O25      1.0000 0.94669  0.93510  0.43360  Biso   1.000  O
  O26      1.0000 0.92453  0.75510  0.31710  Biso   1.000  O
  O27      1.0000 0.89527  0.70550  0.46288  Biso   1.000  O
  O28      1.0000 0.90618  0.17690  0.62941  Biso   1.000  O
  O29      1.0000 0.92186  0.33950  0.50150  Biso   1.000  O
  O30      1.0000 0.98718  0.18570  0.56638  Biso   1.000  O
  P9       1.0000 0.93414  0.76663  0.40852  Biso   1.000  P
  H9       1.0000 0.97090  0.67700  0.42500  Biso   1.000  H
  P10      1.0000 0.94166  0.27520  0.58173  Biso   1.000  P
  H10      1.0000 0.95240  0.40100  0.62600  Biso   1.000  H
  Zn6      1.0000 0.87739  0.24135  0.73405  Biso   1.000  Zn
  O31      1.0000 0.94669  0.43510  0.93360  Biso   1.000  O
  O32      1.0000 0.92453  0.25510  0.81710  Biso   1.000  O
  O33      1.0000 0.89527  0.20550  0.96288  Biso   1.000  O
  O34      1.0000 0.90618  0.67690  0.12941  Biso   1.000  O
  O35      1.0000 0.92186  0.83950  0.00150  Biso   1.000  O
  O36      1.0000 0.98718  0.68570  0.06638  Biso   1.000  O
  P11      1.0000 0.93414  0.26663  0.90852  Biso   1.000  P
  H11      1.0000 0.97090  0.17700  0.92500  Biso   1.000  H
  P12      1.0000 0.94166  0.77520  0.08173  Biso   1.000  P
  H12      1.0000 0.95240  0.90100  0.12600  Biso   1.000  H
  Zn7      1.0000 0.37739  0.74135  0.73405  Biso   1.000  Zn
  O37      1.0000 0.44669  0.93510  0.93360  Biso   1.000  O
  O38      1.0000 0.42453  0.75510  0.81710  Biso   1.000  O
  O39      1.0000 0.39527  0.70550  0.96288  Biso   1.000  O
  O40      1.0000 0.40618  0.17690  0.12941  Biso   1.000  O
  O41      1.0000 0.42186  0.33950  0.00150  Biso   1.000  O
  O42      1.0000 0.48718  0.18570  0.06638  Biso   1.000  O
  P13      1.0000 0.43414  0.76663  0.90852  Biso   1.000  P
  H13      1.0000 0.47090  0.67700  0.92500  Biso   1.000  H
  P14      1.0000 0.44166  0.27520  0.08173  Biso   1.000  P
  H14      1.0000 0.45240  0.40100  0.12600  Biso   1.000  H
  Zn8      1.0000 0.37739  0.24135  0.23405  Biso   1.000  Zn
  O43      1.0000 0.44669  0.43510  0.43360  Biso   1.000  O
  O44      1.0000 0.42453  0.25510  0.31710  Biso   1.000  O
  O45      1.0000 0.39527  0.20550  0.46288  Biso   1.000  O
  O46      1.0000 0.40618  0.67690  0.62941  Biso   1.000  O
  O47      1.0000 0.42186  0.83950  0.50150  Biso   1.000  O
  O48      1.0000 0.48718  0.68570  0.56638  Biso   1.000  O
  P15      1.0000 0.43414  0.26663  0.40852  Biso   1.000  P
  H15      1.0000 0.47090  0.17700  0.42500  Biso   1.000  H
  P16      1.0000 0.44166  0.77520  0.58173  Biso   1.000  P
  H16      1.0000 0.45240  0.90100  0.62600  Biso   1.000  H
  Zn9      1.0000 0.37261  0.99135  0.48405  Biso   1.000  Zn
  O49      1.0000 0.30331  0.18510  0.68360  Biso   1.000  O
  O50      1.0000 0.32547  0.00510  0.56710  Biso   1.000  O
  O51      1.0000 0.35473  0.95550  0.71288  Biso   1.000  O
  O52      1.0000 0.34382  0.42690  0.87941  Biso   1.000  O
  O53      1.0000 0.32814  0.58950  0.75150  Biso   1.000  O
  O54      1.0000 0.26282  0.43570  0.81638  Biso   1.000  O
  P17      1.0000 0.31586  0.01663  0.65852  Biso   1.000  P
  H17      1.0000 0.27910  0.92700  0.67500  Biso   1.000  H
  P18      1.0000 0.30834  0.52520  0.83173  Biso   1.000  P
  H18      1.0000 0.29760  0.65100  0.87600  Biso   1.000  H
  Zn10     1.0000 0.37261  0.49135  0.98405  Biso   1.000  Zn
  O55      1.0000 0.30331  0.68510  0.18360  Biso   1.000  O
  O56      1.0000 0.32547  0.50510  0.06710  Biso   1.000  O
  O57      1.0000 0.35473  0.45550  0.21288  Biso   1.000  O
  O58      1.0000 0.34382  0.92690  0.37941  Biso   1.000  O
  O59      1.0000 0.32814  0.08950  0.25150  Biso   1.000  O
  O60      1.0000 0.26282  0.93570  0.31638  Biso   1.000  O
  P19      1.0000 0.31586  0.51663  0.15852  Biso   1.000  P
  H19      1.0000 0.27910  0.42700  0.17500  Biso   1.000  H
  P20      1.0000 0.30834  0.02520  0.33173  Biso   1.000  P
  H20      1.0000 0.29760  0.15100  0.37600  Biso   1.000  H
  Zn11     1.0000 0.87261  0.99135  0.98405  Biso   1.000  Zn
  O61      1.0000 0.80331  0.18510  0.18360  Biso   1.000  O
  O62      1.0000 0.82547  0.00510  0.06710  Biso   1.000  O
  O63      1.0000 0.85473  0.95550  0.21288  Biso   1.000  O
  O64      1.0000 0.84382  0.42690  0.37941  Biso   1.000  O
  O65      1.0000 0.82814  0.58950  0.25150  Biso   1.000  O
  O66      1.0000 0.76282  0.43570  0.31638  Biso   1.000  O
  P21      1.0000 0.81586  0.01663  0.15852  Biso   1.000  P
  H21      1.0000 0.77910  0.92700  0.17500  Biso   1.000  H
  P22      1.0000 0.80834  0.52520  0.33173  Biso   1.000  P
  H22      1.0000 0.79760  0.65100  0.37600  Biso   1.000  H
  Zn12     1.0000 0.87261  0.49135  0.48405  Biso   1.000  Zn
  O67      1.0000 0.80331  0.68510  0.68360  Biso   1.000  O
  O68      1.0000 0.82547  0.50510  0.56710  Biso   1.000  O
  O69      1.0000 0.85473  0.45550  0.71288  Biso   1.000  O
  O70      1.0000 0.84382  0.92690  0.87941  Biso   1.000  O
  O71      1.0000 0.82814  0.08950  0.75150  Biso   1.000  O
  O72      1.0000 0.76282  0.93570  0.81638  Biso   1.000  O
  P23      1.0000 0.81586  0.51663  0.65852  Biso   1.000  P
  H23      1.0000 0.77910  0.42700  0.67500  Biso   1.000  H
  P24      1.0000 0.80834  0.02520  0.83173  Biso   1.000  P
  H24      1.0000 0.79760  0.15100  0.87600  Biso   1.000  H
  Zn13     1.0000 0.12739  0.50865  0.48405  Biso   1.000  Zn
  O73      1.0000 0.19669  0.31490  0.68360  Biso   1.000  O
  O74      1.0000 0.17453  0.49490  0.56710  Biso   1.000  O
  O75      1.0000 0.14527  0.54450  0.71288  Biso   1.000  O
  O76      1.0000 0.15618  0.07310  0.87941  Biso   1.000  O
  O77      1.0000 0.17186  0.91050  0.75150  Biso   1.000  O
  O78      1.0000 0.23718  0.06430  0.81638  Biso   1.000  O
  P25      1.0000 0.18414  0.48337  0.65852  Biso   1.000  P
  H25      1.0000 0.22090  0.57300  0.67500  Biso   1.000  H
  P26      1.0000 0.19166  0.97480  0.83173  Biso   1.000  P
  H26      1.0000 0.20240  0.84900  0.87600  Biso   1.000  H
  Zn14     1.0000 0.12739  0.00865  0.98405  Biso   1.000  Zn
  O79      1.0000 0.19669  0.81490  0.18360  Biso   1.000  O
  O80      1.0000 0.17453  0.99490  0.06710  Biso   1.000  O
  O81      1.0000 0.14527  0.04450  0.21288  Biso   1.000  O
  O82      1.0000 0.15618  0.57310  0.37941  Biso   1.000  O
  O83      1.0000 0.17186  0.41050  0.25150  Biso   1.000  O
  O84      1.0000 0.23718  0.56430  0.31638  Biso   1.000  O
  P27      1.0000 0.18414  0.98337  0.15852  Biso   1.000  P
  H27      1.0000 0.22090  0.07300  0.17500  Biso   1.000  H
  P28      1.0000 0.19166  0.47480  0.33173  Biso   1.000  P
  H28      1.0000 0.20240  0.34900  0.37600  Biso   1.000  H
  Zn15     1.0000 0.62739  0.50865  0.98405  Biso   1.000  Zn
  O85      1.0000 0.69669  0.31490  0.18360  Biso   1.000  O
  O86      1.0000 0.67453  0.49490  0.06710  Biso   1.000  O
  O87      1.0000 0.64527  0.54450  0.21288  Biso   1.000  O
  O88      1.0000 0.65618  0.07310  0.37941  Biso   1.000  O
  O89      1.0000 0.67186  0.91050  0.25150  Biso   1.000  O
  O90      1.0000 0.73718  0.06430  0.31638  Biso   1.000  O
  P29      1.0000 0.68414  0.48337  0.15852  Biso   1.000  P
  H29      1.0000 0.72090  0.57300  0.17500  Biso   1.000  H
  P30      1.0000 0.69166  0.97480  0.33173  Biso   1.000  P
  H30      1.0000 0.70240  0.84900  0.37600  Biso   1.000  H
  Zn16     1.0000 0.62739  0.00865  0.48405  Biso   1.000  Zn
  O91      1.0000 0.69669  0.81490  0.68360  Biso   1.000  O
  O92      1.0000 0.67453  0.99490  0.56710  Biso   1.000  O
  O93      1.0000 0.64527  0.04450  0.71288  Biso   1.000  O
  O94      1.0000 0.65618  0.57310  0.87941  Biso   1.000  O
  O95      1.0000 0.67186  0.41050  0.75150  Biso   1.000  O
  O96      1.0000 0.73718  0.56430  0.81638  Biso   1.000  O
  P31      1.0000 0.68414  0.98337  0.65852  Biso   1.000  P
  H31      1.0000 0.72090  0.07300  0.67500  Biso   1.000  H
  P32      1.0000 0.69166  0.47480  0.83173  Biso   1.000  P
  H32      1.0000 0.70240  0.34900  0.87600  Biso   1.000  H
  Zn17     1.0000 0.00000  0.00000  0.50018  Biso   1.000  Zn
  Zn18     1.0000 0.00000  0.50000  0.00018  Biso   1.000  Zn
  Zn19     1.0000 0.50000  0.00000  0.00018  Biso   1.000  Zn
  Zn20     1.0000 0.50000  0.50000  0.50018  Biso   1.000  Zn
  Zn21     1.0000 0.25000  0.25000  0.75018  Biso   1.000  Zn
  Zn22     1.0000 0.25000  0.75000  0.25018  Biso   1.000  Zn
  Zn23     1.0000 0.75000  0.25000  0.25018  Biso   1.000  Zn
  Zn24     1.0000 0.75000  0.75000  0.75018  Biso   1.000  Zn
