data_image0
_cell_length_a       7.47398
_cell_length_b       11.6823
_cell_length_c       28.155
_cell_angle_alpha    88.017
_cell_angle_beta     83.79
_cell_angle_gamma    71.344

_symmetry_space_group_name_H-M    P 1
_symmetry_int_tables_number       1

loop_
  _symmetry_equiv_pos_as_xyz
  'x, y, z'

loop_
  _atom_site_label
  _atom_site_occupancy
  _atom_site_fract_x
  _atom_site_fract_y
  _atom_site_fract_z
  _atom_site_thermal_displace_type
  _atom_site_B_iso_or_equiv
  _atom_site_type_symbol
  Co1      1.0000 0.11902  0.76196  0.25000  Biso   1.000  Co
  Co2      1.0000 0.88098  0.23804  0.75000  Biso   1.000  Co
  Cu1      1.0000 0.41121  0.13316  0.03193  Biso   1.000  Cu
  Cu2      1.0000 0.45563  0.13316  0.46807  Biso   1.000  Cu
  Cu3      1.0000 0.58879  0.86684  0.96807  Biso   1.000  Cu
  Cu4      1.0000 0.54437  0.86684  0.53193  Biso   1.000  Cu
  H1       1.0000 0.44100  0.95000  0.11900  Biso   1.000  H
  H2       1.0000 0.66800  0.92800  0.18000  Biso   1.000  H
  H3       1.0000 0.89500  0.04200  0.15400  Biso   1.000  H
  H4       1.0000 0.78600  0.17200  0.03800  Biso   1.000  H
  H5       1.0000 0.92200  0.17000  0.07700  Biso   1.000  H
  H6       1.0000 0.78300  0.44600  0.05300  Biso   1.000  H
  H7       1.0000 0.50100  0.68400  0.02000  Biso   1.000  H
  H8       1.0000 0.66500  0.58600  0.99100  Biso   1.000  H
  H9       1.0000 0.05800  0.44200  0.92100  Biso   1.000  H
  H10      1.0000 0.07700  0.10600  0.97000  Biso   1.000  H
  H11      1.0000 0.56700  0.29200  0.15200  Biso   1.000  H
  H12      1.0000 0.43500  0.44800  0.21000  Biso   1.000  H
  H13      1.0000 0.41700  0.58200  0.19800  Biso   1.000  H
  H14      1.0000 0.15700  0.38400  0.16000  Biso   1.000  H
  H15      1.0000 0.79700  0.49200  0.17600  Biso   1.000  H
  H16      1.0000 0.76690  0.68800  0.20900  Biso   1.000  H
  H17      1.0000 0.60900  0.95000  0.38100  Biso   1.000  H
  H18      1.0000 0.40400  0.92800  0.32000  Biso   1.000  H
  H19      1.0000 0.06300  0.04200  0.34600  Biso   1.000  H
  H20      1.0000 0.04200  0.17200  0.46200  Biso   1.000  H
  H21      1.0000 0.90800  0.17000  0.42300  Biso   1.000  H
  H22      1.0000 0.77100  0.44600  0.44700  Biso   1.000  H
  H23      1.0000 0.81500  0.68400  0.48000  Biso   1.000  H
  H24      1.0000 0.74900  0.58600  0.50900  Biso   1.000  H
  H25      1.0000 0.50000  0.44200  0.57900  Biso   1.000  H
  H26      1.0000 0.81700  0.10600  0.53000  Biso   1.000  H
  H27      1.0000 0.14100  0.29200  0.34800  Biso   1.000  H
  H28      1.0000 0.11700  0.44800  0.29000  Biso   1.000  H
  H29      1.0000 0.00100  0.58200  0.30200  Biso   1.000  H
  H30      1.0000 0.45900  0.38400  0.34000  Biso   1.000  H
  H31      1.0000 0.71100  0.49200  0.32400  Biso   1.000  H
  H32      1.0000 0.54510  0.68800  0.29100  Biso   1.000  H
  H33      1.0000 0.55900  0.05000  0.88100  Biso   1.000  H
  H34      1.0000 0.33200  0.07200  0.82000  Biso   1.000  H
  H35      1.0000 0.10500  0.95800  0.84600  Biso   1.000  H
  H36      1.0000 0.21400  0.82800  0.96200  Biso   1.000  H
  H37      1.0000 0.07800  0.83000  0.92300  Biso   1.000  H
  H38      1.0000 0.21700  0.55400  0.94700  Biso   1.000  H
  H39      1.0000 0.49900  0.31600  0.98000  Biso   1.000  H
  H40      1.0000 0.33500  0.41400  0.00900  Biso   1.000  H
  H41      1.0000 0.94200  0.55800  0.07900  Biso   1.000  H
  H42      1.0000 0.92300  0.89400  0.03000  Biso   1.000  H
  H43      1.0000 0.43300  0.70800  0.84800  Biso   1.000  H
  H44      1.0000 0.56500  0.55200  0.79000  Biso   1.000  H
  H45      1.0000 0.58300  0.41800  0.80200  Biso   1.000  H
  H46      1.0000 0.84300  0.61600  0.84000  Biso   1.000  H
  H47      1.0000 0.20300  0.50800  0.82400  Biso   1.000  H
  H48      1.0000 0.23310  0.31200  0.79100  Biso   1.000  H
  H49      1.0000 0.39100  0.05000  0.61900  Biso   1.000  H
  H50      1.0000 0.59600  0.07200  0.68000  Biso   1.000  H
  H51      1.0000 0.93700  0.95800  0.65400  Biso   1.000  H
  H52      1.0000 0.95800  0.82800  0.53800  Biso   1.000  H
  H53      1.0000 0.09200  0.83000  0.57700  Biso   1.000  H
  H54      1.0000 0.22900  0.55400  0.55300  Biso   1.000  H
  H55      1.0000 0.18500  0.31600  0.52000  Biso   1.000  H
  H56      1.0000 0.25100  0.41400  0.49100  Biso   1.000  H
  H57      1.0000 0.50000  0.55800  0.42100  Biso   1.000  H
  H58      1.0000 0.18300  0.89400  0.47000  Biso   1.000  H
  H59      1.0000 0.85900  0.70800  0.65200  Biso   1.000  H
  H60      1.0000 0.88300  0.55200  0.71000  Biso   1.000  H
  H61      1.0000 0.99900  0.41800  0.69800  Biso   1.000  H
  H62      1.0000 0.54100  0.61600  0.66000  Biso   1.000  H
  H63      1.0000 0.28900  0.50800  0.67600  Biso   1.000  H
  H64      1.0000 0.45490  0.31200  0.70900  Biso   1.000  H
  C1       1.0000 0.53700  0.99140  0.11910  Biso   1.000  C
  C2       1.0000 0.66570  0.97220  0.15320  Biso   1.000  C
  C3       1.0000 0.77550  0.04100  0.14030  Biso   1.000  C
  C4       1.0000 0.78580  0.18660  0.07250  Biso   1.000  C
  C5       1.0000 0.68110  0.31760  0.08400  Biso   1.000  C
  C6       1.0000 0.69320  0.40200  0.05010  Biso   1.000  C
  C7       1.0000 0.60160  0.52900  0.06030  Biso   1.000  C
  C8       1.0000 0.62940  0.62100  0.02330  Biso   1.000  C
  C9       1.0000 0.09640  0.36000  0.93560  Biso   1.000  C
  C10      1.0000 0.00950  0.27240  0.93420  Biso   1.000  C
  C11      1.0000 0.10950  0.18300  0.96260  Biso   1.000  C
  C12      1.0000 0.50170  0.56400  0.10420  Biso   1.000  C
  C13      1.0000 0.48890  0.47480  0.13880  Biso   1.000  C
  C14      1.0000 0.57730  0.35560  0.12770  Biso   1.000  C
  C15      1.0000 0.38800  0.51300  0.18750  Biso   1.000  C
  C16      1.0000 0.09280  0.46980  0.17510  Biso   1.000  C
  C17      1.0000 0.90290  0.52720  0.18350  Biso   1.000  C
  C18      1.0000 0.89050  0.63380  0.20410  Biso   1.000  C
  C19      1.0000 0.47160  0.99140  0.38090  Biso   1.000  C
  C20      1.0000 0.36210  0.97220  0.34680  Biso   1.000  C
  C21      1.0000 0.18350  0.04100  0.35970  Biso   1.000  C
  C22      1.0000 0.02760  0.18660  0.42750  Biso   1.000  C
  C23      1.0000 0.00130  0.31760  0.41600  Biso   1.000  C
  C24      1.0000 0.90480  0.40200  0.44990  Biso   1.000  C
  C25      1.0000 0.86940  0.52900  0.43970  Biso   1.000  C
  C26      1.0000 0.74960  0.62100  0.47670  Biso   1.000  C
  C27      1.0000 0.54360  0.36000  0.56440  Biso   1.000  C
  C28      1.0000 0.71810  0.27240  0.56580  Biso   1.000  C
  C29      1.0000 0.70750  0.18300  0.53740  Biso   1.000  C
  C30      1.0000 0.93430  0.56400  0.39580  Biso   1.000  C
  C31      1.0000 0.03630  0.47480  0.36120  Biso   1.000  C
  C32      1.0000 0.06710  0.35560  0.37230  Biso   1.000  C
  C33      1.0000 0.09900  0.51300  0.31250  Biso   1.000  C
  C34      1.0000 0.43740  0.46980  0.32490  Biso   1.000  C
  C35      1.0000 0.56990  0.52720  0.31650  Biso   1.000  C
  C36      1.0000 0.47570  0.63380  0.29590  Biso   1.000  C
  C37      1.0000 0.46300  0.00860  0.88090  Biso   1.000  C
  C38      1.0000 0.33430  0.02780  0.84680  Biso   1.000  C
  C39      1.0000 0.22450  0.95900  0.85970  Biso   1.000  C
  C40      1.0000 0.21420  0.81340  0.92750  Biso   1.000  C
  C41      1.0000 0.31890  0.68240  0.91600  Biso   1.000  C
  C42      1.0000 0.30680  0.59800  0.94990  Biso   1.000  C
  C43      1.0000 0.39840  0.47100  0.93970  Biso   1.000  C
  C44      1.0000 0.37060  0.37900  0.97670  Biso   1.000  C
  C45      1.0000 0.90360  0.64000  0.06440  Biso   1.000  C
  C46      1.0000 0.99050  0.72760  0.06580  Biso   1.000  C
  C47      1.0000 0.89050  0.81700  0.03740  Biso   1.000  C
  C48      1.0000 0.49830  0.43600  0.89580  Biso   1.000  C
  C49      1.0000 0.51110  0.52520  0.86120  Biso   1.000  C
  C50      1.0000 0.42270  0.64440  0.87230  Biso   1.000  C
  C51      1.0000 0.61200  0.48700  0.81250  Biso   1.000  C
  C52      1.0000 0.90720  0.53020  0.82490  Biso   1.000  C
  C53      1.0000 0.09710  0.47280  0.81650  Biso   1.000  C
  C54      1.0000 0.10950  0.36620  0.79590  Biso   1.000  C
  C55      1.0000 0.52840  0.00860  0.61910  Biso   1.000  C
  C56      1.0000 0.63790  0.02780  0.65320  Biso   1.000  C
  C57      1.0000 0.81650  0.95900  0.64030  Biso   1.000  C
  C58      1.0000 0.97240  0.81340  0.57250  Biso   1.000  C
  C59      1.0000 0.99870  0.68240  0.58400  Biso   1.000  C
  C60      1.0000 0.09520  0.59800  0.55010  Biso   1.000  C
  C61      1.0000 0.13060  0.47100  0.56030  Biso   1.000  C
  C62      1.0000 0.25040  0.37900  0.52330  Biso   1.000  C
  C63      1.0000 0.45640  0.64000  0.43560  Biso   1.000  C
  C64      1.0000 0.28190  0.72760  0.43420  Biso   1.000  C
  C65      1.0000 0.29250  0.81700  0.46260  Biso   1.000  C
  C66      1.0000 0.06570  0.43600  0.60420  Biso   1.000  C
  C67      1.0000 0.96370  0.52520  0.63880  Biso   1.000  C
  C68      1.0000 0.93290  0.64440  0.62770  Biso   1.000  C
  C69      1.0000 0.90100  0.48700  0.68750  Biso   1.000  C
  C70      1.0000 0.56260  0.53020  0.67510  Biso   1.000  C
  C71      1.0000 0.43010  0.47280  0.68350  Biso   1.000  C
  C72      1.0000 0.52430  0.36620  0.70410  Biso   1.000  C
  N1       1.0000 0.56790  0.06740  0.08570  Biso   1.000  N
  N2       1.0000 0.71750  0.09680  0.09960  Biso   1.000  N
  N3       1.0000 0.23590  0.32120  0.96320  Biso   1.000  N
  N4       1.0000 0.24850  0.20900  0.98020  Biso   1.000  N
  N5       1.0000 0.18000  0.54180  0.18840  Biso   1.000  N
  N6       1.0000 0.05970  0.64660  0.20890  Biso   1.000  N
  N7       1.0000 0.36470  0.06740  0.41430  Biso   1.000  N
  N8       1.0000 0.18570  0.09680  0.40040  Biso   1.000  N
  N9       1.0000 0.44290  0.32120  0.53680  Biso   1.000  N
  N10      1.0000 0.54250  0.20900  0.51980  Biso   1.000  N
  N11      1.0000 0.27820  0.54180  0.31160  Biso   1.000  N
  N12      1.0000 0.29370  0.64660  0.29110  Biso   1.000  N
  N13      1.0000 0.43210  0.93260  0.91430  Biso   1.000  N
  N14      1.0000 0.28250  0.90320  0.90040  Biso   1.000  N
  N15      1.0000 0.76410  0.67880  0.03680  Biso   1.000  N
  N16      1.0000 0.75150  0.79100  0.01980  Biso   1.000  N
  N17      1.0000 0.82000  0.45820  0.81160  Biso   1.000  N
  N18      1.0000 0.94030  0.35340  0.79110  Biso   1.000  N
  N19      1.0000 0.63530  0.93260  0.58570  Biso   1.000  N
  N20      1.0000 0.81430  0.90320  0.59960  Biso   1.000  N
  N21      1.0000 0.55710  0.67880  0.46320  Biso   1.000  N
  N22      1.0000 0.45750  0.79100  0.48020  Biso   1.000  N
  N23      1.0000 0.72180  0.45820  0.68840  Biso   1.000  N
  N24      1.0000 0.70630  0.35340  0.70890  Biso   1.000  N
  Cl1      1.0000 0.30153  0.85554  0.20950  Biso   1.000  Cl
  Cl2      1.0000 0.19758  0.26624  0.08367  Biso   1.000  Cl
  Cl3      1.0000 0.67717  0.06366  0.97294  Biso   1.000  Cl
  Cl4      1.0000 0.84293  0.85554  0.29050  Biso   1.000  Cl
  Cl5      1.0000 0.53618  0.26624  0.41633  Biso   1.000  Cl
  Cl6      1.0000 0.25917  0.06366  0.52706  Biso   1.000  Cl
  Cl7      1.0000 0.69847  0.14446  0.79050  Biso   1.000  Cl
  Cl8      1.0000 0.80242  0.73376  0.91633  Biso   1.000  Cl
  Cl9      1.0000 0.32283  0.93634  0.02706  Biso   1.000  Cl
  Cl10     1.0000 0.15707  0.14446  0.70950  Biso   1.000  Cl
  Cl11     1.0000 0.46382  0.73376  0.58367  Biso   1.000  Cl
  Cl12     1.0000 0.74083  0.93634  0.47294  Biso   1.000  Cl
