data_image0
_cell_length_a       13.5054
_cell_length_b       19.815
_cell_length_c       11.6353
_cell_angle_alpha    90
_cell_angle_beta     96.5779
_cell_angle_gamma    90

_symmetry_space_group_name_H-M    "P 1"
_symmetry_int_tables_number       1

loop_
  _symmetry_equiv_pos_as_xyz
  'x, y, z'

loop_
  _atom_site_label
  _atom_site_occupancy
  _atom_site_fract_x
  _atom_site_fract_y
  _atom_site_fract_z
  _atom_site_thermal_displace_type
  _atom_site_B_iso_or_equiv
  _atom_site_type_symbol
  Co1      1.0000 0.42731  0.21497  0.31493  Biso   1.000  Co
  O1       1.0000 0.91760  0.13680  0.33300  Biso   1.000  O
  H1       1.0000 0.88330  0.12560  0.38360  Biso   1.000  H
  O2       1.0000 0.93740  0.20660  0.46820  Biso   1.000  O
  H2       1.0000 0.89570  0.17960  0.48570  Biso   1.000  H
  O3       1.0000 0.92250  0.22910  0.16240  Biso   1.000  O
  H3       1.0000 0.92000  0.26240  0.12050  Biso   1.000  H
  O4       1.0000 0.93070  0.31480  0.30330  Biso   1.000  O
  H4       1.0000 0.96970  0.32810  0.25920  Biso   1.000  H
  O5       1.0000 0.02190  0.00850  0.15380  Biso   1.000  O
  H5       1.0000 0.08290  0.00680  0.15780  Biso   1.000  H
  O6       1.0000 0.01450  0.91910  0.05580  Biso   1.000  O
  H6       1.0000 0.07560  0.91940  0.06150  Biso   1.000  H
  N1       1.0000 0.45955  0.21140  0.49790  Biso   1.000  N
  N2       1.0000 0.42569  0.24501  0.56660  Biso   1.000  N
  N3       1.0000 0.39075  0.27853  0.63400  Biso   1.000  N
  N4       1.0000 0.43682  0.10801  0.30020  Biso   1.000  N
  N5       1.0000 0.47547  0.07325  0.23640  Biso   1.000  N
  N6       1.0000 0.51464  0.03659  0.17710  Biso   1.000  N
  N7       1.0000 0.51624  0.09990  0.94450  Biso   1.000  N
  N8       1.0000 0.46578  0.13732  0.88450  Biso   1.000  N
  N9       1.0000 0.41738  0.17572  0.82670  Biso   1.000  N
  N10      1.0000 0.58410  0.22635  0.29800  Biso   1.000  N
  N11      1.0000 0.27045  0.20847  0.33134  Biso   1.000  N
  N12      1.0000 0.65920  0.98956  0.01950  Biso   1.000  N
  C1       1.0000 0.64450  0.26195  0.37620  Biso   1.000  C
  C2       1.0000 0.62640  0.20013  0.21020  Biso   1.000  C
  C3       1.0000 0.74450  0.27113  0.36880  Biso   1.000  C
  C4       1.0000 0.72600  0.20666  0.19850  Biso   1.000  C
  C5       1.0000 0.78830  0.24190  0.27830  Biso   1.000  C
  C6       1.0000 0.89900  0.24746  0.27200  Biso   1.000  C
  C7       1.0000 0.21390  0.16004  0.28040  Biso   1.000  C
  C8       1.0000 0.22360  0.25229  0.39430  Biso   1.000  C
  C9       1.0000 0.11330  0.15450  0.28550  Biso   1.000  C
  C10      1.0000 0.12350  0.24880  0.40590  Biso   1.000  C
  C11      1.0000 0.06530  0.19969  0.34750  Biso   1.000  C
  C12      1.0000 0.95420  0.19620  0.35560  Biso   1.000  C
  C13      1.0000 0.70740  0.93636  0.98410  Biso   1.000  C
  C14      1.0000 0.71630  0.03956  0.06510  Biso   1.000  C
  C15      1.0000 0.81900  0.03810  0.07920  Biso   1.000  C
  C16      1.0000 0.81000  0.93132  0.99310  Biso   1.000  C
  C17      1.0000 0.86840  0.98363  0.04040  Biso   1.000  C
  C18      1.0000 0.98130  0.98152  0.05070  Biso   1.000  C
  H7       1.0000 0.58080  0.17590  0.15500  Biso   1.000  H
  H8       1.0000 0.78000  0.29430  0.42400  Biso   1.000  H
  H9       1.0000 0.85000  0.88680  0.95700  Biso   1.000  H
  H10      1.0000 0.66900  0.90430  0.95400  Biso   1.000  H
  H11      1.0000 0.75300  0.19100  0.14700  Biso   1.000  H
  H12      1.0000 0.60900  0.28110  0.44700  Biso   1.000  H
  H13      1.0000 0.85700  0.07200  0.11300  Biso   1.000  H
  H14      1.0000 0.24600  0.12540  0.24300  Biso   1.000  H
  H15      1.0000 0.68200  0.07190  0.10100  Biso   1.000  H
  H16      1.0000 0.26500  0.29500  0.42600  Biso   1.000  H
  H17      1.0000 0.08500  0.11700  0.25700  Biso   1.000  H
  H18      1.0000 0.08000  0.28220  0.43900  Biso   1.000  H
  Co2      1.0000 0.57269  0.71497  0.18507  Biso   1.000  Co
  O7       1.0000 0.08240  0.63680  0.16700  Biso   1.000  O
  H19      1.0000 0.11670  0.62560  0.11640  Biso   1.000  H
  O8       1.0000 0.06260  0.70660  0.03180  Biso   1.000  O
  H20      1.0000 0.10430  0.67960  0.01430  Biso   1.000  H
  O9       1.0000 0.07750  0.72910  0.33760  Biso   1.000  O
  H21      1.0000 0.08000  0.76240  0.37950  Biso   1.000  H
  O10      1.0000 0.06930  0.81480  0.19670  Biso   1.000  O
  H22      1.0000 0.03030  0.82810  0.24080  Biso   1.000  H
  O11      1.0000 0.97810  0.50850  0.34620  Biso   1.000  O
  H23      1.0000 0.91710  0.50680  0.34220  Biso   1.000  H
  O12      1.0000 0.98550  0.41910  0.44420  Biso   1.000  O
  H24      1.0000 0.92440  0.41940  0.43850  Biso   1.000  H
  N13      1.0000 0.54045  0.71140  0.00210  Biso   1.000  N
  N14      1.0000 0.57431  0.74501  0.93340  Biso   1.000  N
  N15      1.0000 0.60925  0.77853  0.86600  Biso   1.000  N
  N16      1.0000 0.56318  0.60801  0.19980  Biso   1.000  N
  N17      1.0000 0.52453  0.57325  0.26360  Biso   1.000  N
  N18      1.0000 0.48536  0.53659  0.32290  Biso   1.000  N
  N19      1.0000 0.48376  0.59990  0.55550  Biso   1.000  N
  N20      1.0000 0.53422  0.63732  0.61550  Biso   1.000  N
  N21      1.0000 0.58262  0.67572  0.67330  Biso   1.000  N
  N22      1.0000 0.41590  0.72635  0.20200  Biso   1.000  N
  N23      1.0000 0.72955  0.70847  0.16866  Biso   1.000  N
  N24      1.0000 0.34080  0.48956  0.48050  Biso   1.000  N
  C19      1.0000 0.35550  0.76195  0.12380  Biso   1.000  C
  C20      1.0000 0.37360  0.70013  0.28980  Biso   1.000  C
  C21      1.0000 0.25550  0.77113  0.13120  Biso   1.000  C
  C22      1.0000 0.27400  0.70666  0.30150  Biso   1.000  C
  C23      1.0000 0.21170  0.74190  0.22170  Biso   1.000  C
  C24      1.0000 0.10100  0.74746  0.22800  Biso   1.000  C
  C25      1.0000 0.78610  0.66004  0.21960  Biso   1.000  C
  C26      1.0000 0.77640  0.75229  0.10570  Biso   1.000  C
  C27      1.0000 0.88670  0.65450  0.21450  Biso   1.000  C
  C28      1.0000 0.87650  0.74880  0.09410  Biso   1.000  C
  C29      1.0000 0.93470  0.69969  0.15250  Biso   1.000  C
  C30      1.0000 0.04580  0.69620  0.14440  Biso   1.000  C
  C31      1.0000 0.29260  0.43636  0.51590  Biso   1.000  C
  C32      1.0000 0.28370  0.53956  0.43490  Biso   1.000  C
  C33      1.0000 0.18100  0.53810  0.42080  Biso   1.000  C
  C34      1.0000 0.19000  0.43132  0.50690  Biso   1.000  C
  C35      1.0000 0.13160  0.48363  0.45960  Biso   1.000  C
  C36      1.0000 0.01870  0.48152  0.44930  Biso   1.000  C
  H25      1.0000 0.41920  0.67590  0.34500  Biso   1.000  H
  H26      1.0000 0.22000  0.79430  0.07600  Biso   1.000  H
  H27      1.0000 0.15000  0.38680  0.54300  Biso   1.000  H
  H28      1.0000 0.33100  0.40430  0.54600  Biso   1.000  H
  H29      1.0000 0.24700  0.69100  0.35300  Biso   1.000  H
  H30      1.0000 0.39100  0.78110  0.05300  Biso   1.000  H
  H31      1.0000 0.14300  0.57200  0.38700  Biso   1.000  H
  H32      1.0000 0.75400  0.62540  0.25700  Biso   1.000  H
  H33      1.0000 0.31800  0.57190  0.39900  Biso   1.000  H
  H34      1.0000 0.73500  0.79500  0.07400  Biso   1.000  H
  H35      1.0000 0.91500  0.61700  0.24300  Biso   1.000  H
  H36      1.0000 0.92000  0.78220  0.06100  Biso   1.000  H
  Co3      1.0000 0.57269  0.78503  0.68507  Biso   1.000  Co
  O13      1.0000 0.08240  0.86320  0.66700  Biso   1.000  O
  H37      1.0000 0.11670  0.87440  0.61640  Biso   1.000  H
  O14      1.0000 0.06260  0.79340  0.53180  Biso   1.000  O
  H38      1.0000 0.10430  0.82040  0.51430  Biso   1.000  H
  O15      1.0000 0.07750  0.77090  0.83760  Biso   1.000  O
  H39      1.0000 0.08000  0.73760  0.87950  Biso   1.000  H
  O16      1.0000 0.06930  0.68520  0.69670  Biso   1.000  O
  H40      1.0000 0.03030  0.67190  0.74080  Biso   1.000  H
  O17      1.0000 0.97810  0.99150  0.84620  Biso   1.000  O
  H41      1.0000 0.91710  0.99320  0.84220  Biso   1.000  H
  O18      1.0000 0.98550  0.08090  0.94420  Biso   1.000  O
  H42      1.0000 0.92440  0.08060  0.93850  Biso   1.000  H
  N25      1.0000 0.54045  0.78860  0.50210  Biso   1.000  N
  N26      1.0000 0.57431  0.75499  0.43340  Biso   1.000  N
  N27      1.0000 0.60925  0.72147  0.36600  Biso   1.000  N
  N28      1.0000 0.56318  0.89199  0.69980  Biso   1.000  N
  N29      1.0000 0.52453  0.92675  0.76360  Biso   1.000  N
  N30      1.0000 0.48536  0.96341  0.82290  Biso   1.000  N
  N31      1.0000 0.48376  0.90010  0.05550  Biso   1.000  N
  N32      1.0000 0.53422  0.86268  0.11550  Biso   1.000  N
  N33      1.0000 0.58262  0.82428  0.17330  Biso   1.000  N
  N34      1.0000 0.41590  0.77365  0.70200  Biso   1.000  N
  N35      1.0000 0.72955  0.79153  0.66866  Biso   1.000  N
  N36      1.0000 0.34080  0.01044  0.98050  Biso   1.000  N
  C37      1.0000 0.35550  0.73805  0.62380  Biso   1.000  C
  C38      1.0000 0.37360  0.79987  0.78980  Biso   1.000  C
  C39      1.0000 0.25550  0.72887  0.63120  Biso   1.000  C
  C40      1.0000 0.27400  0.79334  0.80150  Biso   1.000  C
  C41      1.0000 0.21170  0.75810  0.72170  Biso   1.000  C
  C42      1.0000 0.10100  0.75254  0.72800  Biso   1.000  C
  C43      1.0000 0.78610  0.83996  0.71960  Biso   1.000  C
  C44      1.0000 0.77640  0.74771  0.60570  Biso   1.000  C
  C45      1.0000 0.88670  0.84550  0.71450  Biso   1.000  C
  C46      1.0000 0.87650  0.75120  0.59410  Biso   1.000  C
  C47      1.0000 0.93470  0.80031  0.65250  Biso   1.000  C
  C48      1.0000 0.04580  0.80380  0.64440  Biso   1.000  C
  C49      1.0000 0.29260  0.06364  0.01590  Biso   1.000  C
  C50      1.0000 0.28370  0.96044  0.93490  Biso   1.000  C
  C51      1.0000 0.18100  0.96190  0.92080  Biso   1.000  C
  C52      1.0000 0.19000  0.06868  0.00690  Biso   1.000  C
  C53      1.0000 0.13160  0.01637  0.95960  Biso   1.000  C
  C54      1.0000 0.01870  0.01848  0.94930  Biso   1.000  C
  H43      1.0000 0.41920  0.82410  0.84500  Biso   1.000  H
  H44      1.0000 0.22000  0.70570  0.57600  Biso   1.000  H
  H45      1.0000 0.15000  0.11320  0.04300  Biso   1.000  H
  H46      1.0000 0.33100  0.09570  0.04600  Biso   1.000  H
  H47      1.0000 0.24700  0.80900  0.85300  Biso   1.000  H
  H48      1.0000 0.39100  0.71890  0.55300  Biso   1.000  H
  H49      1.0000 0.14300  0.92800  0.88700  Biso   1.000  H
  H50      1.0000 0.75400  0.87460  0.75700  Biso   1.000  H
  H51      1.0000 0.31800  0.92810  0.89900  Biso   1.000  H
  H52      1.0000 0.73500  0.70500  0.57400  Biso   1.000  H
  H53      1.0000 0.91500  0.88300  0.74300  Biso   1.000  H
  H54      1.0000 0.92000  0.71780  0.56100  Biso   1.000  H
  Co4      1.0000 0.42731  0.28503  0.81493  Biso   1.000  Co
  O19      1.0000 0.91760  0.36320  0.83300  Biso   1.000  O
  H55      1.0000 0.88330  0.37440  0.88360  Biso   1.000  H
  O20      1.0000 0.93740  0.29340  0.96820  Biso   1.000  O
  H56      1.0000 0.89570  0.32040  0.98570  Biso   1.000  H
  O21      1.0000 0.92250  0.27090  0.66240  Biso   1.000  O
  H57      1.0000 0.92000  0.23760  0.62050  Biso   1.000  H
  O22      1.0000 0.93070  0.18520  0.80330  Biso   1.000  O
  H58      1.0000 0.96970  0.17190  0.75920  Biso   1.000  H
  O23      1.0000 0.02190  0.49150  0.65380  Biso   1.000  O
  H59      1.0000 0.08290  0.49320  0.65780  Biso   1.000  H
  O24      1.0000 0.01450  0.58090  0.55580  Biso   1.000  O
  H60      1.0000 0.07560  0.58060  0.56150  Biso   1.000  H
  N37      1.0000 0.45955  0.28860  0.99790  Biso   1.000  N
  N38      1.0000 0.42569  0.25499  0.06660  Biso   1.000  N
  N39      1.0000 0.39075  0.22147  0.13400  Biso   1.000  N
  N40      1.0000 0.43682  0.39199  0.80020  Biso   1.000  N
  N41      1.0000 0.47547  0.42675  0.73640  Biso   1.000  N
  N42      1.0000 0.51464  0.46341  0.67710  Biso   1.000  N
  N43      1.0000 0.51624  0.40010  0.44450  Biso   1.000  N
  N44      1.0000 0.46578  0.36268  0.38450  Biso   1.000  N
  N45      1.0000 0.41738  0.32428  0.32670  Biso   1.000  N
  N46      1.0000 0.58410  0.27365  0.79800  Biso   1.000  N
  N47      1.0000 0.27045  0.29153  0.83134  Biso   1.000  N
  N48      1.0000 0.65920  0.51044  0.51950  Biso   1.000  N
  C55      1.0000 0.64450  0.23805  0.87620  Biso   1.000  C
  C56      1.0000 0.62640  0.29987  0.71020  Biso   1.000  C
  C57      1.0000 0.74450  0.22887  0.86880  Biso   1.000  C
  C58      1.0000 0.72600  0.29334  0.69850  Biso   1.000  C
  C59      1.0000 0.78830  0.25810  0.77830  Biso   1.000  C
  C60      1.0000 0.89900  0.25254  0.77200  Biso   1.000  C
  C61      1.0000 0.21390  0.33996  0.78040  Biso   1.000  C
  C62      1.0000 0.22360  0.24771  0.89430  Biso   1.000  C
  C63      1.0000 0.11330  0.34550  0.78550  Biso   1.000  C
  C64      1.0000 0.12350  0.25120  0.90590  Biso   1.000  C
  C65      1.0000 0.06530  0.30031  0.84750  Biso   1.000  C
  C66      1.0000 0.95420  0.30380  0.85560  Biso   1.000  C
  C67      1.0000 0.70740  0.56364  0.48410  Biso   1.000  C
  C68      1.0000 0.71630  0.46044  0.56510  Biso   1.000  C
  C69      1.0000 0.81900  0.46190  0.57920  Biso   1.000  C
  C70      1.0000 0.81000  0.56868  0.49310  Biso   1.000  C
  C71      1.0000 0.86840  0.51637  0.54040  Biso   1.000  C
  C72      1.0000 0.98130  0.51848  0.55070  Biso   1.000  C
  H61      1.0000 0.58080  0.32410  0.65500  Biso   1.000  H
  H62      1.0000 0.78000  0.20570  0.92400  Biso   1.000  H
  H63      1.0000 0.85000  0.61320  0.45700  Biso   1.000  H
  H64      1.0000 0.66900  0.59570  0.45400  Biso   1.000  H
  H65      1.0000 0.75300  0.30900  0.64700  Biso   1.000  H
  H66      1.0000 0.60900  0.21890  0.94700  Biso   1.000  H
  H67      1.0000 0.85700  0.42800  0.61300  Biso   1.000  H
  H68      1.0000 0.24600  0.37460  0.74300  Biso   1.000  H
  H69      1.0000 0.68200  0.42810  0.60100  Biso   1.000  H
  H70      1.0000 0.26500  0.20500  0.92600  Biso   1.000  H
  H71      1.0000 0.08500  0.38300  0.75700  Biso   1.000  H
  H72      1.0000 0.08000  0.21780  0.93900  Biso   1.000  H
  Co5      1.0000 0.50000  0.00000  0.00000  Biso   1.000  Co
  Co6      1.0000 0.50000  0.50000  0.50000  Biso   1.000  Co
