data_image0
_cell_length_a       7.9172
_cell_length_b       20.3854
_cell_length_c       17.7768
_cell_angle_alpha    90
_cell_angle_beta     90
_cell_angle_gamma    90

_symmetry_space_group_name_H-M    P 1
_symmetry_int_tables_number       1

loop_
  _symmetry_equiv_pos_as_xyz
  'x, y, z'

loop_
  _atom_site_label
  _atom_site_occupancy
  _atom_site_fract_x
  _atom_site_fract_y
  _atom_site_fract_z
  _atom_site_thermal_displace_type
  _atom_site_B_iso_or_equiv
  _atom_site_type_symbol
  Cu1      1.0000 0.33031  0.95139  0.89378  Biso   1.000  Cu
  Cu2      1.0000 0.66969  0.04861  0.89378  Biso   1.000  Cu
  Cu3      1.0000 0.83031  0.54861  0.10622  Biso   1.000  Cu
  Cu4      1.0000 0.16969  0.45139  0.10622  Biso   1.000  Cu
  Cu5      1.0000 0.66969  0.04861  0.10622  Biso   1.000  Cu
  Cu6      1.0000 0.33031  0.95139  0.10622  Biso   1.000  Cu
  Cu7      1.0000 0.16969  0.45139  0.89378  Biso   1.000  Cu
  Cu8      1.0000 0.83031  0.54861  0.89378  Biso   1.000  Cu
  P1       1.0000 0.27112  0.80065  0.84486  Biso   1.000  P
  P2       1.0000 0.72888  0.19935  0.84486  Biso   1.000  P
  P3       1.0000 0.77112  0.69935  0.15514  Biso   1.000  P
  P4       1.0000 0.22888  0.30065  0.15514  Biso   1.000  P
  P5       1.0000 0.72888  0.19935  0.15514  Biso   1.000  P
  P6       1.0000 0.27112  0.80065  0.15514  Biso   1.000  P
  P7       1.0000 0.22888  0.30065  0.84486  Biso   1.000  P
  P8       1.0000 0.77112  0.69935  0.84486  Biso   1.000  P
  P9       1.0000 0.11970  0.57155  0.00000  Biso   1.000  P
  P10      1.0000 0.88030  0.42845  0.00000  Biso   1.000  P
  P11      1.0000 0.61970  0.92845  0.00000  Biso   1.000  P
  P12      1.0000 0.38030  0.07155  0.00000  Biso   1.000  P
  H1       1.0000 0.02910  0.78970  0.81240  Biso   1.000  H
  H2       1.0000 0.99910  0.96360  0.91740  Biso   1.000  H
  H3       1.0000 0.03000  0.89900  0.89800  Biso   1.000  H
  H4       1.0000 0.19610  0.66580  0.88560  Biso   1.000  H
  H5       1.0000 0.26170  0.93330  0.61250  Biso   1.000  H
  H6       1.0000 0.07590  0.10010  0.70380  Biso   1.000  H
  H7       1.0000 0.10790  0.09200  0.56730  Biso   1.000  H
  H8       1.0000 0.96610  0.03970  0.56970  Biso   1.000  H
  H9       1.0000 0.30450  0.89700  0.73100  Biso   1.000  H
  H10      1.0000 0.20100  0.06800  0.81800  Biso   1.000  H
  H11      1.0000 0.97090  0.21030  0.81240  Biso   1.000  H
  H12      1.0000 0.00090  0.03640  0.91740  Biso   1.000  H
  H13      1.0000 0.97000  0.10100  0.89800  Biso   1.000  H
  H14      1.0000 0.80390  0.33420  0.88560  Biso   1.000  H
  H15      1.0000 0.73830  0.06670  0.61250  Biso   1.000  H
  H16      1.0000 0.92410  0.89990  0.70380  Biso   1.000  H
  H17      1.0000 0.89210  0.90800  0.56730  Biso   1.000  H
  H18      1.0000 0.03390  0.96030  0.56970  Biso   1.000  H
  H19      1.0000 0.69550  0.10300  0.73100  Biso   1.000  H
  H20      1.0000 0.79900  0.93200  0.81800  Biso   1.000  H
  H21      1.0000 0.52910  0.71030  0.18760  Biso   1.000  H
  H22      1.0000 0.49910  0.53640  0.08260  Biso   1.000  H
  H23      1.0000 0.53000  0.60100  0.10200  Biso   1.000  H
  H24      1.0000 0.69610  0.83420  0.11440  Biso   1.000  H
  H25      1.0000 0.76170  0.56670  0.38750  Biso   1.000  H
  H26      1.0000 0.57590  0.39990  0.29620  Biso   1.000  H
  H27      1.0000 0.60790  0.40800  0.43270  Biso   1.000  H
  H28      1.0000 0.46610  0.46030  0.43030  Biso   1.000  H
  H29      1.0000 0.80450  0.60300  0.26900  Biso   1.000  H
  H30      1.0000 0.70100  0.43200  0.18200  Biso   1.000  H
  H31      1.0000 0.47090  0.28970  0.18760  Biso   1.000  H
  H32      1.0000 0.50090  0.46360  0.08260  Biso   1.000  H
  H33      1.0000 0.47000  0.39900  0.10200  Biso   1.000  H
  H34      1.0000 0.30390  0.16580  0.11440  Biso   1.000  H
  H35      1.0000 0.23830  0.43330  0.38750  Biso   1.000  H
  H36      1.0000 0.42410  0.60010  0.29620  Biso   1.000  H
  H37      1.0000 0.39210  0.59200  0.43270  Biso   1.000  H
  H38      1.0000 0.53390  0.53970  0.43030  Biso   1.000  H
  H39      1.0000 0.19550  0.39700  0.26900  Biso   1.000  H
  H40      1.0000 0.29900  0.56800  0.18200  Biso   1.000  H
  H41      1.0000 0.97090  0.21030  0.18760  Biso   1.000  H
  H42      1.0000 0.00090  0.03640  0.08260  Biso   1.000  H
  H43      1.0000 0.97000  0.10100  0.10200  Biso   1.000  H
  H44      1.0000 0.80390  0.33420  0.11440  Biso   1.000  H
  H45      1.0000 0.73830  0.06670  0.38750  Biso   1.000  H
  H46      1.0000 0.92410  0.89990  0.29620  Biso   1.000  H
  H47      1.0000 0.89210  0.90800  0.43270  Biso   1.000  H
  H48      1.0000 0.03390  0.96030  0.43030  Biso   1.000  H
  H49      1.0000 0.69550  0.10300  0.26900  Biso   1.000  H
  H50      1.0000 0.79900  0.93200  0.18200  Biso   1.000  H
  H51      1.0000 0.02910  0.78970  0.18760  Biso   1.000  H
  H52      1.0000 0.99910  0.96360  0.08260  Biso   1.000  H
  H53      1.0000 0.03000  0.89900  0.10200  Biso   1.000  H
  H54      1.0000 0.19610  0.66580  0.11440  Biso   1.000  H
  H55      1.0000 0.26170  0.93330  0.38750  Biso   1.000  H
  H56      1.0000 0.07590  0.10010  0.29620  Biso   1.000  H
  H57      1.0000 0.10790  0.09200  0.43270  Biso   1.000  H
  H58      1.0000 0.96610  0.03970  0.43030  Biso   1.000  H
  H59      1.0000 0.30450  0.89700  0.26900  Biso   1.000  H
  H60      1.0000 0.20100  0.06800  0.18200  Biso   1.000  H
  H61      1.0000 0.47090  0.28970  0.81240  Biso   1.000  H
  H62      1.0000 0.50090  0.46360  0.91740  Biso   1.000  H
  H63      1.0000 0.47000  0.39900  0.89800  Biso   1.000  H
  H64      1.0000 0.30390  0.16580  0.88560  Biso   1.000  H
  H65      1.0000 0.23830  0.43330  0.61250  Biso   1.000  H
  H66      1.0000 0.42410  0.60010  0.70380  Biso   1.000  H
  H67      1.0000 0.39210  0.59200  0.56730  Biso   1.000  H
  H68      1.0000 0.53390  0.53970  0.56970  Biso   1.000  H
  H69      1.0000 0.19550  0.39700  0.73100  Biso   1.000  H
  H70      1.0000 0.29900  0.56800  0.81800  Biso   1.000  H
  H71      1.0000 0.52910  0.71030  0.81240  Biso   1.000  H
  H72      1.0000 0.49910  0.53640  0.91740  Biso   1.000  H
  H73      1.0000 0.53000  0.60100  0.89800  Biso   1.000  H
  H74      1.0000 0.69610  0.83420  0.88560  Biso   1.000  H
  H75      1.0000 0.76170  0.56670  0.61250  Biso   1.000  H
  H76      1.0000 0.57590  0.39990  0.70380  Biso   1.000  H
  H77      1.0000 0.60790  0.40800  0.56730  Biso   1.000  H
  H78      1.0000 0.46610  0.46030  0.56970  Biso   1.000  H
  H79      1.0000 0.80450  0.60300  0.73100  Biso   1.000  H
  H80      1.0000 0.70100  0.43200  0.81800  Biso   1.000  H
  H81      1.0000 0.30900  0.82600  0.00000  Biso   1.000  H
  H82      1.0000 0.69100  0.17400  0.00000  Biso   1.000  H
  H83      1.0000 0.80900  0.67400  0.00000  Biso   1.000  H
  H84      1.0000 0.19100  0.32600  0.00000  Biso   1.000  H
  C1       1.0000 0.24840  0.75590  0.93190  Biso   1.000  C
  C2       1.0000 0.20830  0.68900  0.93230  Biso   1.000  C
  C3       1.0000 0.23500  0.96090  0.65460  Biso   1.000  C
  C4       1.0000 0.15660  0.02030  0.64410  Biso   1.000  C
  C5       1.0000 0.14000  0.06020  0.70670  Biso   1.000  C
  C6       1.0000 0.08600  0.04570  0.57020  Biso   1.000  C
  C7       1.0000 0.28300  0.94270  0.72260  Biso   1.000  C
  C8       1.0000 0.22050  0.04260  0.77600  Biso   1.000  C
  C9       1.0000 0.75160  0.24410  0.93190  Biso   1.000  C
  C10      1.0000 0.79170  0.31100  0.93230  Biso   1.000  C
  C11      1.0000 0.76500  0.03910  0.65460  Biso   1.000  C
  C12      1.0000 0.84340  0.97970  0.64410  Biso   1.000  C
  C13      1.0000 0.86000  0.93980  0.70670  Biso   1.000  C
  C14      1.0000 0.91400  0.95430  0.57020  Biso   1.000  C
  C15      1.0000 0.71700  0.05730  0.72260  Biso   1.000  C
  C16      1.0000 0.77950  0.95740  0.77600  Biso   1.000  C
  C17      1.0000 0.74840  0.74410  0.06810  Biso   1.000  C
  C18      1.0000 0.70830  0.81100  0.06770  Biso   1.000  C
  C19      1.0000 0.73500  0.53910  0.34540  Biso   1.000  C
  C20      1.0000 0.65660  0.47970  0.35590  Biso   1.000  C
  C21      1.0000 0.64000  0.43980  0.29330  Biso   1.000  C
  C22      1.0000 0.58600  0.45430  0.42980  Biso   1.000  C
  C23      1.0000 0.78300  0.55730  0.27740  Biso   1.000  C
  C24      1.0000 0.72050  0.45740  0.22400  Biso   1.000  C
  C25      1.0000 0.25160  0.25590  0.06810  Biso   1.000  C
  C26      1.0000 0.29170  0.18900  0.06770  Biso   1.000  C
  C27      1.0000 0.26500  0.46090  0.34540  Biso   1.000  C
  C28      1.0000 0.34340  0.52030  0.35590  Biso   1.000  C
  C29      1.0000 0.36000  0.56020  0.29330  Biso   1.000  C
  C30      1.0000 0.41400  0.54570  0.42980  Biso   1.000  C
  C31      1.0000 0.21700  0.44270  0.27740  Biso   1.000  C
  C32      1.0000 0.27950  0.54260  0.22400  Biso   1.000  C
  C33      1.0000 0.75160  0.24410  0.06810  Biso   1.000  C
  C34      1.0000 0.79170  0.31100  0.06770  Biso   1.000  C
  C35      1.0000 0.76500  0.03910  0.34540  Biso   1.000  C
  C36      1.0000 0.84340  0.97970  0.35590  Biso   1.000  C
  C37      1.0000 0.86000  0.93980  0.29330  Biso   1.000  C
  C38      1.0000 0.91400  0.95430  0.42980  Biso   1.000  C
  C39      1.0000 0.71700  0.05730  0.27740  Biso   1.000  C
  C40      1.0000 0.77950  0.95740  0.22400  Biso   1.000  C
  C41      1.0000 0.24840  0.75590  0.06810  Biso   1.000  C
  C42      1.0000 0.20830  0.68900  0.06770  Biso   1.000  C
  C43      1.0000 0.23500  0.96090  0.34540  Biso   1.000  C
  C44      1.0000 0.15660  0.02030  0.35590  Biso   1.000  C
  C45      1.0000 0.14000  0.06020  0.29330  Biso   1.000  C
  C46      1.0000 0.08600  0.04570  0.42980  Biso   1.000  C
  C47      1.0000 0.28300  0.94270  0.27740  Biso   1.000  C
  C48      1.0000 0.22050  0.04260  0.22400  Biso   1.000  C
  C49      1.0000 0.25160  0.25590  0.93190  Biso   1.000  C
  C50      1.0000 0.29170  0.18900  0.93230  Biso   1.000  C
  C51      1.0000 0.26500  0.46090  0.65460  Biso   1.000  C
  C52      1.0000 0.34340  0.52030  0.64410  Biso   1.000  C
  C53      1.0000 0.36000  0.56020  0.70670  Biso   1.000  C
  C54      1.0000 0.41400  0.54570  0.57020  Biso   1.000  C
  C55      1.0000 0.21700  0.44270  0.72260  Biso   1.000  C
  C56      1.0000 0.27950  0.54260  0.77600  Biso   1.000  C
  C57      1.0000 0.74840  0.74410  0.93190  Biso   1.000  C
  C58      1.0000 0.70830  0.81100  0.93230  Biso   1.000  C
  C59      1.0000 0.73500  0.53910  0.65460  Biso   1.000  C
  C60      1.0000 0.65660  0.47970  0.64410  Biso   1.000  C
  C61      1.0000 0.64000  0.43980  0.70670  Biso   1.000  C
  C62      1.0000 0.58600  0.45430  0.57020  Biso   1.000  C
  C63      1.0000 0.78300  0.55730  0.72260  Biso   1.000  C
  C64      1.0000 0.72050  0.45740  0.77600  Biso   1.000  C
  C65      1.0000 0.26800  0.78850  0.00000  Biso   1.000  C
  C66      1.0000 0.18670  0.65610  0.00000  Biso   1.000  C
  C67      1.0000 0.73200  0.21150  0.00000  Biso   1.000  C
  C68      1.0000 0.81330  0.34390  0.00000  Biso   1.000  C
  C69      1.0000 0.76800  0.71150  0.00000  Biso   1.000  C
  C70      1.0000 0.68670  0.84390  0.00000  Biso   1.000  C
  C71      1.0000 0.23200  0.28850  0.00000  Biso   1.000  C
  C72      1.0000 0.31330  0.15610  0.00000  Biso   1.000  C
  C73      1.0000 0.16100  0.01210  0.50000  Biso   1.000  C
  C74      1.0000 0.83900  0.98790  0.50000  Biso   1.000  C
  C75      1.0000 0.66100  0.48790  0.50000  Biso   1.000  C
  C76      1.0000 0.33900  0.51210  0.50000  Biso   1.000  C
  N1       1.0000 0.28960  0.98300  0.78750  Biso   1.000  N
  N2       1.0000 0.71040  0.01700  0.78750  Biso   1.000  N
  N3       1.0000 0.78960  0.51700  0.21250  Biso   1.000  N
  N4       1.0000 0.21040  0.48300  0.21250  Biso   1.000  N
  N5       1.0000 0.71040  0.01700  0.21250  Biso   1.000  N
  N6       1.0000 0.28960  0.98300  0.21250  Biso   1.000  N
  N7       1.0000 0.21040  0.48300  0.78750  Biso   1.000  N
  N8       1.0000 0.78960  0.51700  0.78750  Biso   1.000  N
  O1       1.0000 0.36920  0.86286  0.86097  Biso   1.000  O
  O2       1.0000 0.08840  0.82290  0.82165  Biso   1.000  O
  O3       1.0000 0.34950  0.75635  0.78660  Biso   1.000  O
  O4       1.0000 0.18300  0.54129  0.07230  Biso   1.000  O
  O5       1.0000 0.06030  0.92984  0.92400  Biso   1.000  O
  O6       1.0000 0.63080  0.13714  0.86097  Biso   1.000  O
  O7       1.0000 0.91160  0.17710  0.82165  Biso   1.000  O
  O8       1.0000 0.65050  0.24365  0.78660  Biso   1.000  O
  O9       1.0000 0.81700  0.45871  0.07230  Biso   1.000  O
  O10      1.0000 0.93970  0.07016  0.92400  Biso   1.000  O
  O11      1.0000 0.86920  0.63714  0.13903  Biso   1.000  O
  O12      1.0000 0.58840  0.67710  0.17835  Biso   1.000  O
  O13      1.0000 0.84950  0.74365  0.21340  Biso   1.000  O
  O14      1.0000 0.68300  0.95871  0.92770  Biso   1.000  O
  O15      1.0000 0.56030  0.57016  0.07600  Biso   1.000  O
  O16      1.0000 0.13080  0.36286  0.13903  Biso   1.000  O
  O17      1.0000 0.41160  0.32290  0.17835  Biso   1.000  O
  O18      1.0000 0.15050  0.25635  0.21340  Biso   1.000  O
  O19      1.0000 0.31700  0.04129  0.92770  Biso   1.000  O
  O20      1.0000 0.43970  0.42984  0.07600  Biso   1.000  O
  O21      1.0000 0.63080  0.13714  0.13903  Biso   1.000  O
  O22      1.0000 0.91160  0.17710  0.17835  Biso   1.000  O
  O23      1.0000 0.65050  0.24365  0.21340  Biso   1.000  O
  O24      1.0000 0.81700  0.45871  0.92770  Biso   1.000  O
  O25      1.0000 0.93970  0.07016  0.07600  Biso   1.000  O
  O26      1.0000 0.36920  0.86286  0.13903  Biso   1.000  O
  O27      1.0000 0.08840  0.82290  0.17835  Biso   1.000  O
  O28      1.0000 0.34950  0.75635  0.21340  Biso   1.000  O
  O29      1.0000 0.18300  0.54129  0.92770  Biso   1.000  O
  O30      1.0000 0.06030  0.92984  0.07600  Biso   1.000  O
  O31      1.0000 0.13080  0.36286  0.86097  Biso   1.000  O
  O32      1.0000 0.41160  0.32290  0.82165  Biso   1.000  O
  O33      1.0000 0.15050  0.25635  0.78660  Biso   1.000  O
  O34      1.0000 0.31700  0.04129  0.07230  Biso   1.000  O
  O35      1.0000 0.43970  0.42984  0.92400  Biso   1.000  O
  O36      1.0000 0.86920  0.63714  0.86097  Biso   1.000  O
  O37      1.0000 0.58840  0.67710  0.82165  Biso   1.000  O
  O38      1.0000 0.84950  0.74365  0.78660  Biso   1.000  O
  O39      1.0000 0.68300  0.95871  0.07230  Biso   1.000  O
  O40      1.0000 0.56030  0.57016  0.92400  Biso   1.000  O
  O41      1.0000 0.92440  0.57007  0.00000  Biso   1.000  O
  O42      1.0000 0.07560  0.42993  0.00000  Biso   1.000  O
  O43      1.0000 0.42440  0.92993  0.00000  Biso   1.000  O
  O44      1.0000 0.57560  0.07007  0.00000  Biso   1.000  O
