data_image0
_cell_length_a       11.5213
_cell_length_b       27.0154
_cell_length_c       16.995
_cell_angle_alpha    98.137
_cell_angle_beta     90
_cell_angle_gamma    90

_symmetry_space_group_name_H-M    P 1
_symmetry_int_tables_number       1

loop_
  _symmetry_equiv_pos_as_xyz
  'x, y, z'

loop_
  _atom_site_label
  _atom_site_occupancy
  _atom_site_fract_x
  _atom_site_fract_y
  _atom_site_fract_z
  _atom_site_thermal_displace_type
  _atom_site_B_iso_or_equiv
  _atom_site_type_symbol
  Gd1      1.0000 0.61987  0.75190  0.69105  Biso   1.000  Gd
  Gd2      1.0000 0.19120  0.24916  0.53076  Biso   1.000  Gd
  Gd3      1.0000 0.11987  0.24810  0.80895  Biso   1.000  Gd
  Gd4      1.0000 0.69120  0.75084  0.96924  Biso   1.000  Gd
  Gd5      1.0000 0.38013  0.24810  0.30895  Biso   1.000  Gd
  Gd6      1.0000 0.80880  0.75084  0.46924  Biso   1.000  Gd
  Gd7      1.0000 0.88013  0.75190  0.19105  Biso   1.000  Gd
  Gd8      1.0000 0.30880  0.24916  0.03076  Biso   1.000  Gd
  H1       1.0000 0.43220  0.89490  0.62130  Biso   1.000  H
  H2       1.0000 0.66910  0.87830  0.44590  Biso   1.000  H
  H3       1.0000 0.63080  0.95890  0.42050  Biso   1.000  H
  H4       1.0000 0.63280  0.60070  0.39020  Biso   1.000  H
  H5       1.0000 0.50180  0.63200  0.61080  Biso   1.000  H
  H6       1.0000 0.45460  0.54830  0.60890  Biso   1.000  H
  H7       1.0000 0.96570  0.85740  0.55650  Biso   1.000  H
  H8       1.0000 0.83120  0.89890  0.77400  Biso   1.000  H
  H9       1.0000 0.91660  0.97700  0.77840  Biso   1.000  H
  H10      1.0000 0.02510  0.12290  0.76370  Biso   1.000  H
  H11      1.0000 0.13190  0.08230  0.53870  Biso   1.000  H
  H12      1.0000 0.09090  0.99950  0.54930  Biso   1.000  H
  H13      1.0000 0.98100  0.40410  0.78320  Biso   1.000  H
  H14      1.0000 0.13610  0.38780  0.56930  Biso   1.000  H
  H15      1.0000 0.09250  0.47020  0.55720  Biso   1.000  H
  H16      1.0000 0.86250  0.54590  0.75480  Biso   1.000  H
  H17      1.0000 0.79600  0.62400  0.73340  Biso   1.000  H
  H18      1.0000 0.00220  0.61820  0.54160  Biso   1.000  H
  H19      1.0000 0.93220  0.10510  0.87870  Biso   1.000  H
  H20      1.0000 0.16910  0.12170  0.05410  Biso   1.000  H
  H21      1.0000 0.13080  0.04110  0.07950  Biso   1.000  H
  H22      1.0000 0.13280  0.39930  0.10980  Biso   1.000  H
  H23      1.0000 0.00180  0.36800  0.88920  Biso   1.000  H
  H24      1.0000 0.95460  0.45170  0.89110  Biso   1.000  H
  H25      1.0000 0.46570  0.14260  0.94350  Biso   1.000  H
  H26      1.0000 0.33120  0.10110  0.72600  Biso   1.000  H
  H27      1.0000 0.41660  0.02300  0.72160  Biso   1.000  H
  H28      1.0000 0.52510  0.87710  0.73630  Biso   1.000  H
  H29      1.0000 0.63190  0.91770  0.96130  Biso   1.000  H
  H30      1.0000 0.59090  0.00050  0.95070  Biso   1.000  H
  H31      1.0000 0.48100  0.59590  0.71680  Biso   1.000  H
  H32      1.0000 0.63610  0.61220  0.93070  Biso   1.000  H
  H33      1.0000 0.59250  0.52980  0.94280  Biso   1.000  H
  H34      1.0000 0.36250  0.45410  0.74520  Biso   1.000  H
  H35      1.0000 0.29600  0.37600  0.76660  Biso   1.000  H
  H36      1.0000 0.50220  0.38180  0.95840  Biso   1.000  H
  H37      1.0000 0.56780  0.10510  0.37870  Biso   1.000  H
  H38      1.0000 0.33090  0.12170  0.55410  Biso   1.000  H
  H39      1.0000 0.36920  0.04110  0.57950  Biso   1.000  H
  H40      1.0000 0.36720  0.39930  0.60980  Biso   1.000  H
  H41      1.0000 0.49820  0.36800  0.38920  Biso   1.000  H
  H42      1.0000 0.54540  0.45170  0.39110  Biso   1.000  H
  H43      1.0000 0.03430  0.14260  0.44350  Biso   1.000  H
  H44      1.0000 0.16880  0.10110  0.22600  Biso   1.000  H
  H45      1.0000 0.08340  0.02300  0.22160  Biso   1.000  H
  H46      1.0000 0.97490  0.87710  0.23630  Biso   1.000  H
  H47      1.0000 0.86810  0.91770  0.46130  Biso   1.000  H
  H48      1.0000 0.90910  0.00050  0.45070  Biso   1.000  H
  H49      1.0000 0.01900  0.59590  0.21680  Biso   1.000  H
  H50      1.0000 0.86390  0.61220  0.43070  Biso   1.000  H
  H51      1.0000 0.90750  0.52980  0.44280  Biso   1.000  H
  H52      1.0000 0.13750  0.45410  0.24520  Biso   1.000  H
  H53      1.0000 0.20400  0.37600  0.26660  Biso   1.000  H
  H54      1.0000 0.99780  0.38180  0.45840  Biso   1.000  H
  H55      1.0000 0.06780  0.89490  0.12130  Biso   1.000  H
  H56      1.0000 0.83090  0.87830  0.94590  Biso   1.000  H
  H57      1.0000 0.86920  0.95890  0.92050  Biso   1.000  H
  H58      1.0000 0.86720  0.60070  0.89020  Biso   1.000  H
  H59      1.0000 0.99820  0.63200  0.11080  Biso   1.000  H
  H60      1.0000 0.04540  0.54830  0.10890  Biso   1.000  H
  H61      1.0000 0.53430  0.85740  0.05650  Biso   1.000  H
  H62      1.0000 0.66880  0.89890  0.27400  Biso   1.000  H
  H63      1.0000 0.58340  0.97700  0.27840  Biso   1.000  H
  H64      1.0000 0.47490  0.12290  0.26370  Biso   1.000  H
  H65      1.0000 0.36810  0.08230  0.03870  Biso   1.000  H
  H66      1.0000 0.40910  0.99950  0.04930  Biso   1.000  H
  H67      1.0000 0.51900  0.40410  0.28320  Biso   1.000  H
  H68      1.0000 0.36390  0.38780  0.06930  Biso   1.000  H
  H69      1.0000 0.40750  0.47020  0.05720  Biso   1.000  H
  H70      1.0000 0.63750  0.54590  0.25480  Biso   1.000  H
  H71      1.0000 0.70400  0.62400  0.23340  Biso   1.000  H
  H72      1.0000 0.49780  0.61820  0.04160  Biso   1.000  H
  C1       1.0000 0.50860  0.97520  0.50570  Biso   1.000  C
  C2       1.0000 0.47200  0.90770  0.58100  Biso   1.000  C
  C3       1.0000 0.55440  0.87860  0.53610  Biso   1.000  C
  C4       1.0000 0.61390  0.89780  0.47600  Biso   1.000  C
  C5       1.0000 0.59100  0.94610  0.46080  Biso   1.000  C
  C6       1.0000 0.58370  0.82700  0.55330  Biso   1.000  C
  C7       1.0000 0.51550  0.52440  0.49850  Biso   1.000  C
  C8       1.0000 0.59710  0.59020  0.43400  Biso   1.000  C
  C9       1.0000 0.57200  0.62460  0.50070  Biso   1.000  C
  C10      1.0000 0.51860  0.60890  0.56620  Biso   1.000  C
  C11      1.0000 0.49040  0.55880  0.56510  Biso   1.000  C
  C12      1.0000 0.60900  0.67760  0.50780  Biso   1.000  C
  C13      1.0000 0.99230  0.96400  0.67010  Biso   1.000  C
  C14      1.0000 0.95590  0.88140  0.60100  Biso   1.000  C
  C15      1.0000 0.89000  0.87040  0.66480  Biso   1.000  C
  C16      1.0000 0.87530  0.90620  0.73130  Biso   1.000  C
  C17      1.0000 0.92640  0.95300  0.73390  Biso   1.000  C
  C18      1.0000 0.82660  0.82300  0.66020  Biso   1.000  C
  C19      1.0000 0.03340  0.01150  0.66280  Biso   1.000  C
  C20      1.0000 0.03830  0.09810  0.72070  Biso   1.000  C
  C21      1.0000 0.08260  0.11082  0.65010  Biso   1.000  C
  C22      1.0000 0.10230  0.07380  0.58590  Biso   1.000  C
  C23      1.0000 0.07770  0.02420  0.59220  Biso   1.000  C
  C24      1.0000 0.09810  0.16400  0.63990  Biso   1.000  C
  C25      1.0000 0.01060  0.48650  0.66300  Biso   1.000  C
  C26      1.0000 0.00330  0.41730  0.73790  Biso   1.000  C
  C27      1.0000 0.06280  0.38770  0.67740  Biso   1.000  C
  C28      1.0000 0.09620  0.40760  0.60970  Biso   1.000  C
  C29      1.0000 0.07010  0.45690  0.60250  Biso   1.000  C
  C30      1.0000 0.08420  0.33450  0.68610  Biso   1.000  C
  C31      1.0000 0.97210  0.53530  0.66100  Biso   1.000  C
  C32      1.0000 0.89050  0.56040  0.71210  Biso   1.000  C
  C33      1.0000 0.85060  0.60720  0.69930  Biso   1.000  C
  C34      1.0000 0.89250  0.62890  0.63540  Biso   1.000  C
  C35      1.0000 0.97420  0.60370  0.58430  Biso   1.000  C
  C36      1.0000 0.84590  0.67730  0.62030  Biso   1.000  C
  C37      1.0000 0.00860  0.02480  0.99430  Biso   1.000  C
  C38      1.0000 0.97200  0.09230  0.91900  Biso   1.000  C
  C39      1.0000 0.05440  0.12140  0.96390  Biso   1.000  C
  C40      1.0000 0.11390  0.10220  0.02400  Biso   1.000  C
  C41      1.0000 0.09100  0.05390  0.03920  Biso   1.000  C
  C42      1.0000 0.08370  0.17300  0.94670  Biso   1.000  C
  C43      1.0000 0.01550  0.47560  0.00150  Biso   1.000  C
  C44      1.0000 0.09710  0.40980  0.06600  Biso   1.000  C
  C45      1.0000 0.07200  0.37540  0.99930  Biso   1.000  C
  C46      1.0000 0.01860  0.39110  0.93380  Biso   1.000  C
  C47      1.0000 0.99040  0.44120  0.93490  Biso   1.000  C
  C48      1.0000 0.10900  0.32240  0.99220  Biso   1.000  C
  C49      1.0000 0.49230  0.03600  0.82990  Biso   1.000  C
  C50      1.0000 0.45590  0.11860  0.89900  Biso   1.000  C
  C51      1.0000 0.39000  0.12960  0.83520  Biso   1.000  C
  C52      1.0000 0.37530  0.09380  0.76870  Biso   1.000  C
  C53      1.0000 0.42640  0.04700  0.76610  Biso   1.000  C
  C54      1.0000 0.32660  0.17700  0.83980  Biso   1.000  C
  C55      1.0000 0.53340  0.98850  0.83720  Biso   1.000  C
  C56      1.0000 0.53830  0.90190  0.77930  Biso   1.000  C
  C57      1.0000 0.58260  0.88918  0.84990  Biso   1.000  C
  C58      1.0000 0.60230  0.92620  0.91410  Biso   1.000  C
  C59      1.0000 0.57770  0.97580  0.90780  Biso   1.000  C
  C60      1.0000 0.59810  0.83600  0.86010  Biso   1.000  C
  C61      1.0000 0.51060  0.51350  0.83700  Biso   1.000  C
  C62      1.0000 0.50330  0.58270  0.76210  Biso   1.000  C
  C63      1.0000 0.56280  0.61230  0.82260  Biso   1.000  C
  C64      1.0000 0.59620  0.59240  0.89030  Biso   1.000  C
  C65      1.0000 0.57010  0.54310  0.89750  Biso   1.000  C
  C66      1.0000 0.58420  0.66550  0.81390  Biso   1.000  C
  C67      1.0000 0.47210  0.46470  0.83900  Biso   1.000  C
  C68      1.0000 0.39050  0.43960  0.78790  Biso   1.000  C
  C69      1.0000 0.35060  0.39280  0.80070  Biso   1.000  C
  C70      1.0000 0.39250  0.37110  0.86460  Biso   1.000  C
  C71      1.0000 0.47420  0.39630  0.91570  Biso   1.000  C
  C72      1.0000 0.34590  0.32270  0.87970  Biso   1.000  C
  C73      1.0000 0.49140  0.02480  0.49430  Biso   1.000  C
  C74      1.0000 0.52800  0.09230  0.41900  Biso   1.000  C
  C75      1.0000 0.44560  0.12140  0.46390  Biso   1.000  C
  C76      1.0000 0.38610  0.10220  0.52400  Biso   1.000  C
  C77      1.0000 0.40900  0.05390  0.53920  Biso   1.000  C
  C78      1.0000 0.41630  0.17300  0.44670  Biso   1.000  C
  C79      1.0000 0.48450  0.47560  0.50150  Biso   1.000  C
  C80      1.0000 0.40290  0.40980  0.56600  Biso   1.000  C
  C81      1.0000 0.42800  0.37540  0.49930  Biso   1.000  C
  C82      1.0000 0.48140  0.39110  0.43380  Biso   1.000  C
  C83      1.0000 0.50960  0.44120  0.43490  Biso   1.000  C
  C84      1.0000 0.39100  0.32240  0.49220  Biso   1.000  C
  C85      1.0000 0.00770  0.03600  0.32990  Biso   1.000  C
  C86      1.0000 0.04410  0.11860  0.39900  Biso   1.000  C
  C87      1.0000 0.11000  0.12960  0.33520  Biso   1.000  C
  C88      1.0000 0.12470  0.09380  0.26870  Biso   1.000  C
  C89      1.0000 0.07360  0.04700  0.26610  Biso   1.000  C
  C90      1.0000 0.17340  0.17700  0.33980  Biso   1.000  C
  C91      1.0000 0.96660  0.98850  0.33720  Biso   1.000  C
  C92      1.0000 0.96170  0.90190  0.27930  Biso   1.000  C
  C93      1.0000 0.91740  0.88918  0.34990  Biso   1.000  C
  C94      1.0000 0.89770  0.92620  0.41410  Biso   1.000  C
  C95      1.0000 0.92230  0.97580  0.40780  Biso   1.000  C
  C96      1.0000 0.90190  0.83600  0.36010  Biso   1.000  C
  C97      1.0000 0.98940  0.51350  0.33700  Biso   1.000  C
  C98      1.0000 0.99670  0.58270  0.26210  Biso   1.000  C
  C99      1.0000 0.93720  0.61230  0.32260  Biso   1.000  C
  C100     1.0000 0.90380  0.59240  0.39030  Biso   1.000  C
  C101     1.0000 0.92990  0.54310  0.39750  Biso   1.000  C
  C102     1.0000 0.91580  0.66550  0.31390  Biso   1.000  C
  C103     1.0000 0.02790  0.46470  0.33900  Biso   1.000  C
  C104     1.0000 0.10950  0.43960  0.28790  Biso   1.000  C
  C105     1.0000 0.14940  0.39280  0.30070  Biso   1.000  C
  C106     1.0000 0.10750  0.37110  0.36460  Biso   1.000  C
  C107     1.0000 0.02580  0.39630  0.41570  Biso   1.000  C
  C108     1.0000 0.15410  0.32270  0.37970  Biso   1.000  C
  C109     1.0000 0.99140  0.97520  0.00570  Biso   1.000  C
  C110     1.0000 0.02800  0.90770  0.08100  Biso   1.000  C
  C111     1.0000 0.94560  0.87860  0.03610  Biso   1.000  C
  C112     1.0000 0.88610  0.89780  0.97600  Biso   1.000  C
  C113     1.0000 0.90900  0.94610  0.96080  Biso   1.000  C
  C114     1.0000 0.91630  0.82700  0.05330  Biso   1.000  C
  C115     1.0000 0.98450  0.52440  0.99850  Biso   1.000  C
  C116     1.0000 0.90290  0.59020  0.93400  Biso   1.000  C
  C117     1.0000 0.92800  0.62460  0.00070  Biso   1.000  C
  C118     1.0000 0.98140  0.60890  0.06620  Biso   1.000  C
  C119     1.0000 0.00960  0.55880  0.06510  Biso   1.000  C
  C120     1.0000 0.89100  0.67760  0.00780  Biso   1.000  C
  C121     1.0000 0.50770  0.96400  0.17010  Biso   1.000  C
  C122     1.0000 0.54410  0.88140  0.10100  Biso   1.000  C
  C123     1.0000 0.61000  0.87040  0.16480  Biso   1.000  C
  C124     1.0000 0.62470  0.90620  0.23130  Biso   1.000  C
  C125     1.0000 0.57360  0.95300  0.23390  Biso   1.000  C
  C126     1.0000 0.67340  0.82300  0.16020  Biso   1.000  C
  C127     1.0000 0.46660  0.01150  0.16280  Biso   1.000  C
  C128     1.0000 0.46170  0.09810  0.22070  Biso   1.000  C
  C129     1.0000 0.41740  0.11082  0.15010  Biso   1.000  C
  C130     1.0000 0.39770  0.07380  0.08590  Biso   1.000  C
  C131     1.0000 0.42230  0.02420  0.09220  Biso   1.000  C
  C132     1.0000 0.40190  0.16400  0.13990  Biso   1.000  C
  C133     1.0000 0.48940  0.48650  0.16300  Biso   1.000  C
  C134     1.0000 0.49670  0.41730  0.23790  Biso   1.000  C
  C135     1.0000 0.43720  0.38770  0.17740  Biso   1.000  C
  C136     1.0000 0.40380  0.40760  0.10970  Biso   1.000  C
  C137     1.0000 0.42990  0.45690  0.10250  Biso   1.000  C
  C138     1.0000 0.41580  0.33450  0.18610  Biso   1.000  C
  C139     1.0000 0.52790  0.53530  0.16100  Biso   1.000  C
  C140     1.0000 0.60950  0.56040  0.21210  Biso   1.000  C
  C141     1.0000 0.64940  0.60720  0.19930  Biso   1.000  C
  C142     1.0000 0.60750  0.62890  0.13540  Biso   1.000  C
  C143     1.0000 0.52580  0.60370  0.08430  Biso   1.000  C
  C144     1.0000 0.65410  0.67730  0.12030  Biso   1.000  C
  N1       1.0000 0.44920  0.95600  0.56580  Biso   1.000  N
  N2       1.0000 0.56890  0.54010  0.43290  Biso   1.000  N
  N3       1.0000 0.00700  0.92820  0.60360  Biso   1.000  N
  N4       1.0000 0.01370  0.04850  0.72700  Biso   1.000  N
  N5       1.0000 0.97720  0.46670  0.73070  Biso   1.000  N
  N6       1.0000 0.01400  0.55700  0.59710  Biso   1.000  N
  N7       1.0000 0.94920  0.04400  0.93420  Biso   1.000  N
  N8       1.0000 0.06890  0.45990  0.06710  Biso   1.000  N
  N9       1.0000 0.50700  0.07180  0.89640  Biso   1.000  N
  N10      1.0000 0.51370  0.95150  0.77300  Biso   1.000  N
  N11      1.0000 0.47720  0.53330  0.76930  Biso   1.000  N
  N12      1.0000 0.51400  0.44300  0.90290  Biso   1.000  N
  N13      1.0000 0.55080  0.04400  0.43420  Biso   1.000  N
  N14      1.0000 0.43110  0.45990  0.56710  Biso   1.000  N
  N15      1.0000 0.99300  0.07180  0.39640  Biso   1.000  N
  N16      1.0000 0.98630  0.95150  0.27300  Biso   1.000  N
  N17      1.0000 0.02280  0.53330  0.26930  Biso   1.000  N
  N18      1.0000 0.98600  0.44300  0.40290  Biso   1.000  N
  N19      1.0000 0.05080  0.95600  0.06580  Biso   1.000  N
  N20      1.0000 0.93110  0.54010  0.93290  Biso   1.000  N
  N21      1.0000 0.49300  0.92820  0.10360  Biso   1.000  N
  N22      1.0000 0.48630  0.04850  0.22700  Biso   1.000  N
  N23      1.0000 0.52280  0.46670  0.23070  Biso   1.000  N
  N24      1.0000 0.48600  0.55700  0.09710  Biso   1.000  N
  O1       1.0000 0.58690  0.70380  0.57230  Biso   1.000  O
  O2       1.0000 0.77100  0.81430  0.71790  Biso   1.000  O
  O3       1.0000 0.78970  0.70230  0.67430  Biso   1.000  O
  O4       1.0000 0.55210  0.81520  0.61730  Biso   1.000  O
  O5       1.0000 0.06360  0.19660  0.69730  Biso   1.000  O
  O6       1.0000 0.07600  0.32000  0.74960  Biso   1.000  O
  O7       1.0000 0.40830  0.74570  0.69300  Biso   1.000  O
  O8       1.0000 0.14110  0.17430  0.57890  Biso   1.000  O
  O9       1.0000 0.83270  0.79560  0.59760  Biso   1.000  O
  O10      1.0000 0.64440  0.80060  0.50140  Biso   1.000  O
  O11      1.0000 0.66170  0.68910  0.44990  Biso   1.000  O
  O12      1.0000 0.96330  0.23740  0.51300  Biso   1.000  O
  O13      1.0000 0.29600  0.24540  0.65980  Biso   1.000  O
  O14      1.0000 0.86820  0.68840  0.55150  Biso   1.000  O
  O15      1.0000 0.10600  0.30710  0.62440  Biso   1.000  O
  O16      1.0000 0.08690  0.29620  0.92770  Biso   1.000  O
  O17      1.0000 0.27100  0.18570  0.78210  Biso   1.000  O
  O18      1.0000 0.28970  0.29770  0.82570  Biso   1.000  O
  O19      1.0000 0.05210  0.18480  0.88270  Biso   1.000  O
  O20      1.0000 0.56360  0.80340  0.80270  Biso   1.000  O
  O21      1.0000 0.57600  0.68000  0.75040  Biso   1.000  O
  O22      1.0000 0.90830  0.25430  0.80700  Biso   1.000  O
  O23      1.0000 0.64110  0.82570  0.92110  Biso   1.000  O
  O24      1.0000 0.33270  0.20440  0.90240  Biso   1.000  O
  O25      1.0000 0.14440  0.19940  0.99860  Biso   1.000  O
  O26      1.0000 0.16170  0.31090  0.05010  Biso   1.000  O
  O27      1.0000 0.46330  0.76260  0.98700  Biso   1.000  O
  O28      1.0000 0.79600  0.75460  0.84020  Biso   1.000  O
  O29      1.0000 0.36820  0.31160  0.94850  Biso   1.000  O
  O30      1.0000 0.60600  0.69290  0.87560  Biso   1.000  O
  O31      1.0000 0.41310  0.29620  0.42770  Biso   1.000  O
  O32      1.0000 0.22900  0.18570  0.28210  Biso   1.000  O
  O33      1.0000 0.21030  0.29770  0.32570  Biso   1.000  O
  O34      1.0000 0.44790  0.18480  0.38270  Biso   1.000  O
  O35      1.0000 0.93640  0.80340  0.30270  Biso   1.000  O
  O36      1.0000 0.92400  0.68000  0.25040  Biso   1.000  O
  O37      1.0000 0.59170  0.25430  0.30700  Biso   1.000  O
  O38      1.0000 0.85890  0.82570  0.42110  Biso   1.000  O
  O39      1.0000 0.16730  0.20440  0.40240  Biso   1.000  O
  O40      1.0000 0.35560  0.19940  0.49860  Biso   1.000  O
  O41      1.0000 0.33830  0.31090  0.55010  Biso   1.000  O
  O42      1.0000 0.03670  0.76260  0.48700  Biso   1.000  O
  O43      1.0000 0.70400  0.75460  0.34020  Biso   1.000  O
  O44      1.0000 0.13180  0.31160  0.44850  Biso   1.000  O
  O45      1.0000 0.89400  0.69290  0.37560  Biso   1.000  O
  O46      1.0000 0.91310  0.70380  0.07230  Biso   1.000  O
  O47      1.0000 0.72900  0.81430  0.21790  Biso   1.000  O
  O48      1.0000 0.71030  0.70230  0.17430  Biso   1.000  O
  O49      1.0000 0.94790  0.81520  0.11730  Biso   1.000  O
  O50      1.0000 0.43640  0.19660  0.19730  Biso   1.000  O
  O51      1.0000 0.42400  0.32000  0.24960  Biso   1.000  O
  O52      1.0000 0.09170  0.74570  0.19300  Biso   1.000  O
  O53      1.0000 0.35890  0.17430  0.07890  Biso   1.000  O
  O54      1.0000 0.66730  0.79560  0.09760  Biso   1.000  O
  O55      1.0000 0.85560  0.80060  0.00140  Biso   1.000  O
  O56      1.0000 0.83830  0.68910  0.94990  Biso   1.000  O
  O57      1.0000 0.53670  0.23740  0.01300  Biso   1.000  O
  O58      1.0000 0.20400  0.24540  0.15980  Biso   1.000  O
  O59      1.0000 0.63180  0.68840  0.05150  Biso   1.000  O
  O60      1.0000 0.39400  0.30710  0.12440  Biso   1.000  O
