data_image0
_cell_length_a       11.351
_cell_length_b       27.0951
_cell_length_c       17.0184
_cell_angle_alpha    98.218
_cell_angle_beta     90
_cell_angle_gamma    90

_symmetry_space_group_name_H-M    P 1
_symmetry_int_tables_number       1

loop_
  _symmetry_equiv_pos_as_xyz
  'x, y, z'

loop_
  _atom_site_label
  _atom_site_occupancy
  _atom_site_fract_x
  _atom_site_fract_y
  _atom_site_fract_z
  _atom_site_thermal_displace_type
  _atom_site_B_iso_or_equiv
  _atom_site_type_symbol
  Sm1      1.0000 0.12356  0.75181  0.69044  Biso   1.000  Sm
  Sm2      1.0000 0.68661  0.24912  0.53017  Biso   1.000  Sm
  Sm3      1.0000 0.62356  0.24819  0.80956  Biso   1.000  Sm
  Sm4      1.0000 0.18661  0.75088  0.96983  Biso   1.000  Sm
  Sm5      1.0000 0.87644  0.24819  0.30956  Biso   1.000  Sm
  Sm6      1.0000 0.31339  0.75088  0.46983  Biso   1.000  Sm
  Sm7      1.0000 0.37644  0.75181  0.19044  Biso   1.000  Sm
  Sm8      1.0000 0.81339  0.24912  0.03017  Biso   1.000  Sm
  H1       1.0000 0.93020  0.89430  0.61990  Biso   1.000  H
  H2       1.0000 0.17060  0.87860  0.44480  Biso   1.000  H
  H3       1.0000 0.13190  0.95920  0.42070  Biso   1.000  H
  H4       1.0000 0.08640  0.51570  0.38820  Biso   1.000  H
  H5       1.0000 0.13810  0.59860  0.38940  Biso   1.000  H
  H6       1.0000 0.00440  0.63180  0.60930  Biso   1.000  H
  H7       1.0000 0.46400  0.85820  0.55670  Biso   1.000  H
  H8       1.0000 0.34450  0.89790  0.77890  Biso   1.000  H
  H9       1.0000 0.43060  0.97590  0.78210  Biso   1.000  H
  H10      1.0000 0.49700  0.03850  0.77540  Biso   1.000  H
  H11      1.0000 0.53200  0.12160  0.76430  Biso   1.000  H
  H12      1.0000 0.62770  0.08250  0.53660  Biso   1.000  H
  H13      1.0000 0.43710  0.48670  0.77190  Biso   1.000  H
  H14      1.0000 0.47540  0.40380  0.78250  Biso   1.000  H
  H15      1.0000 0.63810  0.38740  0.57060  Biso   1.000  H
  H16      1.0000 0.51410  0.61810  0.54390  Biso   1.000  H
  H17      1.0000 0.30850  0.62680  0.73760  Biso   1.000  H
  H18      1.0000 0.36540  0.54700  0.75560  Biso   1.000  H
  H19      1.0000 0.43020  0.10570  0.88010  Biso   1.000  H
  H20      1.0000 0.67060  0.12140  0.05520  Biso   1.000  H
  H21      1.0000 0.63190  0.04080  0.07930  Biso   1.000  H
  H22      1.0000 0.58640  0.48430  0.11180  Biso   1.000  H
  H23      1.0000 0.63810  0.40140  0.11060  Biso   1.000  H
  H24      1.0000 0.50440  0.36820  0.89070  Biso   1.000  H
  H25      1.0000 0.96400  0.14180  0.94330  Biso   1.000  H
  H26      1.0000 0.84450  0.10210  0.72110  Biso   1.000  H
  H27      1.0000 0.93060  0.02410  0.71790  Biso   1.000  H
  H28      1.0000 0.99700  0.96150  0.72460  Biso   1.000  H
  H29      1.0000 0.03200  0.87840  0.73570  Biso   1.000  H
  H30      1.0000 0.12770  0.91750  0.96340  Biso   1.000  H
  H31      1.0000 0.93710  0.51330  0.72810  Biso   1.000  H
  H32      1.0000 0.97540  0.59620  0.71750  Biso   1.000  H
  H33      1.0000 0.13810  0.61260  0.92940  Biso   1.000  H
  H34      1.0000 0.01410  0.38190  0.95610  Biso   1.000  H
  H35      1.0000 0.80850  0.37320  0.76240  Biso   1.000  H
  H36      1.0000 0.86540  0.45300  0.74440  Biso   1.000  H
  H37      1.0000 0.06980  0.10570  0.38010  Biso   1.000  H
  H38      1.0000 0.82940  0.12140  0.55520  Biso   1.000  H
  H39      1.0000 0.86810  0.04080  0.57930  Biso   1.000  H
  H40      1.0000 0.91360  0.48430  0.61180  Biso   1.000  H
  H41      1.0000 0.86190  0.40140  0.61060  Biso   1.000  H
  H42      1.0000 0.99560  0.36820  0.39070  Biso   1.000  H
  H43      1.0000 0.53600  0.14180  0.44330  Biso   1.000  H
  H44      1.0000 0.65550  0.10210  0.22110  Biso   1.000  H
  H45      1.0000 0.56940  0.02410  0.21790  Biso   1.000  H
  H46      1.0000 0.50300  0.96150  0.22460  Biso   1.000  H
  H47      1.0000 0.46800  0.87840  0.23570  Biso   1.000  H
  H48      1.0000 0.37230  0.91750  0.46340  Biso   1.000  H
  H49      1.0000 0.56290  0.51330  0.22810  Biso   1.000  H
  H50      1.0000 0.52460  0.59620  0.21750  Biso   1.000  H
  H51      1.0000 0.36190  0.61260  0.42940  Biso   1.000  H
  H52      1.0000 0.48590  0.38190  0.45610  Biso   1.000  H
  H53      1.0000 0.69150  0.37320  0.26240  Biso   1.000  H
  H54      1.0000 0.63460  0.45300  0.24440  Biso   1.000  H
  H55      1.0000 0.56980  0.89430  0.11990  Biso   1.000  H
  H56      1.0000 0.32940  0.87860  0.94480  Biso   1.000  H
  H57      1.0000 0.36810  0.95920  0.92070  Biso   1.000  H
  H58      1.0000 0.41360  0.51570  0.88820  Biso   1.000  H
  H59      1.0000 0.36190  0.59860  0.88940  Biso   1.000  H
  H60      1.0000 0.49560  0.63180  0.10930  Biso   1.000  H
  H61      1.0000 0.03600  0.85820  0.05670  Biso   1.000  H
  H62      1.0000 0.15550  0.89790  0.27890  Biso   1.000  H
  H63      1.0000 0.06940  0.97590  0.28210  Biso   1.000  H
  H64      1.0000 0.00300  0.03850  0.27540  Biso   1.000  H
  H65      1.0000 0.96800  0.12160  0.26430  Biso   1.000  H
  H66      1.0000 0.87230  0.08250  0.03660  Biso   1.000  H
  H67      1.0000 0.06290  0.48670  0.27190  Biso   1.000  H
  H68      1.0000 0.02460  0.40380  0.28250  Biso   1.000  H
  H69      1.0000 0.86190  0.38740  0.07060  Biso   1.000  H
  H70      1.0000 0.98590  0.61810  0.04390  Biso   1.000  H
  H71      1.0000 0.19150  0.62680  0.23760  Biso   1.000  H
  H72      1.0000 0.13460  0.54700  0.25560  Biso   1.000  H
  C1       1.0000 0.00790  0.97500  0.50590  Biso   1.000  C
  C2       1.0000 0.97060  0.90730  0.57990  Biso   1.000  C
  C3       1.0000 0.05420  0.87844  0.53470  Biso   1.000  C
  C4       1.0000 0.11470  0.89790  0.47500  Biso   1.000  C
  C5       1.0000 0.09150  0.94620  0.46060  Biso   1.000  C
  C6       1.0000 0.08310  0.82770  0.55170  Biso   1.000  C
  C7       1.0000 0.01450  0.52400  0.49800  Biso   1.000  C
  C8       1.0000 0.07000  0.53890  0.43250  Biso   1.000  C
  C9       1.0000 0.10100  0.58860  0.43320  Biso   1.000  C
  C10      1.0000 0.07640  0.62340  0.49950  Biso   1.000  C
  C11      1.0000 0.02090  0.60850  0.56500  Biso   1.000  C
  C12      1.0000 0.12020  0.67560  0.50410  Biso   1.000  C
  C13      1.0000 0.49890  0.96368  0.67120  Biso   1.000  C
  C14      1.0000 0.45730  0.88170  0.60180  Biso   1.000  C
  C15      1.0000 0.39570  0.87030  0.66750  Biso   1.000  C
  C16      1.0000 0.38570  0.90560  0.73500  Biso   1.000  C
  C17      1.0000 0.43730  0.95230  0.73690  Biso   1.000  C
  C18      1.0000 0.32580  0.82360  0.66460  Biso   1.000  C
  C19      1.0000 0.54140  0.01073  0.66270  Biso   1.000  C
  C20      1.0000 0.52320  0.04730  0.72760  Biso   1.000  C
  C21      1.0000 0.54420  0.09710  0.72090  Biso   1.000  C
  C22      1.0000 0.58330  0.11028  0.64930  Biso   1.000  C
  C23      1.0000 0.60150  0.07370  0.58440  Biso   1.000  C
  C24      1.0000 0.59210  0.16430  0.64200  Biso   1.000  C
  C25      1.0000 0.51470  0.48671  0.66490  Biso   1.000  C
  C26      1.0000 0.47740  0.46680  0.73150  Biso   1.000  C
  C27      1.0000 0.50030  0.41710  0.73790  Biso   1.000  C
  C28      1.0000 0.56050  0.38738  0.67760  Biso   1.000  C
  C29      1.0000 0.59780  0.40730  0.61100  Biso   1.000  C
  C30      1.0000 0.58030  0.33440  0.68850  Biso   1.000  C
  C31      1.0000 0.47380  0.53470  0.66060  Biso   1.000  C
  C32      1.0000 0.48430  0.60380  0.58630  Biso   1.000  C
  C33      1.0000 0.40560  0.63040  0.63890  Biso   1.000  C
  C34      1.0000 0.36110  0.60910  0.70240  Biso   1.000  C
  C35      1.0000 0.39520  0.56120  0.71320  Biso   1.000  C
  C36      1.0000 0.35700  0.67830  0.62030  Biso   1.000  C
  C37      1.0000 0.50790  0.02500  0.99410  Biso   1.000  C
  C38      1.0000 0.47060  0.09270  0.92010  Biso   1.000  C
  C39      1.0000 0.55420  0.12156  0.96530  Biso   1.000  C
  C40      1.0000 0.61470  0.10210  0.02500  Biso   1.000  C
  C41      1.0000 0.59150  0.05380  0.03940  Biso   1.000  C
  C42      1.0000 0.58310  0.17230  0.94830  Biso   1.000  C
  C43      1.0000 0.51450  0.47600  0.00200  Biso   1.000  C
  C44      1.0000 0.57000  0.46110  0.06750  Biso   1.000  C
  C45      1.0000 0.60100  0.41140  0.06680  Biso   1.000  C
  C46      1.0000 0.57640  0.37660  0.00050  Biso   1.000  C
  C47      1.0000 0.52090  0.39150  0.93500  Biso   1.000  C
  C48      1.0000 0.62020  0.32440  0.99590  Biso   1.000  C
  C49      1.0000 0.99890  0.03632  0.82880  Biso   1.000  C
  C50      1.0000 0.95730  0.11830  0.89820  Biso   1.000  C
  C51      1.0000 0.89570  0.12970  0.83250  Biso   1.000  C
  C52      1.0000 0.88570  0.09440  0.76500  Biso   1.000  C
  C53      1.0000 0.93730  0.04770  0.76310  Biso   1.000  C
  C54      1.0000 0.82580  0.17640  0.83540  Biso   1.000  C
  C55      1.0000 0.04140  0.98927  0.83730  Biso   1.000  C
  C56      1.0000 0.02320  0.95270  0.77240  Biso   1.000  C
  C57      1.0000 0.04420  0.90290  0.77910  Biso   1.000  C
  C58      1.0000 0.08330  0.88972  0.85070  Biso   1.000  C
  C59      1.0000 0.10150  0.92630  0.91560  Biso   1.000  C
  C60      1.0000 0.09210  0.83570  0.85800  Biso   1.000  C
  C61      1.0000 0.01470  0.51329  0.83510  Biso   1.000  C
  C62      1.0000 0.97740  0.53320  0.76850  Biso   1.000  C
  C63      1.0000 0.00030  0.58290  0.76210  Biso   1.000  C
  C64      1.0000 0.06050  0.61262  0.82240  Biso   1.000  C
  C65      1.0000 0.09780  0.59270  0.88900  Biso   1.000  C
  C66      1.0000 0.08030  0.66560  0.81150  Biso   1.000  C
  C67      1.0000 0.97380  0.46530  0.83940  Biso   1.000  C
  C68      1.0000 0.98430  0.39620  0.91370  Biso   1.000  C
  C69      1.0000 0.90560  0.36960  0.86110  Biso   1.000  C
  C70      1.0000 0.86110  0.39090  0.79760  Biso   1.000  C
  C71      1.0000 0.89520  0.43880  0.78680  Biso   1.000  C
  C72      1.0000 0.85700  0.32170  0.87970  Biso   1.000  C
  C73      1.0000 0.99210  0.02500  0.49410  Biso   1.000  C
  C74      1.0000 0.02940  0.09270  0.42010  Biso   1.000  C
  C75      1.0000 0.94580  0.12156  0.46530  Biso   1.000  C
  C76      1.0000 0.88530  0.10210  0.52500  Biso   1.000  C
  C77      1.0000 0.90850  0.05380  0.53940  Biso   1.000  C
  C78      1.0000 0.91690  0.17230  0.44830  Biso   1.000  C
  C79      1.0000 0.98550  0.47600  0.50200  Biso   1.000  C
  C80      1.0000 0.93000  0.46110  0.56750  Biso   1.000  C
  C81      1.0000 0.89900  0.41140  0.56680  Biso   1.000  C
  C82      1.0000 0.92360  0.37660  0.50050  Biso   1.000  C
  C83      1.0000 0.97910  0.39150  0.43500  Biso   1.000  C
  C84      1.0000 0.87980  0.32440  0.49590  Biso   1.000  C
  C85      1.0000 0.50110  0.03632  0.32880  Biso   1.000  C
  C86      1.0000 0.54270  0.11830  0.39820  Biso   1.000  C
  C87      1.0000 0.60430  0.12970  0.33250  Biso   1.000  C
  C88      1.0000 0.61430  0.09440  0.26500  Biso   1.000  C
  C89      1.0000 0.56270  0.04770  0.26310  Biso   1.000  C
  C90      1.0000 0.67420  0.17640  0.33540  Biso   1.000  C
  C91      1.0000 0.45860  0.98927  0.33730  Biso   1.000  C
  C92      1.0000 0.47680  0.95270  0.27240  Biso   1.000  C
  C93      1.0000 0.45580  0.90290  0.27910  Biso   1.000  C
  C94      1.0000 0.41670  0.88972  0.35070  Biso   1.000  C
  C95      1.0000 0.39850  0.92630  0.41560  Biso   1.000  C
  C96      1.0000 0.40790  0.83570  0.35800  Biso   1.000  C
  C97      1.0000 0.48530  0.51329  0.33510  Biso   1.000  C
  C98      1.0000 0.52260  0.53320  0.26850  Biso   1.000  C
  C99      1.0000 0.49970  0.58290  0.26210  Biso   1.000  C
  C100     1.0000 0.43950  0.61262  0.32240  Biso   1.000  C
  C101     1.0000 0.40220  0.59270  0.38900  Biso   1.000  C
  C102     1.0000 0.41970  0.66560  0.31150  Biso   1.000  C
  C103     1.0000 0.52620  0.46530  0.33940  Biso   1.000  C
  C104     1.0000 0.51570  0.39620  0.41370  Biso   1.000  C
  C105     1.0000 0.59440  0.36960  0.36110  Biso   1.000  C
  C106     1.0000 0.63890  0.39090  0.29760  Biso   1.000  C
  C107     1.0000 0.60480  0.43880  0.28680  Biso   1.000  C
  C108     1.0000 0.64300  0.32170  0.37970  Biso   1.000  C
  C109     1.0000 0.49210  0.97500  0.00590  Biso   1.000  C
  C110     1.0000 0.52940  0.90730  0.07990  Biso   1.000  C
  C111     1.0000 0.44580  0.87844  0.03470  Biso   1.000  C
  C112     1.0000 0.38530  0.89790  0.97500  Biso   1.000  C
  C113     1.0000 0.40850  0.94620  0.96060  Biso   1.000  C
  C114     1.0000 0.41690  0.82770  0.05170  Biso   1.000  C
  C115     1.0000 0.48550  0.52400  0.99800  Biso   1.000  C
  C116     1.0000 0.43000  0.53890  0.93250  Biso   1.000  C
  C117     1.0000 0.39900  0.58860  0.93320  Biso   1.000  C
  C118     1.0000 0.42360  0.62340  0.99950  Biso   1.000  C
  C119     1.0000 0.47910  0.60850  0.06500  Biso   1.000  C
  C120     1.0000 0.37980  0.67560  0.00410  Biso   1.000  C
  C121     1.0000 0.00110  0.96368  0.17120  Biso   1.000  C
  C122     1.0000 0.04270  0.88170  0.10180  Biso   1.000  C
  C123     1.0000 0.10430  0.87030  0.16750  Biso   1.000  C
  C124     1.0000 0.11430  0.90560  0.23500  Biso   1.000  C
  C125     1.0000 0.06270  0.95230  0.23690  Biso   1.000  C
  C126     1.0000 0.17420  0.82360  0.16460  Biso   1.000  C
  C127     1.0000 0.95860  0.01073  0.16270  Biso   1.000  C
  C128     1.0000 0.97680  0.04730  0.22760  Biso   1.000  C
  C129     1.0000 0.95580  0.09710  0.22090  Biso   1.000  C
  C130     1.0000 0.91670  0.11028  0.14930  Biso   1.000  C
  C131     1.0000 0.89850  0.07370  0.08440  Biso   1.000  C
  C132     1.0000 0.90790  0.16430  0.14200  Biso   1.000  C
  C133     1.0000 0.98530  0.48671  0.16490  Biso   1.000  C
  C134     1.0000 0.02260  0.46680  0.23150  Biso   1.000  C
  C135     1.0000 0.99970  0.41710  0.23790  Biso   1.000  C
  C136     1.0000 0.93950  0.38738  0.17760  Biso   1.000  C
  C137     1.0000 0.90220  0.40730  0.11100  Biso   1.000  C
  C138     1.0000 0.91970  0.33440  0.18850  Biso   1.000  C
  C139     1.0000 0.02620  0.53470  0.16060  Biso   1.000  C
  C140     1.0000 0.01570  0.60380  0.08630  Biso   1.000  C
  C141     1.0000 0.09440  0.63040  0.13890  Biso   1.000  C
  C142     1.0000 0.13890  0.60910  0.20240  Biso   1.000  C
  C143     1.0000 0.10480  0.56120  0.21320  Biso   1.000  C
  C144     1.0000 0.14300  0.67830  0.12030  Biso   1.000  C
  N1       1.0000 0.94740  0.95550  0.56550  Biso   1.000  N
  N2       1.0000 0.98990  0.55880  0.56430  Biso   1.000  N
  N3       1.0000 0.50890  0.92840  0.60370  Biso   1.000  N
  N4       1.0000 0.58050  0.02390  0.59110  Biso   1.000  N
  N5       1.0000 0.57490  0.45700  0.60460  Biso   1.000  N
  N6       1.0000 0.51840  0.55600  0.59710  Biso   1.000  N
  N7       1.0000 0.44740  0.04450  0.93450  Biso   1.000  N
  N8       1.0000 0.48990  0.44120  0.93570  Biso   1.000  N
  N9       1.0000 0.00890  0.07160  0.89630  Biso   1.000  N
  N10      1.0000 0.08050  0.97610  0.90890  Biso   1.000  N
  N11      1.0000 0.07490  0.54300  0.89540  Biso   1.000  N
  N12      1.0000 0.01840  0.44400  0.90290  Biso   1.000  N
  N13      1.0000 0.05260  0.04450  0.43450  Biso   1.000  N
  N14      1.0000 0.01010  0.44120  0.43570  Biso   1.000  N
  N15      1.0000 0.49110  0.07160  0.39630  Biso   1.000  N
  N16      1.0000 0.41950  0.97610  0.40890  Biso   1.000  N
  N17      1.0000 0.42510  0.54300  0.39540  Biso   1.000  N
  N18      1.0000 0.48160  0.44400  0.40290  Biso   1.000  N
  N19      1.0000 0.55260  0.95550  0.06550  Biso   1.000  N
  N20      1.0000 0.51010  0.55880  0.06430  Biso   1.000  N
  N21      1.0000 0.99110  0.92840  0.10370  Biso   1.000  N
  N22      1.0000 0.91950  0.02390  0.09110  Biso   1.000  N
  N23      1.0000 0.92510  0.45700  0.10460  Biso   1.000  N
  N24      1.0000 0.98160  0.55600  0.09710  Biso   1.000  N
  O1       1.0000 0.10040  0.70300  0.56820  Biso   1.000  O
  O2       1.0000 0.27420  0.81520  0.72300  Biso   1.000  O
  O3       1.0000 0.30130  0.70310  0.67590  Biso   1.000  O
  O4       1.0000 0.05430  0.81660  0.61610  Biso   1.000  O
  O5       1.0000 0.56130  0.19500  0.69840  Biso   1.000  O
  O6       1.0000 0.58910  0.32210  0.75400  Biso   1.000  O
  O7       1.0000 0.89470  0.74440  0.69190  Biso   1.000  O
  O8       1.0000 0.63820  0.17460  0.58000  Biso   1.000  O
  O9       1.0000 0.32940  0.79660  0.60110  Biso   1.000  O
  O10      1.0000 0.14110  0.80080  0.49760  Biso   1.000  O
  O11      1.0000 0.17150  0.68660  0.44450  Biso   1.000  O
  O12      1.0000 0.79140  0.24700  0.66070  Biso   1.000  O
  O13      1.0000 0.37700  0.68900  0.55350  Biso   1.000  O
  O14      1.0000 0.57580  0.30480  0.62090  Biso   1.000  O
  O15      1.0000 0.44830  0.23660  0.51110  Biso   1.000  O
  O16      1.0000 0.60040  0.29700  0.93180  Biso   1.000  O
  O17      1.0000 0.77420  0.18480  0.77700  Biso   1.000  O
  O18      1.0000 0.80130  0.29690  0.82410  Biso   1.000  O
  O19      1.0000 0.55430  0.18340  0.88390  Biso   1.000  O
  O20      1.0000 0.06130  0.80500  0.80160  Biso   1.000  O
  O21      1.0000 0.08910  0.67790  0.74600  Biso   1.000  O
  O22      1.0000 0.39470  0.25560  0.80810  Biso   1.000  O
  O23      1.0000 0.13820  0.82540  0.92000  Biso   1.000  O
  O24      1.0000 0.82940  0.20340  0.89890  Biso   1.000  O
  O25      1.0000 0.64110  0.19920  0.00240  Biso   1.000  O
  O26      1.0000 0.67150  0.31340  0.05550  Biso   1.000  O
  O27      1.0000 0.29140  0.75300  0.83930  Biso   1.000  O
  O28      1.0000 0.87700  0.31100  0.94650  Biso   1.000  O
  O29      1.0000 0.07580  0.69520  0.87910  Biso   1.000  O
  O30      1.0000 0.94830  0.76340  0.98890  Biso   1.000  O
  O31      1.0000 0.89960  0.29700  0.43180  Biso   1.000  O
  O32      1.0000 0.72580  0.18480  0.27700  Biso   1.000  O
  O33      1.0000 0.69870  0.29690  0.32410  Biso   1.000  O
  O34      1.0000 0.94570  0.18340  0.38390  Biso   1.000  O
  O35      1.0000 0.43870  0.80500  0.30160  Biso   1.000  O
  O36      1.0000 0.41090  0.67790  0.24600  Biso   1.000  O
  O37      1.0000 0.10530  0.25560  0.30810  Biso   1.000  O
  O38      1.0000 0.36180  0.82540  0.42000  Biso   1.000  O
  O39      1.0000 0.67060  0.20340  0.39890  Biso   1.000  O
  O40      1.0000 0.85890  0.19920  0.50240  Biso   1.000  O
  O41      1.0000 0.82850  0.31340  0.55550  Biso   1.000  O
  O42      1.0000 0.20860  0.75300  0.33930  Biso   1.000  O
  O43      1.0000 0.62300  0.31100  0.44650  Biso   1.000  O
  O44      1.0000 0.42420  0.69520  0.37910  Biso   1.000  O
  O45      1.0000 0.55170  0.76340  0.48890  Biso   1.000  O
  O46      1.0000 0.39960  0.70300  0.06820  Biso   1.000  O
  O47      1.0000 0.22580  0.81520  0.22300  Biso   1.000  O
  O48      1.0000 0.19870  0.70310  0.17590  Biso   1.000  O
  O49      1.0000 0.44570  0.81660  0.11610  Biso   1.000  O
  O50      1.0000 0.93870  0.19500  0.19840  Biso   1.000  O
  O51      1.0000 0.91090  0.32210  0.25400  Biso   1.000  O
  O52      1.0000 0.60530  0.74440  0.19190  Biso   1.000  O
  O53      1.0000 0.86180  0.17460  0.08000  Biso   1.000  O
  O54      1.0000 0.17060  0.79660  0.10110  Biso   1.000  O
  O55      1.0000 0.35890  0.80080  0.99760  Biso   1.000  O
  O56      1.0000 0.32850  0.68660  0.94450  Biso   1.000  O
  O57      1.0000 0.70860  0.24700  0.16070  Biso   1.000  O
  O58      1.0000 0.12300  0.68900  0.05350  Biso   1.000  O
  O59      1.0000 0.92420  0.30480  0.12090  Biso   1.000  O
  O60      1.0000 0.05170  0.23660  0.01110  Biso   1.000  O
