data_image0
_cell_length_a       15.5117
_cell_length_b       25.5273
_cell_length_c       17.1005
_cell_angle_alpha    98.298
_cell_angle_beta     90
_cell_angle_gamma    90

_symmetry_space_group_name_H-M    P 1
_symmetry_int_tables_number       1

loop_
  _symmetry_equiv_pos_as_xyz
  'x, y, z'

loop_
  _atom_site_label
  _atom_site_occupancy
  _atom_site_fract_x
  _atom_site_fract_y
  _atom_site_fract_z
  _atom_site_thermal_displace_type
  _atom_site_B_iso_or_equiv
  _atom_site_type_symbol
  Sm1      1.0000 0.82514  0.74935  0.68543  Biso   1.000  Sm
  Sm2      1.0000 0.29453  0.24954  0.53682  Biso   1.000  Sm
  Sm3      1.0000 0.32514  0.25065  0.81457  Biso   1.000  Sm
  Sm4      1.0000 0.79453  0.75046  0.96318  Biso   1.000  Sm
  Sm5      1.0000 0.17486  0.25065  0.31457  Biso   1.000  Sm
  Sm6      1.0000 0.70547  0.75046  0.46318  Biso   1.000  Sm
  Sm7      1.0000 0.67486  0.74935  0.18543  Biso   1.000  Sm
  Sm8      1.0000 0.20547  0.24954  0.03682  Biso   1.000  Sm
  H1       1.0000 0.99940  0.88640  0.61930  Biso   1.000  H
  H2       1.0000 0.89660  0.97190  0.41630  Biso   1.000  H
  H3       1.0000 0.83780  0.89140  0.43680  Biso   1.000  H
  H4       1.0000 0.93070  0.63470  0.60880  Biso   1.000  H
  H5       1.0000 0.93390  0.50910  0.38390  Biso   1.000  H
  H6       1.0000 0.86130  0.58840  0.38300  Biso   1.000  H
  H7       1.0000 0.58580  0.85940  0.54660  Biso   1.000  H
  H8       1.0000 0.57120  0.98200  0.77460  Biso   1.000  H
  H9       1.0000 0.65710  0.90730  0.77150  Biso   1.000  H
  H10      1.0000 0.35590  0.07430  0.55200  Biso   1.000  H
  H11      1.0000 0.52570  0.04910  0.76680  Biso   1.000  H
  H12      1.0000 0.46020  0.13030  0.76260  Biso   1.000  H
  H13      1.0000 0.40540  0.38180  0.56590  Biso   1.000  H
  H14      1.0000 0.46960  0.50490  0.78530  Biso   1.000  H
  H15      1.0000 0.41200  0.42330  0.80160  Biso   1.000  H
  H16      1.0000 0.66240  0.62150  0.73080  Biso   1.000  H
  H17      1.0000 0.59090  0.54550  0.75420  Biso   1.000  H
  H18      1.0000 0.52310  0.62350  0.53310  Biso   1.000  H
  H19      1.0000 0.49940  0.11360  0.88070  Biso   1.000  H
  H20      1.0000 0.39660  0.02810  0.08370  Biso   1.000  H
  H21      1.0000 0.33780  0.10860  0.06320  Biso   1.000  H
  H22      1.0000 0.43070  0.36530  0.89120  Biso   1.000  H
  H23      1.0000 0.43390  0.49090  0.11610  Biso   1.000  H
  H24      1.0000 0.36130  0.41160  0.11700  Biso   1.000  H
  H25      1.0000 0.08580  0.14060  0.95340  Biso   1.000  H
  H26      1.0000 0.07120  0.01800  0.72540  Biso   1.000  H
  H27      1.0000 0.15710  0.09270  0.72850  Biso   1.000  H
  H28      1.0000 0.85590  0.92570  0.94800  Biso   1.000  H
  H29      1.0000 0.02570  0.95090  0.73320  Biso   1.000  H
  H30      1.0000 0.96020  0.86970  0.73740  Biso   1.000  H
  H31      1.0000 0.90540  0.61820  0.93410  Biso   1.000  H
  H32      1.0000 0.96960  0.49510  0.71470  Biso   1.000  H
  H33      1.0000 0.91200  0.57670  0.69840  Biso   1.000  H
  H34      1.0000 0.16240  0.37850  0.76920  Biso   1.000  H
  H35      1.0000 0.09090  0.45450  0.74580  Biso   1.000  H
  H36      1.0000 0.02310  0.37650  0.96690  Biso   1.000  H
  H37      1.0000 0.00060  0.11360  0.38070  Biso   1.000  H
  H38      1.0000 0.10340  0.02810  0.58370  Biso   1.000  H
  H39      1.0000 0.16220  0.10860  0.56320  Biso   1.000  H
  H40      1.0000 0.06930  0.36530  0.39120  Biso   1.000  H
  H41      1.0000 0.06610  0.49090  0.61610  Biso   1.000  H
  H42      1.0000 0.13870  0.41160  0.61700  Biso   1.000  H
  H43      1.0000 0.41420  0.14060  0.45340  Biso   1.000  H
  H44      1.0000 0.42880  0.01800  0.22540  Biso   1.000  H
  H45      1.0000 0.34290  0.09270  0.22850  Biso   1.000  H
  H46      1.0000 0.64410  0.92570  0.44800  Biso   1.000  H
  H47      1.0000 0.47430  0.95090  0.23320  Biso   1.000  H
  H48      1.0000 0.53980  0.86970  0.23740  Biso   1.000  H
  H49      1.0000 0.59460  0.61820  0.43410  Biso   1.000  H
  H50      1.0000 0.53040  0.49510  0.21470  Biso   1.000  H
  H51      1.0000 0.58800  0.57670  0.19840  Biso   1.000  H
  H52      1.0000 0.33760  0.37850  0.26920  Biso   1.000  H
  H53      1.0000 0.40910  0.45450  0.24580  Biso   1.000  H
  H54      1.0000 0.47690  0.37650  0.46690  Biso   1.000  H
  H55      1.0000 0.50060  0.88640  0.11930  Biso   1.000  H
  H56      1.0000 0.60340  0.97190  0.91630  Biso   1.000  H
  H57      1.0000 0.66220  0.89140  0.93680  Biso   1.000  H
  H58      1.0000 0.56930  0.63470  0.10880  Biso   1.000  H
  H59      1.0000 0.56610  0.50910  0.88390  Biso   1.000  H
  H60      1.0000 0.63870  0.58840  0.88300  Biso   1.000  H
  H61      1.0000 0.91420  0.85940  0.04660  Biso   1.000  H
  H62      1.0000 0.92880  0.98200  0.27460  Biso   1.000  H
  H63      1.0000 0.84290  0.90730  0.27150  Biso   1.000  H
  H64      1.0000 0.14410  0.07430  0.05200  Biso   1.000  H
  H65      1.0000 0.97430  0.04910  0.26680  Biso   1.000  H
  H66      1.0000 0.03980  0.13030  0.26260  Biso   1.000  H
  H67      1.0000 0.09460  0.38180  0.06590  Biso   1.000  H
  H68      1.0000 0.03040  0.50490  0.28530  Biso   1.000  H
  H69      1.0000 0.08800  0.42330  0.30160  Biso   1.000  H
  H70      1.0000 0.83760  0.62150  0.23080  Biso   1.000  H
  H71      1.0000 0.90910  0.54550  0.25420  Biso   1.000  H
  H72      1.0000 0.97690  0.62350  0.03310  Biso   1.000  H
  C1       1.0000 0.91280  0.88090  0.53010  Biso   1.000  C
  C2       1.0000 0.97880  0.90360  0.57860  Biso   1.000  C
  C3       1.0000 0.98320  0.97740  0.50550  Biso   1.000  C
  C4       1.0000 0.91720  0.95480  0.45700  Biso   1.000  C
  C5       1.0000 0.88200  0.90650  0.46930  Biso   1.000  C
  C6       1.0000 0.87190  0.82740  0.54210  Biso   1.000  C
  C7       1.0000 0.88880  0.61950  0.49590  Biso   1.000  C
  C8       1.0000 0.93130  0.60960  0.56370  Biso   1.000  C
  C9       1.0000 0.97580  0.52440  0.49690  Biso   1.000  C
  C10      1.0000 0.93330  0.53430  0.42900  Biso   1.000  C
  C11      1.0000 0.88980  0.58180  0.42850  Biso   1.000  C
  C12      1.0000 0.83910  0.66600  0.49540  Biso   1.000  C
  C13      1.0000 0.63000  0.87590  0.65880  Biso   1.000  C
  C14      1.0000 0.58290  0.88390  0.59230  Biso   1.000  C
  C15      1.0000 0.52700  0.96540  0.66250  Biso   1.000  C
  C16      1.0000 0.57410  0.95740  0.72890  Biso   1.000  C
  C17      1.0000 0.62560  0.91270  0.72710  Biso   1.000  C
  C18      1.0000 0.68660  0.82900  0.65910  Biso   1.000  C
  C19      1.0000 0.40150  0.11040  0.65690  Biso   1.000  C
  C20      1.0000 0.38990  0.06930  0.59500  Biso   1.000  C
  C21      1.0000 0.48010  0.01300  0.66190  Biso   1.000  C
  C22      1.0000 0.49170  0.05410  0.72370  Biso   1.000  C
  C23      1.0000 0.45240  0.10280  0.72120  Biso   1.000  C
  C24      1.0000 0.36310  0.16210  0.64720  Biso   1.000  C
  C25      1.0000 0.40300  0.39450  0.68540  Biso   1.000  C
  C26      1.0000 0.41830  0.40650  0.60990  Biso   1.000  C
  C27      1.0000 0.47200  0.49220  0.66580  Biso   1.000  C
  C28      1.0000 0.45670  0.48020  0.74130  Biso   1.000  C
  C29      1.0000 0.42220  0.43130  0.75110  Biso   1.000  C
  C30      1.0000 0.36970  0.34170  0.69530  Biso   1.000  C
  C31      1.0000 0.59980  0.63010  0.62970  Biso   1.000  C
  C32      1.0000 0.62010  0.60670  0.69590  Biso   1.000  C
  C33      1.0000 0.57730  0.56110  0.70990  Biso   1.000  C
  C34      1.0000 0.51410  0.53900  0.65770  Biso   1.000  C
  C35      1.0000 0.53670  0.60790  0.57740  Biso   1.000  C
  C36      1.0000 0.65280  0.67940  0.61530  Biso   1.000  C
  C37      1.0000 0.41280  0.11910  0.96990  Biso   1.000  C
  C38      1.0000 0.47880  0.09640  0.92140  Biso   1.000  C
  C39      1.0000 0.48320  0.02260  0.99450  Biso   1.000  C
  C40      1.0000 0.41720  0.04520  0.04300  Biso   1.000  C
  C41      1.0000 0.38200  0.09350  0.03070  Biso   1.000  C
  C42      1.0000 0.37190  0.17260  0.95790  Biso   1.000  C
  C43      1.0000 0.38880  0.38050  0.00410  Biso   1.000  C
  C44      1.0000 0.43130  0.39040  0.93630  Biso   1.000  C
  C45      1.0000 0.47580  0.47560  0.00310  Biso   1.000  C
  C46      1.0000 0.43330  0.46570  0.07100  Biso   1.000  C
  C47      1.0000 0.38980  0.41820  0.07150  Biso   1.000  C
  C48      1.0000 0.33910  0.33400  0.00460  Biso   1.000  C
  C49      1.0000 0.13000  0.12410  0.84120  Biso   1.000  C
  C50      1.0000 0.08290  0.11610  0.90770  Biso   1.000  C
  C51      1.0000 0.02700  0.03460  0.83750  Biso   1.000  C
  C52      1.0000 0.07410  0.04260  0.77110  Biso   1.000  C
  C53      1.0000 0.12560  0.08730  0.77290  Biso   1.000  C
  C54      1.0000 0.18660  0.17100  0.84090  Biso   1.000  C
  C55      1.0000 0.90150  0.88960  0.84310  Biso   1.000  C
  C56      1.0000 0.88990  0.93070  0.90500  Biso   1.000  C
  C57      1.0000 0.98010  0.98700  0.83810  Biso   1.000  C
  C58      1.0000 0.99170  0.94590  0.77630  Biso   1.000  C
  C59      1.0000 0.95240  0.89720  0.77880  Biso   1.000  C
  C60      1.0000 0.86310  0.83790  0.85280  Biso   1.000  C
  C61      1.0000 0.90300  0.60550  0.81460  Biso   1.000  C
  C62      1.0000 0.91830  0.59350  0.89010  Biso   1.000  C
  C63      1.0000 0.97200  0.50780  0.83420  Biso   1.000  C
  C64      1.0000 0.95670  0.51980  0.75870  Biso   1.000  C
  C65      1.0000 0.92220  0.56870  0.74890  Biso   1.000  C
  C66      1.0000 0.86970  0.65830  0.80470  Biso   1.000  C
  C67      1.0000 0.09980  0.36990  0.87030  Biso   1.000  C
  C68      1.0000 0.12010  0.39330  0.80410  Biso   1.000  C
  C69      1.0000 0.07730  0.43890  0.79010  Biso   1.000  C
  C70      1.0000 0.01410  0.46100  0.84230  Biso   1.000  C
  C71      1.0000 0.03670  0.39210  0.92260  Biso   1.000  C
  C72      1.0000 0.15280  0.32060  0.88470  Biso   1.000  C
  C73      1.0000 0.08720  0.11910  0.46990  Biso   1.000  C
  C74      1.0000 0.02120  0.09640  0.42140  Biso   1.000  C
  C75      1.0000 0.01680  0.02260  0.49450  Biso   1.000  C
  C76      1.0000 0.08280  0.04520  0.54300  Biso   1.000  C
  C77      1.0000 0.11800  0.09350  0.53070  Biso   1.000  C
  C78      1.0000 0.12810  0.17260  0.45790  Biso   1.000  C
  C79      1.0000 0.11120  0.38050  0.50410  Biso   1.000  C
  C80      1.0000 0.06870  0.39040  0.43630  Biso   1.000  C
  C81      1.0000 0.02420  0.47560  0.50310  Biso   1.000  C
  C82      1.0000 0.06670  0.46570  0.57100  Biso   1.000  C
  C83      1.0000 0.11020  0.41820  0.57150  Biso   1.000  C
  C84      1.0000 0.16090  0.33400  0.50460  Biso   1.000  C
  C85      1.0000 0.37000  0.12410  0.34120  Biso   1.000  C
  C86      1.0000 0.41710  0.11610  0.40770  Biso   1.000  C
  C87      1.0000 0.47300  0.03460  0.33750  Biso   1.000  C
  C88      1.0000 0.42590  0.04260  0.27110  Biso   1.000  C
  C89      1.0000 0.37440  0.08730  0.27290  Biso   1.000  C
  C90      1.0000 0.31340  0.17100  0.34090  Biso   1.000  C
  C91      1.0000 0.59850  0.88960  0.34310  Biso   1.000  C
  C92      1.0000 0.61010  0.93070  0.40500  Biso   1.000  C
  C93      1.0000 0.51990  0.98700  0.33810  Biso   1.000  C
  C94      1.0000 0.50830  0.94590  0.27630  Biso   1.000  C
  C95      1.0000 0.54760  0.89720  0.27880  Biso   1.000  C
  C96      1.0000 0.63690  0.83790  0.35280  Biso   1.000  C
  C97      1.0000 0.59700  0.60550  0.31460  Biso   1.000  C
  C98      1.0000 0.58170  0.59350  0.39010  Biso   1.000  C
  C99      1.0000 0.52800  0.50780  0.33420  Biso   1.000  C
  C100     1.0000 0.54330  0.51980  0.25870  Biso   1.000  C
  C101     1.0000 0.57780  0.56870  0.24890  Biso   1.000  C
  C102     1.0000 0.63030  0.65830  0.30470  Biso   1.000  C
  C103     1.0000 0.40020  0.36990  0.37030  Biso   1.000  C
  C104     1.0000 0.37990  0.39330  0.30410  Biso   1.000  C
  C105     1.0000 0.42270  0.43890  0.29010  Biso   1.000  C
  C106     1.0000 0.48590  0.46100  0.34230  Biso   1.000  C
  C107     1.0000 0.46330  0.39210  0.42260  Biso   1.000  C
  C108     1.0000 0.34720  0.32060  0.38470  Biso   1.000  C
  C109     1.0000 0.58720  0.88090  0.03010  Biso   1.000  C
  C110     1.0000 0.52120  0.90360  0.07860  Biso   1.000  C
  C111     1.0000 0.51680  0.97740  0.00550  Biso   1.000  C
  C112     1.0000 0.58280  0.95480  0.95700  Biso   1.000  C
  C113     1.0000 0.61800  0.90650  0.96930  Biso   1.000  C
  C114     1.0000 0.62810  0.82740  0.04210  Biso   1.000  C
  C115     1.0000 0.61120  0.61950  0.99590  Biso   1.000  C
  C116     1.0000 0.56870  0.60960  0.06370  Biso   1.000  C
  C117     1.0000 0.52420  0.52440  0.99690  Biso   1.000  C
  C118     1.0000 0.56670  0.53430  0.92900  Biso   1.000  C
  C119     1.0000 0.61020  0.58180  0.92850  Biso   1.000  C
  C120     1.0000 0.66090  0.66600  0.99540  Biso   1.000  C
  C121     1.0000 0.87000  0.87590  0.15880  Biso   1.000  C
  C122     1.0000 0.91710  0.88390  0.09230  Biso   1.000  C
  C123     1.0000 0.97300  0.96540  0.16250  Biso   1.000  C
  C124     1.0000 0.92590  0.95740  0.22890  Biso   1.000  C
  C125     1.0000 0.87440  0.91270  0.22710  Biso   1.000  C
  C126     1.0000 0.81340  0.82900  0.15910  Biso   1.000  C
  C127     1.0000 0.09850  0.11040  0.15690  Biso   1.000  C
  C128     1.0000 0.11010  0.06930  0.09500  Biso   1.000  C
  C129     1.0000 0.01990  0.01300  0.16190  Biso   1.000  C
  C130     1.0000 0.00830  0.05410  0.22370  Biso   1.000  C
  C131     1.0000 0.04760  0.10280  0.22120  Biso   1.000  C
  C132     1.0000 0.13690  0.16210  0.14720  Biso   1.000  C
  C133     1.0000 0.09700  0.39450  0.18540  Biso   1.000  C
  C134     1.0000 0.08170  0.40650  0.10990  Biso   1.000  C
  C135     1.0000 0.02800  0.49220  0.16580  Biso   1.000  C
  C136     1.0000 0.04330  0.48020  0.24130  Biso   1.000  C
  C137     1.0000 0.07780  0.43130  0.25110  Biso   1.000  C
  C138     1.0000 0.13030  0.34170  0.19530  Biso   1.000  C
  C139     1.0000 0.90020  0.63010  0.12970  Biso   1.000  C
  C140     1.0000 0.87990  0.60670  0.19590  Biso   1.000  C
  C141     1.0000 0.92270  0.56110  0.20990  Biso   1.000  C
  C142     1.0000 0.98590  0.53900  0.15770  Biso   1.000  C
  C143     1.0000 0.96330  0.60790  0.07740  Biso   1.000  C
  C144     1.0000 0.84720  0.67940  0.11530  Biso   1.000  C
  N1       1.0000 0.01400  0.95180  0.56630  Biso   1.000  N
  N2       1.0000 0.97490  0.56200  0.56420  Biso   1.000  N
  N3       1.0000 0.53140  0.92870  0.59420  Biso   1.000  N
  N4       1.0000 0.42920  0.02060  0.59750  Biso   1.000  N
  N5       1.0000 0.45280  0.45540  0.60010  Biso   1.000  N
  N6       1.0000 0.49380  0.56230  0.59150  Biso   1.000  N
  N7       1.0000 0.51400  0.04820  0.93370  Biso   1.000  N
  N8       1.0000 0.47490  0.43800  0.93580  Biso   1.000  N
  N9       1.0000 0.03140  0.07130  0.90580  Biso   1.000  N
  N10      1.0000 0.92920  0.97940  0.90250  Biso   1.000  N
  N11      1.0000 0.95280  0.54460  0.89990  Biso   1.000  N
  N12      1.0000 0.99380  0.43770  0.90850  Biso   1.000  N
  N13      1.0000 0.98600  0.04820  0.43370  Biso   1.000  N
  N14      1.0000 0.02510  0.43800  0.43580  Biso   1.000  N
  N15      1.0000 0.46860  0.07130  0.40580  Biso   1.000  N
  N16      1.0000 0.57080  0.97940  0.40250  Biso   1.000  N
  N17      1.0000 0.54720  0.54460  0.39990  Biso   1.000  N
  N18      1.0000 0.50620  0.43770  0.40850  Biso   1.000  N
  N19      1.0000 0.48600  0.95180  0.06630  Biso   1.000  N
  N20      1.0000 0.52510  0.56200  0.06420  Biso   1.000  N
  N21      1.0000 0.96860  0.92870  0.09420  Biso   1.000  N
  N22      1.0000 0.07080  0.02060  0.09750  Biso   1.000  N
  N23      1.0000 0.04720  0.45540  0.10010  Biso   1.000  N
  N24      1.0000 0.00620  0.56230  0.09150  Biso   1.000  N
  O1       1.0000 0.83570  0.69840  0.55760  Biso   1.000  O
  O2       1.0000 0.72470  0.82180  0.71970  Biso   1.000  O
  O3       1.0000 0.69500  0.70090  0.67090  Biso   1.000  O
  O4       1.0000 0.88370  0.81470  0.61160  Biso   1.000  O
  O5       1.0000 0.38200  0.19810  0.70290  Biso   1.000  O
  O6       1.0000 0.35190  0.33210  0.76150  Biso   1.000  O
  O7       1.0000 0.98840  0.73640  0.67330  Biso   1.000  O
  O8       1.0000 0.32230  0.16800  0.58760  Biso   1.000  O
  O9       1.0000 0.69550  0.79920  0.59310  Biso   1.000  O
  O10      1.0000 0.83450  0.80040  0.48690  Biso   1.000  O
  O11      1.0000 0.80070  0.67460  0.43600  Biso   1.000  O
  O12      1.0000 0.46040  0.23390  0.52430  Biso   1.000  O
  O13      1.0000 0.21210  0.24970  0.66720  Biso   1.000  O
  O14      1.0000 0.64470  0.68950  0.54580  Biso   1.000  O
  O15      1.0000 0.36050  0.30900  0.63550  Biso   1.000  O
  O16      1.0000 0.33570  0.30160  0.94240  Biso   1.000  O
  O17      1.0000 0.22470  0.17820  0.78030  Biso   1.000  O
  O18      1.0000 0.19500  0.29910  0.82910  Biso   1.000  O
  O19      1.0000 0.38370  0.18530  0.88840  Biso   1.000  O
  O20      1.0000 0.88200  0.80190  0.79710  Biso   1.000  O
  O21      1.0000 0.85190  0.66790  0.73850  Biso   1.000  O
  O22      1.0000 0.48840  0.26360  0.82670  Biso   1.000  O
  O23      1.0000 0.82230  0.83200  0.91240  Biso   1.000  O
  O24      1.0000 0.19550  0.20080  0.90690  Biso   1.000  O
  O25      1.0000 0.33450  0.19960  0.01310  Biso   1.000  O
  O26      1.0000 0.30070  0.32540  0.06400  Biso   1.000  O
  O27      1.0000 0.96040  0.76610  0.97570  Biso   1.000  O
  O28      1.0000 0.71210  0.75030  0.83280  Biso   1.000  O
  O29      1.0000 0.14470  0.31050  0.95420  Biso   1.000  O
  O30      1.0000 0.86050  0.69100  0.86450  Biso   1.000  O
  O31      1.0000 0.16430  0.30160  0.44240  Biso   1.000  O
  O32      1.0000 0.27530  0.17820  0.28030  Biso   1.000  O
  O33      1.0000 0.30500  0.29910  0.32910  Biso   1.000  O
  O34      1.0000 0.11630  0.18530  0.38840  Biso   1.000  O
  O35      1.0000 0.61800  0.80190  0.29710  Biso   1.000  O
  O36      1.0000 0.64810  0.66790  0.23850  Biso   1.000  O
  O37      1.0000 0.01160  0.26360  0.32670  Biso   1.000  O
  O38      1.0000 0.67770  0.83200  0.41240  Biso   1.000  O
  O39      1.0000 0.30450  0.20080  0.40690  Biso   1.000  O
  O40      1.0000 0.16550  0.19960  0.51310  Biso   1.000  O
  O41      1.0000 0.19930  0.32540  0.56400  Biso   1.000  O
  O42      1.0000 0.53960  0.76610  0.47570  Biso   1.000  O
  O43      1.0000 0.78790  0.75030  0.33280  Biso   1.000  O
  O44      1.0000 0.35530  0.31050  0.45420  Biso   1.000  O
  O45      1.0000 0.63950  0.69100  0.36450  Biso   1.000  O
  O46      1.0000 0.66430  0.69840  0.05760  Biso   1.000  O
  O47      1.0000 0.77530  0.82180  0.21970  Biso   1.000  O
  O48      1.0000 0.80500  0.70090  0.17090  Biso   1.000  O
  O49      1.0000 0.61630  0.81470  0.11160  Biso   1.000  O
  O50      1.0000 0.11800  0.19810  0.20290  Biso   1.000  O
  O51      1.0000 0.14810  0.33210  0.26150  Biso   1.000  O
  O52      1.0000 0.51160  0.73640  0.17330  Biso   1.000  O
  O53      1.0000 0.17770  0.16800  0.08760  Biso   1.000  O
  O54      1.0000 0.80450  0.79920  0.09310  Biso   1.000  O
  O55      1.0000 0.66550  0.80040  0.98690  Biso   1.000  O
  O56      1.0000 0.69930  0.67460  0.93600  Biso   1.000  O
  O57      1.0000 0.03960  0.23390  0.02430  Biso   1.000  O
  O58      1.0000 0.28790  0.24970  0.16720  Biso   1.000  O
  O59      1.0000 0.85530  0.68950  0.04580  Biso   1.000  O
  O60      1.0000 0.13950  0.30900  0.13550  Biso   1.000  O
