data_image0
_cell_length_a       12.7711
_cell_length_b       14.229
_cell_length_c       16.003
_cell_angle_alpha    106.64
_cell_angle_beta     103.935
_cell_angle_gamma    106.606

_symmetry_space_group_name_H-M    P 1
_symmetry_int_tables_number       1

loop_
  _symmetry_equiv_pos_as_xyz
  'x, y, z'

loop_
  _atom_site_label
  _atom_site_occupancy
  _atom_site_fract_x
  _atom_site_fract_y
  _atom_site_fract_z
  _atom_site_thermal_displace_type
  _atom_site_B_iso_or_equiv
  _atom_site_type_symbol
  Cu1      1.0000 0.53293  0.13320  0.26529  Biso   1.000  Cu
  Cu2      1.0000 0.72625  0.95689  0.05242  Biso   1.000  Cu
  Cu3      1.0000 0.58567  0.77373  0.26605  Biso   1.000  Cu
  Cu4      1.0000 0.69114  0.96234  0.49056  Biso   1.000  Cu
  Cu5      1.0000 0.48326  0.10961  0.84338  Biso   1.000  Cu
  Cu6      1.0000 0.78889  0.39541  0.14359  Biso   1.000  Cu
  H1       1.0000 0.74270  0.89500  0.64390  Biso   1.000  H
  H2       1.0000 0.41520  0.11090  0.06910  Biso   1.000  H
  H3       1.0000 0.93650  0.52800  0.33450  Biso   1.000  H
  H4       1.0000 0.31230  0.88980  0.73370  Biso   1.000  H
  H5       1.0000 0.89110  0.18350  0.13430  Biso   1.000  H
  H6       1.0000 0.52960  0.64340  0.37110  Biso   1.000  H
  H7       1.0000 0.39640  0.86840  0.40020  Biso   1.000  H
  H8       1.0000 0.81620  0.12540  0.27910  Biso   1.000  H
  H9       1.0000 0.82630  0.84530  0.76310  Biso   1.000  H
  H10      1.0000 0.93830  0.81840  0.75690  Biso   1.000  H
  H11      1.0000 0.95450  0.93200  0.82650  Biso   1.000  H
  H12      1.0000 0.93990  0.05870  0.49130  Biso   1.000  H
  H13      1.0000 0.06200  0.11610  0.57610  Biso   1.000  H
  H14      1.0000 0.03130  0.00200  0.49940  Biso   1.000  H
  H15      1.0000 0.34480  0.14070  0.33990  Biso   1.000  H
  H16      1.0000 0.25530  0.19720  0.31890  Biso   1.000  H
  H17      1.0000 0.20780  0.07130  0.29010  Biso   1.000  H
  H18      1.0000 0.27460  0.08870  0.93030  Biso   1.000  H
  H19      1.0000 0.14610  0.01760  0.91960  Biso   1.000  H
  H20      1.0000 0.18400  0.14300  0.94800  Biso   1.000  H
  H21      1.0000 0.49050  0.33530  0.11560  Biso   1.000  H
  H22      1.0000 0.77820  0.12840  0.90740  Biso   1.000  H
  H23      1.0000 0.31950  0.22480  0.80810  Biso   1.000  H
  H24      1.0000 0.20860  0.19330  0.71830  Biso   1.000  H
  H25      1.0000 0.19150  0.19220  0.81390  Biso   1.000  H
  H26      1.0000 0.14010  0.73540  0.64780  Biso   1.000  H
  H27      1.0000 0.02930  0.75200  0.66960  Biso   1.000  H
  H28      1.0000 0.04670  0.75430  0.57440  Biso   1.000  H
  H29      1.0000 0.10120  0.63620  0.48090  Biso   1.000  H
  H30      1.0000 0.21510  0.61140  0.47770  Biso   1.000  H
  H31      1.0000 0.20440  0.71620  0.46520  Biso   1.000  H
  H32      1.0000 0.97960  0.42370  0.05660  Biso   1.000  H
  H33      1.0000 0.09120  0.52920  0.08550  Biso   1.000  H
  H34      1.0000 0.10810  0.42580  0.09690  Biso   1.000  H
  H35      1.0000 0.44920  0.94320  0.07450  Biso   1.000  H
  H36      1.0000 0.89140  0.87960  0.32000  Biso   1.000  H
  H37      1.0000 0.34440  0.77410  0.18090  Biso   1.000  H
  H38      1.0000 0.22330  0.67380  0.13640  Biso   1.000  H
  H39      1.0000 0.24580  0.77290  0.22670  Biso   1.000  H
  H40      1.0000 0.43760  0.52160  0.42730  Biso   1.000  H
  H41      1.0000 0.32920  0.54320  0.44980  Biso   1.000  H
  H42      1.0000 0.30720  0.44480  0.35910  Biso   1.000  H
  H43      1.0000 0.07210  0.33540  0.22560  Biso   1.000  H
  H44      1.0000 0.16930  0.29610  0.27010  Biso   1.000  H
  H45      1.0000 0.17310  0.33050  0.18370  Biso   1.000  H
  H46      1.0000 0.87350  0.85740  0.97770  Biso   1.000  H
  H47      1.0000 0.99310  0.89700  0.95910  Biso   1.000  H
  H48      1.0000 0.99370  0.87480  0.05170  Biso   1.000  H
  C1       1.0000 0.48730  0.86780  0.51550  Biso   1.000  C
  C2       1.0000 0.45240  0.92720  0.46010  Biso   1.000  C
  C3       1.0000 0.55080  0.02270  0.37720  Biso   1.000  C
  C4       1.0000 0.67210  0.06440  0.37120  Biso   1.000  C
  C5       1.0000 0.77690  0.17430  0.30060  Biso   1.000  C
  C6       1.0000 0.72950  0.21020  0.22370  Biso   1.000  C
  C7       1.0000 0.86510  0.27440  0.38630  Biso   1.000  C
  C8       1.0000 0.90700  0.87440  0.76570  Biso   1.000  C
  C9       1.0000 0.90980  0.91760  0.68880  Biso   1.000  C
  C10      1.0000 0.99670  0.96460  0.66160  Biso   1.000  C
  C11      1.0000 0.94480  0.99510  0.59160  Biso   1.000  C
  C12      1.0000 0.99930  0.04760  0.53460  Biso   1.000  C
  C13      1.0000 0.27190  0.13340  0.29600  Biso   1.000  C
  C14      1.0000 0.28370  0.11930  0.20140  Biso   1.000  C
  C15      1.0000 0.19850  0.10620  0.11920  Biso   1.000  C
  C16      1.0000 0.25380  0.10320  0.05590  Biso   1.000  C
  C17      1.0000 0.21090  0.08670  0.95460  Biso   1.000  C
  C18      1.0000 0.63600  0.43660  0.23100  Biso   1.000  C
  C19      1.0000 0.56400  0.39610  0.12990  Biso   1.000  C
  C20      1.0000 0.53310  0.48780  0.11160  Biso   1.000  C
  C21      1.0000 0.43360  0.45550  0.02380  Biso   1.000  C
  C22      1.0000 0.42200  0.55200  0.00400  Biso   1.000  C
  C23      1.0000 0.32400  0.40400  0.01700  Biso   1.000  C
  C24      1.0000 0.59060  0.29110  0.99310  Biso   1.000  C
  C25      1.0000 0.69010  0.26340  0.96610  Biso   1.000  C
  C26      1.0000 0.71680  0.12520  0.85320  Biso   1.000  C
  C27      1.0000 0.77410  0.16420  0.78930  Biso   1.000  C
  C28      1.0000 0.88620  0.25580  0.83490  Biso   1.000  C
  C29      1.0000 0.93500  0.29500  0.76500  Biso   1.000  C
  C30      1.0000 0.98350  0.22700  0.89010  Biso   1.000  C
  C31      1.0000 0.62970  0.01060  0.79890  Biso   1.000  C
  C32      1.0000 0.23710  0.17860  0.77390  Biso   1.000  C
  C33      1.0000 0.22470  0.06710  0.74580  Biso   1.000  C
  C34      1.0000 0.11980  0.97470  0.69580  Biso   1.000  C
  C35      1.0000 0.15530  0.89020  0.68730  Biso   1.000  C
  C36      1.0000 0.08690  0.77280  0.64070  Biso   1.000  C
  C37      1.0000 0.16110  0.64200  0.45210  Biso   1.000  C
  C38      1.0000 0.10480  0.58210  0.34990  Biso   1.000  C
  C39      1.0000 0.15060  0.56770  0.27990  Biso   1.000  C
  C40      1.0000 0.05670  0.50500  0.19820  Biso   1.000  C
  C41      1.0000 0.05910  0.46760  0.10080  Biso   1.000  C
  C42      1.0000 0.53130  0.00180  0.99050  Biso   1.000  C
  C43      1.0000 0.48590  0.91680  0.02900  Biso   1.000  C
  C44      1.0000 0.39480  0.81220  0.94770  Biso   1.000  C
  C45      1.0000 0.28680  0.77100  0.93400  Biso   1.000  C
  C46      1.0000 0.22000  0.66600  0.84700  Biso   1.000  C
  C47      1.0000 0.21950  0.80690  0.99180  Biso   1.000  C
  C48      1.0000 0.59480  0.86100  0.13950  Biso   1.000  C
  C49      1.0000 0.71890  0.86390  0.17590  Biso   1.000  C
  C50      1.0000 0.82650  0.80800  0.29020  Biso   1.000  C
  C51      1.0000 0.79110  0.77360  0.36750  Biso   1.000  C
  C52      1.0000 0.86600  0.72900  0.23620  Biso   1.000  C
  C53      1.0000 0.93000  0.76100  0.17700  Biso   1.000  C
  C54      1.0000 0.94400  0.67400  0.11000  Biso   1.000  C
  C55      1.0000 0.04700  0.85100  0.23400  Biso   1.000  C
  C56      1.0000 0.28220  0.72930  0.19470  Biso   1.000  C
  C57      1.0000 0.33370  0.67830  0.25690  Biso   1.000  C
  C58      1.0000 0.27790  0.60910  0.29310  Biso   1.000  C
  C59      1.0000 0.36100  0.58700  0.34470  Biso   1.000  C
  C60      1.0000 0.35850  0.51800  0.40000  Biso   1.000  C
  C61      1.0000 0.12190  0.29620  0.21210  Biso   1.000  C
  C62      1.0000 0.04580  0.18250  0.14500  Biso   1.000  C
  C63      1.0000 0.07890  0.10060  0.10730  Biso   1.000  C
  C64      1.0000 0.97480  0.01580  0.05760  Biso   1.000  C
  C65      1.0000 0.95720  0.90100  0.00700  Biso   1.000  C
  C66      1.0000 0.45600  0.08600  0.57410  Biso   1.000  C
  C67      1.0000 0.37900  0.98700  0.48500  Biso   1.000  C
  C68      1.0000 0.38200  0.15600  0.58700  Biso   1.000  C
  C69      1.0000 0.56200  0.14900  0.55700  Biso   1.000  C
  N1       1.0000 0.81120  0.92000  0.63860  Biso   1.000  N
  N2       1.0000 0.83240  0.96770  0.57690  Biso   1.000  N
  N3       1.0000 0.54880  0.97360  0.43210  Biso   1.000  N
  N4       1.0000 0.67530  0.11850  0.31890  Biso   1.000  N
  N5       1.0000 0.38210  0.12140  0.18630  Biso   1.000  N
  N6       1.0000 0.36340  0.11160  0.09670  Biso   1.000  N
  N7       1.0000 0.98720  0.52930  0.30570  Biso   1.000  N
  N8       1.0000 0.95750  0.47970  0.21360  Biso   1.000  N
  N9       1.0000 0.62820  0.36110  0.07450  Biso   1.000  N
  N10      1.0000 0.64850  0.18460  0.88750  Biso   1.000  N
  N11      1.0000 0.31620  0.03780  0.76630  Biso   1.000  N
  N12      1.0000 0.27060  0.92910  0.72970  Biso   1.000  N
  N13      1.0000 0.88580  0.04190  0.06330  Biso   1.000  N
  N14      1.0000 0.93200  0.14560  0.11840  Biso   1.000  N
  N15      1.0000 0.58500  0.89980  0.07520  Biso   1.000  N
  N16      1.0000 0.72170  0.81550  0.23650  Biso   1.000  N
  N17      1.0000 0.44890  0.69870  0.28930  Biso   1.000  N
  N18      1.0000 0.46180  0.64320  0.34160  Biso   1.000  N
  O1       1.0000 0.41260  0.81030  0.53460  Biso   1.000  O
  O2       1.0000 0.59280  0.87640  0.53870  Biso   1.000  O
  O3       1.0000 0.75210  0.03860  0.41320  Biso   1.000  O
  O4       1.0000 0.46990  0.04310  0.33010  Biso   1.000  O
  O5       1.0000 0.62090  0.19610  0.19730  Biso   1.000  O
  O6       1.0000 0.79840  0.25330  0.18960  Biso   1.000  O
  O7       1.0000 0.58880  0.45330  0.29200  Biso   1.000  O
  O8       1.0000 0.74490  0.45570  0.25120  Biso   1.000  O
  O9       1.0000 0.79340  0.31330  0.02300  Biso   1.000  O
  O10      1.0000 0.48660  0.24040  0.93560  Biso   1.000  O
  O11      1.0000 0.51970  0.99090  0.77800  Biso   1.000  O
  O12      1.0000 0.66650  0.93720  0.77680  Biso   1.000  O
  O13      1.0000 0.46470  0.04020  0.95870  Biso   1.000  O
  O14      1.0000 0.63720  0.02690  0.99280  Biso   1.000  O
  O15      1.0000 0.79330  0.90430  0.14750  Biso   1.000  O
  O16      1.0000 0.51770  0.82440  0.17170  Biso   1.000  O
  O17      1.0000 0.69090  0.76190  0.36770  Biso   1.000  O
  O18      1.0000 0.86370  0.75770  0.42160  Biso   1.000  O
