data_image0
_cell_length_a       9.6972
_cell_length_b       10.7957
_cell_length_c       26.9671
_cell_angle_alpha    90
_cell_angle_beta     90
_cell_angle_gamma    90

_symmetry_space_group_name_H-M    P 1
_symmetry_int_tables_number       1

loop_
  _symmetry_equiv_pos_as_xyz
  'x, y, z'

loop_
  _atom_site_label
  _atom_site_occupancy
  _atom_site_fract_x
  _atom_site_fract_y
  _atom_site_fract_z
  _atom_site_thermal_displace_type
  _atom_site_B_iso_or_equiv
  _atom_site_type_symbol
  Cu1      1.0000 0.31405  0.61493  0.33212  Biso   1.000  Cu
  Cu2      1.0000 0.18675  0.38980  0.16609  Biso   1.000  Cu
  Cu3      1.0000 0.31405  0.38507  0.66788  Biso   1.000  Cu
  Cu4      1.0000 0.18675  0.61020  0.83391  Biso   1.000  Cu
  Cu5      1.0000 0.68595  0.88507  0.83212  Biso   1.000  Cu
  Cu6      1.0000 0.81325  0.11020  0.66609  Biso   1.000  Cu
  Cu7      1.0000 0.68595  0.11493  0.16788  Biso   1.000  Cu
  Cu8      1.0000 0.81325  0.88980  0.33391  Biso   1.000  Cu
  H1       1.0000 0.08780  0.71400  0.39860  Biso   1.000  H
  H2       1.0000 0.41770  0.27980  0.10070  Biso   1.000  H
  H3       1.0000 0.48290  0.72370  0.19070  Biso   1.000  H
  H4       1.0000 0.45900  0.81420  0.23690  Biso   1.000  H
  H5       1.0000 0.61220  0.78450  0.21840  Biso   1.000  H
  H6       1.0000 0.58610  0.57520  0.24330  Biso   1.000  H
  H7       1.0000 0.96950  0.31740  0.26290  Biso   1.000  H
  H8       1.0000 0.90300  0.51900  0.28640  Biso   1.000  H
  H9       1.0000 0.86460  0.55140  0.23020  Biso   1.000  H
  H10      1.0000 0.77610  0.45090  0.26000  Biso   1.000  H
  H11      1.0000 0.45480  0.46630  0.39950  Biso   1.000  H
  H12      1.0000 0.47970  0.47720  0.45800  Biso   1.000  H
  H13      1.0000 0.39150  0.36440  0.43610  Biso   1.000  H
  H14      1.0000 0.92520  0.72820  0.46400  Biso   1.000  H
  H15      1.0000 0.90860  0.60140  0.49410  Biso   1.000  H
  H16      1.0000 0.99950  0.71180  0.51650  Biso   1.000  H
  H17      1.0000 0.58990  0.27280  0.03720  Biso   1.000  H
  H18      1.0000 0.52630  0.29790  0.98340  Biso   1.000  H
  H19      1.0000 0.60870  0.40540  0.01150  Biso   1.000  H
  H20      1.0000 0.05140  0.53540  0.09770  Biso   1.000  H
  H21      1.0000 0.12720  0.64040  0.06590  Biso   1.000  H
  H22      1.0000 0.03540  0.53760  0.03860  Biso   1.000  H
  H23      1.0000 0.08780  0.28600  0.60140  Biso   1.000  H
  H24      1.0000 0.41770  0.72020  0.89930  Biso   1.000  H
  H25      1.0000 0.48290  0.27630  0.80930  Biso   1.000  H
  H26      1.0000 0.45900  0.18580  0.76310  Biso   1.000  H
  H27      1.0000 0.61220  0.21550  0.78160  Biso   1.000  H
  H28      1.0000 0.58610  0.42480  0.75670  Biso   1.000  H
  H29      1.0000 0.96950  0.68260  0.73710  Biso   1.000  H
  H30      1.0000 0.90300  0.48100  0.71360  Biso   1.000  H
  H31      1.0000 0.86460  0.44860  0.76980  Biso   1.000  H
  H32      1.0000 0.77610  0.54910  0.74000  Biso   1.000  H
  H33      1.0000 0.45480  0.53370  0.60050  Biso   1.000  H
  H34      1.0000 0.47970  0.52280  0.54200  Biso   1.000  H
  H35      1.0000 0.39150  0.63560  0.56390  Biso   1.000  H
  H36      1.0000 0.92520  0.27180  0.53600  Biso   1.000  H
  H37      1.0000 0.90860  0.39860  0.50590  Biso   1.000  H
  H38      1.0000 0.99950  0.28820  0.48350  Biso   1.000  H
  H39      1.0000 0.58990  0.72720  0.96280  Biso   1.000  H
  H40      1.0000 0.52630  0.70210  0.01660  Biso   1.000  H
  H41      1.0000 0.60870  0.59460  0.98850  Biso   1.000  H
  H42      1.0000 0.05140  0.46460  0.90230  Biso   1.000  H
  H43      1.0000 0.12720  0.35960  0.93410  Biso   1.000  H
  H44      1.0000 0.03540  0.46240  0.96140  Biso   1.000  H
  H45      1.0000 0.91220  0.78600  0.89860  Biso   1.000  H
  H46      1.0000 0.58230  0.22020  0.60070  Biso   1.000  H
  H47      1.0000 0.51710  0.77630  0.69070  Biso   1.000  H
  H48      1.0000 0.54100  0.68580  0.73690  Biso   1.000  H
  H49      1.0000 0.38780  0.71550  0.71840  Biso   1.000  H
  H50      1.0000 0.41390  0.92480  0.74330  Biso   1.000  H
  H51      1.0000 0.03050  0.18260  0.76290  Biso   1.000  H
  H52      1.0000 0.09700  0.98100  0.78640  Biso   1.000  H
  H53      1.0000 0.13540  0.94860  0.73020  Biso   1.000  H
  H54      1.0000 0.22390  0.04910  0.76000  Biso   1.000  H
  H55      1.0000 0.54520  0.03370  0.89950  Biso   1.000  H
  H56      1.0000 0.52030  0.02280  0.95800  Biso   1.000  H
  H57      1.0000 0.60850  0.13560  0.93610  Biso   1.000  H
  H58      1.0000 0.07480  0.77180  0.96400  Biso   1.000  H
  H59      1.0000 0.09140  0.89860  0.99410  Biso   1.000  H
  H60      1.0000 0.00050  0.78820  0.01650  Biso   1.000  H
  H61      1.0000 0.41010  0.22720  0.53720  Biso   1.000  H
  H62      1.0000 0.47370  0.20210  0.48340  Biso   1.000  H
  H63      1.0000 0.39130  0.09460  0.51150  Biso   1.000  H
  H64      1.0000 0.94860  0.96460  0.59770  Biso   1.000  H
  H65      1.0000 0.87280  0.85960  0.56590  Biso   1.000  H
  H66      1.0000 0.96460  0.96240  0.53860  Biso   1.000  H
  H67      1.0000 0.91220  0.21400  0.10140  Biso   1.000  H
  H68      1.0000 0.58230  0.77980  0.39930  Biso   1.000  H
  H69      1.0000 0.51710  0.22370  0.30930  Biso   1.000  H
  H70      1.0000 0.54100  0.31420  0.26310  Biso   1.000  H
  H71      1.0000 0.38780  0.28450  0.28160  Biso   1.000  H
  H72      1.0000 0.41390  0.07520  0.25670  Biso   1.000  H
  H73      1.0000 0.03050  0.81740  0.23710  Biso   1.000  H
  H74      1.0000 0.09700  0.01900  0.21360  Biso   1.000  H
  H75      1.0000 0.13540  0.05140  0.26980  Biso   1.000  H
  H76      1.0000 0.22390  0.95090  0.24000  Biso   1.000  H
  H77      1.0000 0.54520  0.96630  0.10050  Biso   1.000  H
  H78      1.0000 0.52030  0.97720  0.04200  Biso   1.000  H
  H79      1.0000 0.60850  0.86440  0.06390  Biso   1.000  H
  H80      1.0000 0.07480  0.22820  0.03600  Biso   1.000  H
  H81      1.0000 0.09140  0.10140  0.00590  Biso   1.000  H
  H82      1.0000 0.00050  0.21180  0.98350  Biso   1.000  H
  H83      1.0000 0.41010  0.77280  0.46280  Biso   1.000  H
  H84      1.0000 0.47370  0.79790  0.51660  Biso   1.000  H
  H85      1.0000 0.39130  0.90540  0.48850  Biso   1.000  H
  H86      1.0000 0.94860  0.03540  0.40230  Biso   1.000  H
  H87      1.0000 0.87280  0.14040  0.43410  Biso   1.000  H
  H88      1.0000 0.96460  0.03760  0.46140  Biso   1.000  H
  C1       1.0000 0.51940  0.75050  0.22285  Biso   1.000  C
  C2       1.0000 0.52550  0.64100  0.25768  Biso   1.000  C
  C3       1.0000 0.58350  0.68260  0.30823  Biso   1.000  C
  C4       1.0000 0.31660  0.52700  0.23703  Biso   1.000  C
  C5       1.0000 0.18110  0.48690  0.25987  Biso   1.000  C
  C6       1.0000 0.96500  0.38370  0.23709  Biso   1.000  C
  C7       1.0000 0.86860  0.48520  0.25500  Biso   1.000  C
  C8       1.0000 0.91390  0.32670  0.18863  Biso   1.000  C
  C9       1.0000 0.41390  0.45240  0.43220  Biso   1.000  C
  C10      1.0000 0.28530  0.52770  0.43708  Biso   1.000  C
  C11      1.0000 0.19350  0.53520  0.47644  Biso   1.000  C
  C12      1.0000 0.09470  0.61940  0.46104  Biso   1.000  C
  C13      1.0000 0.97180  0.66940  0.48600  Biso   1.000  C
  C14      1.0000 0.54620  0.33480  0.01580  Biso   1.000  C
  C15      1.0000 0.41470  0.37810  0.03913  Biso   1.000  C
  C16      1.0000 0.31970  0.46430  0.02330  Biso   1.000  C
  C17      1.0000 0.22220  0.47220  0.06151  Biso   1.000  C
  C18      1.0000 0.09840  0.55340  0.06630  Biso   1.000  C
  C19      1.0000 0.51940  0.24950  0.77715  Biso   1.000  C
  C20      1.0000 0.52550  0.35900  0.74232  Biso   1.000  C
  C21      1.0000 0.58350  0.31740  0.69177  Biso   1.000  C
  C22      1.0000 0.31660  0.47300  0.76297  Biso   1.000  C
  C23      1.0000 0.18110  0.51310  0.74013  Biso   1.000  C
  C24      1.0000 0.96500  0.61630  0.76291  Biso   1.000  C
  C25      1.0000 0.86860  0.51480  0.74500  Biso   1.000  C
  C26      1.0000 0.91390  0.67330  0.81137  Biso   1.000  C
  C27      1.0000 0.41390  0.54760  0.56780  Biso   1.000  C
  C28      1.0000 0.28530  0.47230  0.56292  Biso   1.000  C
  C29      1.0000 0.19350  0.46480  0.52356  Biso   1.000  C
  C30      1.0000 0.09470  0.38060  0.53896  Biso   1.000  C
  C31      1.0000 0.97180  0.33060  0.51400  Biso   1.000  C
  C32      1.0000 0.54620  0.66520  0.98420  Biso   1.000  C
  C33      1.0000 0.41470  0.62190  0.96087  Biso   1.000  C
  C34      1.0000 0.31970  0.53570  0.97670  Biso   1.000  C
  C35      1.0000 0.22220  0.52780  0.93849  Biso   1.000  C
  C36      1.0000 0.09840  0.44660  0.93370  Biso   1.000  C
  C37      1.0000 0.48060  0.74950  0.72285  Biso   1.000  C
  C38      1.0000 0.47450  0.85900  0.75768  Biso   1.000  C
  C39      1.0000 0.41650  0.81740  0.80823  Biso   1.000  C
  C40      1.0000 0.68340  0.97300  0.73703  Biso   1.000  C
  C41      1.0000 0.81890  0.01310  0.75987  Biso   1.000  C
  C42      1.0000 0.03500  0.11630  0.73709  Biso   1.000  C
  C43      1.0000 0.13140  0.01480  0.75500  Biso   1.000  C
  C44      1.0000 0.08610  0.17330  0.68863  Biso   1.000  C
  C45      1.0000 0.58610  0.04760  0.93220  Biso   1.000  C
  C46      1.0000 0.71470  0.97230  0.93708  Biso   1.000  C
  C47      1.0000 0.80650  0.96480  0.97644  Biso   1.000  C
  C48      1.0000 0.90530  0.88060  0.96104  Biso   1.000  C
  C49      1.0000 0.02820  0.83060  0.98600  Biso   1.000  C
  C50      1.0000 0.45380  0.16520  0.51580  Biso   1.000  C
  C51      1.0000 0.58530  0.12190  0.53913  Biso   1.000  C
  C52      1.0000 0.68030  0.03570  0.52330  Biso   1.000  C
  C53      1.0000 0.77780  0.02780  0.56151  Biso   1.000  C
  C54      1.0000 0.90160  0.94660  0.56630  Biso   1.000  C
  C55      1.0000 0.48060  0.25050  0.27715  Biso   1.000  C
  C56      1.0000 0.47450  0.14100  0.24232  Biso   1.000  C
  C57      1.0000 0.41650  0.18260  0.19177  Biso   1.000  C
  C58      1.0000 0.68340  0.02700  0.26297  Biso   1.000  C
  C59      1.0000 0.81890  0.98690  0.24013  Biso   1.000  C
  C60      1.0000 0.03500  0.88370  0.26291  Biso   1.000  C
  C61      1.0000 0.13140  0.98520  0.24500  Biso   1.000  C
  C62      1.0000 0.08610  0.82670  0.31137  Biso   1.000  C
  C63      1.0000 0.58610  0.95240  0.06780  Biso   1.000  C
  C64      1.0000 0.71470  0.02770  0.06292  Biso   1.000  C
  C65      1.0000 0.80650  0.03520  0.02356  Biso   1.000  C
  C66      1.0000 0.90530  0.11940  0.03896  Biso   1.000  C
  C67      1.0000 0.02820  0.16940  0.01400  Biso   1.000  C
  C68      1.0000 0.45380  0.83480  0.48420  Biso   1.000  C
  C69      1.0000 0.58530  0.87810  0.46087  Biso   1.000  C
  C70      1.0000 0.68030  0.96430  0.47670  Biso   1.000  C
  C71      1.0000 0.77780  0.97220  0.43849  Biso   1.000  C
  C72      1.0000 0.90160  0.05340  0.43370  Biso   1.000  C
  N1       1.0000 0.39070  0.59010  0.26792  Biso   1.000  N
  N2       1.0000 0.10320  0.42960  0.22803  Biso   1.000  N
  N3       1.0000 0.24780  0.60350  0.40102  Biso   1.000  N
  N4       1.0000 0.13320  0.65840  0.41609  Biso   1.000  N
  N5       1.0000 0.37350  0.33660  0.08349  Biso   1.000  N
  N6       1.0000 0.25520  0.39260  0.09877  Biso   1.000  N
  N7       1.0000 0.39070  0.40990  0.73208  Biso   1.000  N
  N8       1.0000 0.10320  0.57040  0.77197  Biso   1.000  N
  N9       1.0000 0.24780  0.39650  0.59898  Biso   1.000  N
  N10      1.0000 0.13320  0.34160  0.58391  Biso   1.000  N
  N11      1.0000 0.37350  0.66340  0.91651  Biso   1.000  N
  N12      1.0000 0.25520  0.60740  0.90123  Biso   1.000  N
  N13      1.0000 0.60930  0.90990  0.76792  Biso   1.000  N
  N14      1.0000 0.89680  0.07040  0.72803  Biso   1.000  N
  N15      1.0000 0.75220  0.89650  0.90102  Biso   1.000  N
  N16      1.0000 0.86680  0.84160  0.91609  Biso   1.000  N
  N17      1.0000 0.62650  0.16340  0.58349  Biso   1.000  N
  N18      1.0000 0.74480  0.10740  0.59877  Biso   1.000  N
  N19      1.0000 0.60930  0.09010  0.23208  Biso   1.000  N
  N20      1.0000 0.89680  0.92960  0.27197  Biso   1.000  N
  N21      1.0000 0.75220  0.10350  0.09898  Biso   1.000  N
  N22      1.0000 0.86680  0.15840  0.08391  Biso   1.000  N
  N23      1.0000 0.62650  0.83660  0.41651  Biso   1.000  N
  N24      1.0000 0.74480  0.89260  0.40123  Biso   1.000  N
  O1       1.0000 0.50180  0.68290  0.34531  Biso   1.000  O
  O2       1.0000 0.15700  0.51300  0.30488  Biso   1.000  O
  O3       1.0000 0.34280  0.49680  0.19227  Biso   1.000  O
  O4       1.0000 0.00190  0.31760  0.15277  Biso   1.000  O
  O5       1.0000 0.79220  0.29600  0.18490  Biso   1.000  O
  O6       1.0000 0.70540  0.71670  0.31043  Biso   1.000  O
  O7       1.0000 0.50180  0.31710  0.65469  Biso   1.000  O
  O8       1.0000 0.15700  0.48700  0.69512  Biso   1.000  O
  O9       1.0000 0.34280  0.50320  0.80773  Biso   1.000  O
  O10      1.0000 0.00190  0.68240  0.84723  Biso   1.000  O
  O11      1.0000 0.79220  0.70400  0.81510  Biso   1.000  O
  O12      1.0000 0.70540  0.28330  0.68957  Biso   1.000  O
  O13      1.0000 0.49820  0.81710  0.84531  Biso   1.000  O
  O14      1.0000 0.84300  0.98700  0.80488  Biso   1.000  O
  O15      1.0000 0.65720  0.00320  0.69227  Biso   1.000  O
  O16      1.0000 0.99810  0.18240  0.65277  Biso   1.000  O
  O17      1.0000 0.20780  0.20400  0.68490  Biso   1.000  O
  O18      1.0000 0.29460  0.78330  0.81043  Biso   1.000  O
  O19      1.0000 0.49820  0.18290  0.15469  Biso   1.000  O
  O20      1.0000 0.84300  0.01300  0.19512  Biso   1.000  O
  O21      1.0000 0.65720  0.99680  0.30773  Biso   1.000  O
  O22      1.0000 0.99810  0.81760  0.34723  Biso   1.000  O
  O23      1.0000 0.20780  0.79600  0.31510  Biso   1.000  O
  O24      1.0000 0.29460  0.21670  0.18957  Biso   1.000  O
