data_image0
_cell_length_a       10.5783
_cell_length_b       12.3288
_cell_length_c       17.236
_cell_angle_alpha    90
_cell_angle_beta     93.714
_cell_angle_gamma    90

_symmetry_space_group_name_H-M    P 1
_symmetry_int_tables_number       1

loop_
  _symmetry_equiv_pos_as_xyz
  'x, y, z'

loop_
  _atom_site_label
  _atom_site_occupancy
  _atom_site_fract_x
  _atom_site_fract_y
  _atom_site_fract_z
  _atom_site_thermal_displace_type
  _atom_site_B_iso_or_equiv
  _atom_site_type_symbol
  Zn1      1.0000 0.28301  0.25956  0.40675  Biso   1.000  Zn
  Zn2      1.0000 0.29448  0.24400  0.05438  Biso   1.000  Zn
  Zn3      1.0000 0.21699  0.75956  0.09325  Biso   1.000  Zn
  Zn4      1.0000 0.20552  0.74400  0.44562  Biso   1.000  Zn
  Zn5      1.0000 0.71699  0.74044  0.59325  Biso   1.000  Zn
  Zn6      1.0000 0.70552  0.75600  0.94562  Biso   1.000  Zn
  Zn7      1.0000 0.78301  0.24044  0.90675  Biso   1.000  Zn
  Zn8      1.0000 0.79448  0.25600  0.55438  Biso   1.000  Zn
  H1       1.0000 0.44360  0.13870  0.28980  Biso   1.000  H
  H2       1.0000 0.49950  0.19370  0.21520  Biso   1.000  H
  H3       1.0000 0.40010  0.09610  0.20450  Biso   1.000  H
  H4       1.0000 0.00350  0.42580  0.16010  Biso   1.000  H
  H5       1.0000 0.12310  0.48130  0.12430  Biso   1.000  H
  H6       1.0000 0.04400  0.19270  0.84680  Biso   1.000  H
  H7       1.0000 0.15970  0.15180  0.90370  Biso   1.000  H
  H8       1.0000 0.17120  0.26290  0.85670  Biso   1.000  H
  H9       1.0000 0.01040  0.98340  0.35590  Biso   1.000  H
  H10      1.0000 0.06270  0.08110  0.30590  Biso   1.000  H
  H11      1.0000 0.15700  0.01590  0.36530  Biso   1.000  H
  H12      1.0000 0.04820  0.37130  0.58120  Biso   1.000  H
  H13      1.0000 0.18200  0.31050  0.58900  Biso   1.000  H
  H14      1.0000 0.38890  0.61020  0.35970  Biso   1.000  H
  H15      1.0000 0.46350  0.50140  0.38420  Biso   1.000  H
  H16      1.0000 0.35230  0.49840  0.31670  Biso   1.000  H
  H17      1.0000 0.05640  0.63870  0.21020  Biso   1.000  H
  H18      1.0000 0.00050  0.69370  0.28480  Biso   1.000  H
  H19      1.0000 0.09990  0.59610  0.29550  Biso   1.000  H
  H20      1.0000 0.49650  0.92580  0.33990  Biso   1.000  H
  H21      1.0000 0.37690  0.98130  0.37570  Biso   1.000  H
  H22      1.0000 0.45600  0.69270  0.65320  Biso   1.000  H
  H23      1.0000 0.34030  0.65180  0.59630  Biso   1.000  H
  H24      1.0000 0.32880  0.76290  0.64330  Biso   1.000  H
  H25      1.0000 0.48960  0.48340  0.14410  Biso   1.000  H
  H26      1.0000 0.43730  0.58110  0.19410  Biso   1.000  H
  H27      1.0000 0.34300  0.51590  0.13470  Biso   1.000  H
  H28      1.0000 0.45180  0.87130  0.91880  Biso   1.000  H
  H29      1.0000 0.31800  0.81050  0.91100  Biso   1.000  H
  H30      1.0000 0.11110  0.11020  0.14030  Biso   1.000  H
  H31      1.0000 0.03650  0.00140  0.11580  Biso   1.000  H
  H32      1.0000 0.14770  0.99840  0.18330  Biso   1.000  H
  H33      1.0000 0.55640  0.86130  0.71020  Biso   1.000  H
  H34      1.0000 0.50050  0.80630  0.78480  Biso   1.000  H
  H35      1.0000 0.59990  0.90390  0.79550  Biso   1.000  H
  H36      1.0000 0.99650  0.57420  0.83990  Biso   1.000  H
  H37      1.0000 0.87690  0.51870  0.87570  Biso   1.000  H
  H38      1.0000 0.95600  0.80730  0.15320  Biso   1.000  H
  H39      1.0000 0.84030  0.84820  0.09630  Biso   1.000  H
  H40      1.0000 0.82880  0.73710  0.14330  Biso   1.000  H
  H41      1.0000 0.98960  0.01660  0.64410  Biso   1.000  H
  H42      1.0000 0.93730  0.91890  0.69410  Biso   1.000  H
  H43      1.0000 0.84300  0.98410  0.63470  Biso   1.000  H
  H44      1.0000 0.95180  0.62870  0.41880  Biso   1.000  H
  H45      1.0000 0.81800  0.68950  0.41100  Biso   1.000  H
  H46      1.0000 0.61110  0.38980  0.64030  Biso   1.000  H
  H47      1.0000 0.53650  0.49860  0.61580  Biso   1.000  H
  H48      1.0000 0.64770  0.50160  0.68330  Biso   1.000  H
  H49      1.0000 0.94360  0.36130  0.78980  Biso   1.000  H
  H50      1.0000 0.99950  0.30630  0.71520  Biso   1.000  H
  H51      1.0000 0.90010  0.40390  0.70450  Biso   1.000  H
  H52      1.0000 0.50350  0.07420  0.66010  Biso   1.000  H
  H53      1.0000 0.62310  0.01870  0.62430  Biso   1.000  H
  H54      1.0000 0.54400  0.30730  0.34680  Biso   1.000  H
  H55      1.0000 0.65970  0.34820  0.40370  Biso   1.000  H
  H56      1.0000 0.67120  0.23710  0.35670  Biso   1.000  H
  H57      1.0000 0.51040  0.51660  0.85590  Biso   1.000  H
  H58      1.0000 0.56270  0.41890  0.80590  Biso   1.000  H
  H59      1.0000 0.65700  0.48410  0.86530  Biso   1.000  H
  H60      1.0000 0.54820  0.12870  0.08120  Biso   1.000  H
  H61      1.0000 0.68200  0.18950  0.08900  Biso   1.000  H
  H62      1.0000 0.88890  0.88980  0.85970  Biso   1.000  H
  H63      1.0000 0.96350  0.99860  0.88420  Biso   1.000  H
  H64      1.0000 0.85230  0.00160  0.81670  Biso   1.000  H
  C1       1.0000 0.42440  0.16030  0.23558  Biso   1.000  C
  C2       1.0000 0.31780  0.23990  0.23139  Biso   1.000  C
  C3       1.0000 0.16980  0.34500  0.18806  Biso   1.000  C
  C4       1.0000 0.08220  0.41080  0.13382  Biso   1.000  C
  C5       1.0000 0.04720  0.35810  0.05680  Biso   1.000  C
  C6       1.0000 0.06110  0.27610  0.94888  Biso   1.000  C
  C7       1.0000 0.11350  0.21570  0.88342  Biso   1.000  C
  C8       1.0000 0.07060  0.04380  0.35620  Biso   1.000  C
  C9       1.0000 0.04310  0.12100  0.41886  Biso   1.000  C
  C10      1.0000 0.06250  0.24961  0.50164  Biso   1.000  C
  C11      1.0000 0.11630  0.34010  0.55130  Biso   1.000  C
  C12      1.0000 0.17340  0.42840  0.50523  Biso   1.000  C
  C13      1.0000 0.28700  0.50880  0.42544  Biso   1.000  C
  C14      1.0000 0.38100  0.53170  0.36643  Biso   1.000  C
  C15      1.0000 0.07560  0.66030  0.26442  Biso   1.000  C
  C16      1.0000 0.18220  0.73990  0.26861  Biso   1.000  C
  C17      1.0000 0.33020  0.84500  0.31194  Biso   1.000  C
  C18      1.0000 0.41780  0.91080  0.36618  Biso   1.000  C
  C19      1.0000 0.45280  0.85810  0.44320  Biso   1.000  C
  C20      1.0000 0.43890  0.77610  0.55112  Biso   1.000  C
  C21      1.0000 0.38650  0.71570  0.61658  Biso   1.000  C
  C22      1.0000 0.42940  0.54380  0.14380  Biso   1.000  C
  C23      1.0000 0.45690  0.62100  0.08114  Biso   1.000  C
  C24      1.0000 0.43750  0.74961  0.99836  Biso   1.000  C
  C25      1.0000 0.38370  0.84010  0.94870  Biso   1.000  C
  C26      1.0000 0.32660  0.92840  0.99477  Biso   1.000  C
  C27      1.0000 0.21300  0.00880  0.07456  Biso   1.000  C
  C28      1.0000 0.11900  0.03170  0.13357  Biso   1.000  C
  C29      1.0000 0.57560  0.83970  0.76442  Biso   1.000  C
  C30      1.0000 0.68220  0.76010  0.76861  Biso   1.000  C
  C31      1.0000 0.83020  0.65500  0.81194  Biso   1.000  C
  C32      1.0000 0.91780  0.58920  0.86618  Biso   1.000  C
  C33      1.0000 0.95280  0.64190  0.94320  Biso   1.000  C
  C34      1.0000 0.93890  0.72390  0.05112  Biso   1.000  C
  C35      1.0000 0.88650  0.78430  0.11658  Biso   1.000  C
  C36      1.0000 0.92940  0.95620  0.64380  Biso   1.000  C
  C37      1.0000 0.95690  0.87900  0.58114  Biso   1.000  C
  C38      1.0000 0.93750  0.75039  0.49836  Biso   1.000  C
  C39      1.0000 0.88370  0.65990  0.44870  Biso   1.000  C
  C40      1.0000 0.82660  0.57160  0.49477  Biso   1.000  C
  C41      1.0000 0.71300  0.49120  0.57456  Biso   1.000  C
  C42      1.0000 0.61900  0.46830  0.63357  Biso   1.000  C
  C43      1.0000 0.92440  0.33970  0.73558  Biso   1.000  C
  C44      1.0000 0.81780  0.26010  0.73139  Biso   1.000  C
  C45      1.0000 0.66980  0.15500  0.68806  Biso   1.000  C
  C46      1.0000 0.58220  0.08920  0.63382  Biso   1.000  C
  C47      1.0000 0.54720  0.14190  0.55680  Biso   1.000  C
  C48      1.0000 0.56110  0.22390  0.44888  Biso   1.000  C
  C49      1.0000 0.61350  0.28430  0.38342  Biso   1.000  C
  C50      1.0000 0.57060  0.45620  0.85620  Biso   1.000  C
  C51      1.0000 0.54310  0.37900  0.91886  Biso   1.000  C
  C52      1.0000 0.56250  0.25039  0.00164  Biso   1.000  C
  C53      1.0000 0.61630  0.15990  0.05130  Biso   1.000  C
  C54      1.0000 0.67340  0.07160  0.00523  Biso   1.000  C
  C55      1.0000 0.78700  0.99120  0.92544  Biso   1.000  C
  C56      1.0000 0.88100  0.96830  0.86643  Biso   1.000  C
  N1       1.0000 0.12560  0.19832  0.44721  Biso   1.000  N
  N2       1.0000 0.93560  0.12279  0.45325  Biso   1.000  N
  N3       1.0000 0.94810  0.20706  0.50688  Biso   1.000  N
  N4       1.0000 0.25970  0.40884  0.45108  Biso   1.000  N
  N5       1.0000 0.14830  0.53189  0.51336  Biso   1.000  N
  N6       1.0000 0.22240  0.58396  0.46075  Biso   1.000  N
  N7       1.0000 0.94100  0.30571  0.95316  Biso   1.000  N
  N8       1.0000 0.93170  0.35959  0.02361  Biso   1.000  N
  N9       1.0000 0.13130  0.30801  0.01251  Biso   1.000  N
  N10      1.0000 0.26550  0.28116  0.16471  Biso   1.000  N
  N11      1.0000 0.16350  0.34565  0.26392  Biso   1.000  N
  N12      1.0000 0.26050  0.27671  0.29203  Biso   1.000  N
  N13      1.0000 0.37440  0.69832  0.05279  Biso   1.000  N
  N14      1.0000 0.56440  0.62279  0.04675  Biso   1.000  N
  N15      1.0000 0.55190  0.70706  0.99312  Biso   1.000  N
  N16      1.0000 0.24030  0.90884  0.04892  Biso   1.000  N
  N17      1.0000 0.35170  0.03189  0.98664  Biso   1.000  N
  N18      1.0000 0.27760  0.08396  0.03925  Biso   1.000  N
  N19      1.0000 0.55900  0.80571  0.54684  Biso   1.000  N
  N20      1.0000 0.56830  0.85959  0.47639  Biso   1.000  N
  N21      1.0000 0.36870  0.80801  0.48749  Biso   1.000  N
  N22      1.0000 0.23450  0.78116  0.33529  Biso   1.000  N
  N23      1.0000 0.33650  0.84565  0.23608  Biso   1.000  N
  N24      1.0000 0.23950  0.77671  0.20797  Biso   1.000  N
  N25      1.0000 0.87440  0.80168  0.55279  Biso   1.000  N
  N26      1.0000 0.06440  0.87721  0.54675  Biso   1.000  N
  N27      1.0000 0.05190  0.79294  0.49312  Biso   1.000  N
  N28      1.0000 0.74030  0.59116  0.54892  Biso   1.000  N
  N29      1.0000 0.85170  0.46811  0.48664  Biso   1.000  N
  N30      1.0000 0.77760  0.41604  0.53925  Biso   1.000  N
  N31      1.0000 0.05900  0.69429  0.04684  Biso   1.000  N
  N32      1.0000 0.06830  0.64041  0.97639  Biso   1.000  N
  N33      1.0000 0.86870  0.69199  0.98749  Biso   1.000  N
  N34      1.0000 0.73450  0.71884  0.83529  Biso   1.000  N
  N35      1.0000 0.83650  0.65435  0.73608  Biso   1.000  N
  N36      1.0000 0.73950  0.72329  0.70797  Biso   1.000  N
  N37      1.0000 0.62560  0.30168  0.94721  Biso   1.000  N
  N38      1.0000 0.43560  0.37721  0.95325  Biso   1.000  N
  N39      1.0000 0.44810  0.29294  0.00688  Biso   1.000  N
  N40      1.0000 0.75970  0.09116  0.95108  Biso   1.000  N
  N41      1.0000 0.64830  0.96811  0.01336  Biso   1.000  N
  N42      1.0000 0.72240  0.91604  0.96075  Biso   1.000  N
  N43      1.0000 0.44100  0.19429  0.45316  Biso   1.000  N
  N44      1.0000 0.43170  0.14041  0.52361  Biso   1.000  N
  N45      1.0000 0.63130  0.19199  0.51251  Biso   1.000  N
  N46      1.0000 0.76550  0.21884  0.66471  Biso   1.000  N
  N47      1.0000 0.66350  0.15435  0.76392  Biso   1.000  N
  N48      1.0000 0.76050  0.22329  0.79203  Biso   1.000  N
