data_image0
_cell_length_a       10.8291
_cell_length_b       12.529
_cell_length_c       16.848
_cell_angle_alpha    90
_cell_angle_beta     94.993
_cell_angle_gamma    90

_symmetry_space_group_name_H-M    P 1
_symmetry_int_tables_number       1

loop_
  _symmetry_equiv_pos_as_xyz
  'x, y, z'

loop_
  _atom_site_label
  _atom_site_occupancy
  _atom_site_fract_x
  _atom_site_fract_y
  _atom_site_fract_z
  _atom_site_thermal_displace_type
  _atom_site_B_iso_or_equiv
  _atom_site_type_symbol
  Zn1      1.0000 0.27540  0.26785  0.40442  Biso   1.000  Zn
  Zn2      1.0000 0.79421  0.25673  0.54327  Biso   1.000  Zn
  Zn3      1.0000 0.22460  0.76785  0.09558  Biso   1.000  Zn
  Zn4      1.0000 0.70579  0.75673  0.95673  Biso   1.000  Zn
  Zn5      1.0000 0.72460  0.73215  0.59558  Biso   1.000  Zn
  Zn6      1.0000 0.20579  0.74327  0.45673  Biso   1.000  Zn
  Zn7      1.0000 0.77540  0.23215  0.90442  Biso   1.000  Zn
  Zn8      1.0000 0.29421  0.24327  0.04327  Biso   1.000  Zn
  H1       1.0000 0.93510  0.35600  0.79220  Biso   1.000  H
  H2       1.0000 0.98840  0.31670  0.71150  Biso   1.000  H
  H3       1.0000 0.88290  0.40640  0.70860  Biso   1.000  H
  H4       1.0000 0.53120  0.05170  0.64480  Biso   1.000  H
  H5       1.0000 0.65120  0.01980  0.60110  Biso   1.000  H
  H6       1.0000 0.52020  0.33000  0.34240  Biso   1.000  H
  H7       1.0000 0.63570  0.37050  0.40030  Biso   1.000  H
  H8       1.0000 0.64900  0.26680  0.34620  Biso   1.000  H
  H9       1.0000 0.99950  0.02820  0.31700  Biso   1.000  H
  H10      1.0000 0.13310  0.08250  0.31550  Biso   1.000  H
  H11      1.0000 0.11370  0.98570  0.37520  Biso   1.000  H
  H12      1.0000 0.16670  0.31270  0.58920  Biso   1.000  H
  H13      1.0000 0.03650  0.37310  0.57560  Biso   1.000  H
  H14      1.0000 0.36930  0.61310  0.35840  Biso   1.000  H
  H15      1.0000 0.45900  0.52310  0.39870  Biso   1.000  H
  H16      1.0000 0.36060  0.49310  0.32570  Biso   1.000  H
  H17      1.0000 0.56490  0.85600  0.70780  Biso   1.000  H
  H18      1.0000 0.51160  0.81670  0.78850  Biso   1.000  H
  H19      1.0000 0.61710  0.90640  0.79140  Biso   1.000  H
  H20      1.0000 0.96880  0.55170  0.85520  Biso   1.000  H
  H21      1.0000 0.84880  0.51980  0.89890  Biso   1.000  H
  H22      1.0000 0.97980  0.83000  0.15760  Biso   1.000  H
  H23      1.0000 0.86430  0.87050  0.09970  Biso   1.000  H
  H24      1.0000 0.85100  0.76680  0.15380  Biso   1.000  H
  H25      1.0000 0.50050  0.52820  0.18300  Biso   1.000  H
  H26      1.0000 0.36690  0.58250  0.18450  Biso   1.000  H
  H27      1.0000 0.38630  0.48570  0.12480  Biso   1.000  H
  H28      1.0000 0.33330  0.81270  0.91080  Biso   1.000  H
  H29      1.0000 0.46350  0.87310  0.92440  Biso   1.000  H
  H30      1.0000 0.13070  0.11310  0.14160  Biso   1.000  H
  H31      1.0000 0.04100  0.02310  0.10130  Biso   1.000  H
  H32      1.0000 0.13940  0.99310  0.17430  Biso   1.000  H
  H33      1.0000 0.06490  0.64400  0.20780  Biso   1.000  H
  H34      1.0000 0.01160  0.68330  0.28850  Biso   1.000  H
  H35      1.0000 0.11710  0.59360  0.29140  Biso   1.000  H
  H36      1.0000 0.46880  0.94830  0.35520  Biso   1.000  H
  H37      1.0000 0.34880  0.98020  0.39890  Biso   1.000  H
  H38      1.0000 0.47980  0.67000  0.65760  Biso   1.000  H
  H39      1.0000 0.36430  0.62950  0.59970  Biso   1.000  H
  H40      1.0000 0.35100  0.73320  0.65380  Biso   1.000  H
  H41      1.0000 0.00050  0.97180  0.68300  Biso   1.000  H
  H42      1.0000 0.86690  0.91750  0.68450  Biso   1.000  H
  H43      1.0000 0.88630  0.01430  0.62480  Biso   1.000  H
  H44      1.0000 0.83330  0.68730  0.41080  Biso   1.000  H
  H45      1.0000 0.96350  0.62690  0.42440  Biso   1.000  H
  H46      1.0000 0.63070  0.38690  0.64160  Biso   1.000  H
  H47      1.0000 0.54100  0.47690  0.60130  Biso   1.000  H
  H48      1.0000 0.63940  0.50690  0.67430  Biso   1.000  H
  H49      1.0000 0.43510  0.14400  0.29220  Biso   1.000  H
  H50      1.0000 0.48840  0.18330  0.21150  Biso   1.000  H
  H51      1.0000 0.38290  0.09360  0.20860  Biso   1.000  H
  H52      1.0000 0.03120  0.44830  0.14480  Biso   1.000  H
  H53      1.0000 0.15120  0.48020  0.10110  Biso   1.000  H
  H54      1.0000 0.02020  0.17000  0.84240  Biso   1.000  H
  H55      1.0000 0.13570  0.12950  0.90030  Biso   1.000  H
  H56      1.0000 0.14900  0.23320  0.84620  Biso   1.000  H
  H57      1.0000 0.49950  0.47180  0.81700  Biso   1.000  H
  H58      1.0000 0.63310  0.41750  0.81550  Biso   1.000  H
  H59      1.0000 0.61370  0.51430  0.87520  Biso   1.000  H
  H60      1.0000 0.66670  0.18730  0.08920  Biso   1.000  H
  H61      1.0000 0.53650  0.12690  0.07560  Biso   1.000  H
  H62      1.0000 0.86930  0.88690  0.85840  Biso   1.000  H
  H63      1.0000 0.95900  0.97690  0.89870  Biso   1.000  H
  H64      1.0000 0.86060  0.00690  0.82570  Biso   1.000  H
  C1       1.0000 0.91420  0.34120  0.73550  Biso   1.000  C
  C2       1.0000 0.81670  0.25650  0.72650  Biso   1.000  C
  C3       1.0000 0.68150  0.14650  0.67750  Biso   1.000  C
  C4       1.0000 0.60190  0.08090  0.61820  Biso   1.000  C
  C5       1.0000 0.55300  0.14250  0.54610  Biso   1.000  C
  C6       1.0000 0.55170  0.23910  0.44220  Biso   1.000  C
  C7       1.0000 0.59270  0.30740  0.37720  Biso   1.000  C
  C8       1.0000 0.07510  0.04910  0.34960  Biso   1.000  C
  C9       1.0000 0.04340  0.12600  0.41150  Biso   1.000  C
  C10      1.0000 0.05590  0.25390  0.49460  Biso   1.000  C
  C11      1.0000 0.10550  0.34260  0.54800  Biso   1.000  C
  C12      1.0000 0.16590  0.43050  0.50510  Biso   1.000  C
  C13      1.0000 0.28200  0.51250  0.43030  Biso   1.000  C
  C14      1.0000 0.37570  0.53760  0.37340  Biso   1.000  C
  C15      1.0000 0.58580  0.84120  0.76450  Biso   1.000  C
  C16      1.0000 0.68330  0.75650  0.77350  Biso   1.000  C
  C17      1.0000 0.81850  0.64650  0.82250  Biso   1.000  C
  C18      1.0000 0.89810  0.58090  0.88180  Biso   1.000  C
  C19      1.0000 0.94700  0.64250  0.95390  Biso   1.000  C
  C20      1.0000 0.94830  0.73910  0.05780  Biso   1.000  C
  C21      1.0000 0.90730  0.80740  0.12280  Biso   1.000  C
  C22      1.0000 0.42490  0.54910  0.15040  Biso   1.000  C
  C23      1.0000 0.45660  0.62600  0.08850  Biso   1.000  C
  C24      1.0000 0.44410  0.75390  0.00540  Biso   1.000  C
  C25      1.0000 0.39450  0.84260  0.95200  Biso   1.000  C
  C26      1.0000 0.33410  0.93050  0.99490  Biso   1.000  C
  C27      1.0000 0.21800  0.01250  0.06970  Biso   1.000  C
  C28      1.0000 0.12430  0.03760  0.12660  Biso   1.000  C
  C29      1.0000 0.08580  0.65880  0.26450  Biso   1.000  C
  C30      1.0000 0.18330  0.74350  0.27350  Biso   1.000  C
  C31      1.0000 0.31850  0.85350  0.32250  Biso   1.000  C
  C32      1.0000 0.39810  0.91910  0.38180  Biso   1.000  C
  C33      1.0000 0.44700  0.85750  0.45390  Biso   1.000  C
  C34      1.0000 0.44830  0.76090  0.55780  Biso   1.000  C
  C35      1.0000 0.40730  0.69260  0.62280  Biso   1.000  C
  C36      1.0000 0.92490  0.95090  0.65040  Biso   1.000  C
  C37      1.0000 0.95660  0.87400  0.58850  Biso   1.000  C
  C38      1.0000 0.94410  0.74610  0.50540  Biso   1.000  C
  C39      1.0000 0.89450  0.65740  0.45200  Biso   1.000  C
  C40      1.0000 0.83410  0.56950  0.49490  Biso   1.000  C
  C41      1.0000 0.71800  0.48750  0.56970  Biso   1.000  C
  C42      1.0000 0.62430  0.46240  0.62660  Biso   1.000  C
  C43      1.0000 0.41420  0.15880  0.23550  Biso   1.000  C
  C44      1.0000 0.31670  0.24350  0.22650  Biso   1.000  C
  C45      1.0000 0.18150  0.35350  0.17750  Biso   1.000  C
  C46      1.0000 0.10190  0.41910  0.11820  Biso   1.000  C
  C47      1.0000 0.05300  0.35750  0.04610  Biso   1.000  C
  C48      1.0000 0.05170  0.26090  0.94220  Biso   1.000  C
  C49      1.0000 0.09270  0.19260  0.87720  Biso   1.000  C
  C50      1.0000 0.57510  0.45090  0.84960  Biso   1.000  C
  C51      1.0000 0.54340  0.37400  0.91150  Biso   1.000  C
  C52      1.0000 0.55590  0.24610  0.99460  Biso   1.000  C
  C53      1.0000 0.60550  0.15740  0.04800  Biso   1.000  C
  C54      1.0000 0.66590  0.06950  0.00510  Biso   1.000  C
  C55      1.0000 0.78200  0.98750  0.93030  Biso   1.000  C
  C56      1.0000 0.87570  0.96240  0.87340  Biso   1.000  C
  N1       1.0000 0.12170  0.20460  0.44160  Biso   1.000  N
  N2       1.0000 0.93680  0.12610  0.44270  Biso   1.000  N
  N3       1.0000 0.94510  0.20960  0.49710  Biso   1.000  N
  N4       1.0000 0.25160  0.41280  0.45214  Biso   1.000  N
  N5       1.0000 0.14370  0.53220  0.51730  Biso   1.000  N
  N6       1.0000 0.21910  0.58500  0.46720  Biso   1.000  N
  N7       1.0000 0.43550  0.20780  0.44940  Biso   1.000  N
  N8       1.0000 0.43660  0.14470  0.51750  Biso   1.000  N
  N9       1.0000 0.62890  0.20010  0.50160  Biso   1.000  N
  N10      1.0000 0.77120  0.21570  0.65650  Biso   1.000  N
  N11      1.0000 0.67340  0.14250  0.75440  Biso   1.000  N
  N12      1.0000 0.76170  0.21480  0.78590  Biso   1.000  N
  N13      1.0000 0.37830  0.70460  0.05840  Biso   1.000  N
  N14      1.0000 0.56320  0.62610  0.05730  Biso   1.000  N
  N15      1.0000 0.55490  0.70960  0.00290  Biso   1.000  N
  N16      1.0000 0.24840  0.91280  0.04786  Biso   1.000  N
  N17      1.0000 0.35630  0.03220  0.98270  Biso   1.000  N
  N18      1.0000 0.28090  0.08500  0.03280  Biso   1.000  N
  N19      1.0000 0.06450  0.70780  0.05060  Biso   1.000  N
  N20      1.0000 0.06340  0.64470  0.98250  Biso   1.000  N
  N21      1.0000 0.87110  0.70010  0.99840  Biso   1.000  N
  N22      1.0000 0.72880  0.71570  0.84350  Biso   1.000  N
  N23      1.0000 0.82660  0.64250  0.74560  Biso   1.000  N
  N24      1.0000 0.73830  0.71480  0.71410  Biso   1.000  N
  N25      1.0000 0.87830  0.79540  0.55840  Biso   1.000  N
  N26      1.0000 0.06320  0.87390  0.55730  Biso   1.000  N
  N27      1.0000 0.05490  0.79040  0.50290  Biso   1.000  N
  N28      1.0000 0.74840  0.58720  0.54786  Biso   1.000  N
  N29      1.0000 0.85630  0.46780  0.48270  Biso   1.000  N
  N30      1.0000 0.78090  0.41500  0.53280  Biso   1.000  N
  N31      1.0000 0.56450  0.79220  0.55060  Biso   1.000  N
  N32      1.0000 0.56340  0.85530  0.48250  Biso   1.000  N
  N33      1.0000 0.37110  0.79990  0.49840  Biso   1.000  N
  N34      1.0000 0.22880  0.78430  0.34350  Biso   1.000  N
  N35      1.0000 0.32660  0.85750  0.24560  Biso   1.000  N
  N36      1.0000 0.23830  0.78520  0.21410  Biso   1.000  N
  N37      1.0000 0.62170  0.29540  0.94160  Biso   1.000  N
  N38      1.0000 0.43680  0.37390  0.94270  Biso   1.000  N
  N39      1.0000 0.44510  0.29040  0.99710  Biso   1.000  N
  N40      1.0000 0.75160  0.08720  0.95214  Biso   1.000  N
  N41      1.0000 0.64370  0.96780  0.01730  Biso   1.000  N
  N42      1.0000 0.71910  0.91500  0.96720  Biso   1.000  N
  N43      1.0000 0.93550  0.29220  0.94940  Biso   1.000  N
  N44      1.0000 0.93660  0.35530  0.01750  Biso   1.000  N
  N45      1.0000 0.12890  0.29990  0.00160  Biso   1.000  N
  N46      1.0000 0.27120  0.28430  0.15650  Biso   1.000  N
  N47      1.0000 0.17340  0.35750  0.25440  Biso   1.000  N
  N48      1.0000 0.26170  0.28520  0.28590  Biso   1.000  N
