data_image0
_cell_length_a       19.293
_cell_length_b       19.293
_cell_length_c       20.838
_cell_angle_alpha    90
_cell_angle_beta     90
_cell_angle_gamma    120

_symmetry_space_group_name_H-M    P 1
_symmetry_int_tables_number       1

loop_
  _symmetry_equiv_pos_as_xyz
  'x, y, z'

loop_
  _atom_site_label
  _atom_site_occupancy
  _atom_site_fract_x
  _atom_site_fract_y
  _atom_site_fract_z
  _atom_site_thermal_displace_type
  _atom_site_B_iso_or_equiv
  _atom_site_type_symbol
  Zn1      1.0000 0.43569  0.72284  0.87987  Biso   1.000  Zn
  Zn2      1.0000 0.36887  0.64659  0.04281  Biso   1.000  Zn
  Zn3      1.0000 0.28715  0.56431  0.21320  Biso   1.000  Zn
  Zn4      1.0000 0.27772  0.63113  0.37614  Biso   1.000  Zn
  Zn5      1.0000 0.27716  0.71285  0.54654  Biso   1.000  Zn
  Zn6      1.0000 0.35341  0.72228  0.70948  Biso   1.000  Zn
  Zn7      1.0000 0.56431  0.27716  0.37987  Biso   1.000  Zn
  Zn8      1.0000 0.63113  0.35341  0.54281  Biso   1.000  Zn
  Zn9      1.0000 0.71285  0.43569  0.71320  Biso   1.000  Zn
  Zn10     1.0000 0.72228  0.36887  0.87614  Biso   1.000  Zn
  Zn11     1.0000 0.72284  0.28715  0.04654  Biso   1.000  Zn
  Zn12     1.0000 0.64659  0.27772  0.20948  Biso   1.000  Zn
  H1       1.0000 0.94450  0.35110  0.85180  Biso   1.000  H
  H2       1.0000 0.93010  0.15730  0.99380  Biso   1.000  H
  H3       1.0000 0.03870  0.30980  0.84550  Biso   1.000  H
  H4       1.0000 0.83720  0.20080  0.00090  Biso   1.000  H
  H5       1.0000 0.21450  0.48980  0.97690  Biso   1.000  H
  H6       1.0000 0.12770  0.35120  0.98000  Biso   1.000  H
  H7       1.0000 0.25350  0.32360  0.83550  Biso   1.000  H
  H8       1.0000 0.34010  0.46170  0.83320  Biso   1.000  H
  H9       1.0000 0.19570  0.73530  0.78550  Biso   1.000  H
  H10      1.0000 0.11250  0.78990  0.79510  Biso   1.000  H
  H11      1.0000 0.25720  0.93920  0.93400  Biso   1.000  H
  H12      1.0000 0.33960  0.88430  0.92460  Biso   1.000  H
  H13      1.0000 0.82300  0.67350  0.77680  Biso   1.000  H
  H14      1.0000 0.91670  0.80620  0.79940  Biso   1.000  H
  H15      1.0000 0.02900  0.73160  0.92160  Biso   1.000  H
  H16      1.0000 0.93390  0.59910  0.89900  Biso   1.000  H
  H17      1.0000 0.38200  0.77000  0.98550  Biso   1.000  H
  H18      1.0000 0.36900  0.77050  0.05440  Biso   1.000  H
  H19      1.0000 0.23900  0.60100  0.09340  Biso   1.000  H
  H20      1.0000 0.24500  0.65940  0.04800  Biso   1.000  H
  H21      1.0000 0.40660  0.05550  0.18513  Biso   1.000  H
  H22      1.0000 0.22720  0.06990  0.32713  Biso   1.000  H
  H23      1.0000 0.27110  0.96130  0.17883  Biso   1.000  H
  H24      1.0000 0.36360  0.16280  0.33423  Biso   1.000  H
  H25      1.0000 0.27530  0.78550  0.31023  Biso   1.000  H
  H26      1.0000 0.22350  0.87230  0.31333  Biso   1.000  H
  H27      1.0000 0.07010  0.74650  0.16883  Biso   1.000  H
  H28      1.0000 0.12160  0.65990  0.16653  Biso   1.000  H
  H29      1.0000 0.53960  0.80430  0.11883  Biso   1.000  H
  H30      1.0000 0.67740  0.88750  0.12843  Biso   1.000  H
  H31      1.0000 0.68200  0.74280  0.26733  Biso   1.000  H
  H32      1.0000 0.54470  0.66040  0.25793  Biso   1.000  H
  H33      1.0000 0.85050  0.17700  0.11013  Biso   1.000  H
  H34      1.0000 0.88950  0.08330  0.13273  Biso   1.000  H
  H35      1.0000 0.70260  0.97100  0.25493  Biso   1.000  H
  H36      1.0000 0.66520  0.06610  0.23233  Biso   1.000  H
  H37      1.0000 0.38800  0.61800  0.31883  Biso   1.000  H
  H38      1.0000 0.40150  0.63100  0.38773  Biso   1.000  H
  H39      1.0000 0.36200  0.76100  0.42673  Biso   1.000  H
  H40      1.0000 0.41440  0.75500  0.38133  Biso   1.000  H
  H41      1.0000 0.64890  0.59340  0.51847  Biso   1.000  H
  H42      1.0000 0.84270  0.77280  0.66047  Biso   1.000  H
  H43      1.0000 0.69020  0.72890  0.51217  Biso   1.000  H
  H44      1.0000 0.79920  0.63640  0.66757  Biso   1.000  H
  H45      1.0000 0.51020  0.72470  0.64357  Biso   1.000  H
  H46      1.0000 0.64880  0.77650  0.64667  Biso   1.000  H
  H47      1.0000 0.67640  0.92990  0.50217  Biso   1.000  H
  H48      1.0000 0.53830  0.87840  0.49987  Biso   1.000  H
  H49      1.0000 0.26470  0.46040  0.45217  Biso   1.000  H
  H50      1.0000 0.21010  0.32260  0.46177  Biso   1.000  H
  H51      1.0000 0.06080  0.31800  0.60067  Biso   1.000  H
  H52      1.0000 0.11570  0.45530  0.59127  Biso   1.000  H
  H53      1.0000 0.32650  0.14950  0.44347  Biso   1.000  H
  H54      1.0000 0.19380  0.11050  0.46607  Biso   1.000  H
  H55      1.0000 0.26840  0.29740  0.58827  Biso   1.000  H
  H56      1.0000 0.40090  0.33480  0.56567  Biso   1.000  H
  H57      1.0000 0.23000  0.61200  0.65217  Biso   1.000  H
  H58      1.0000 0.22950  0.59850  0.72107  Biso   1.000  H
  H59      1.0000 0.39900  0.63800  0.76007  Biso   1.000  H
  H60      1.0000 0.34060  0.58560  0.71467  Biso   1.000  H
  H61      1.0000 0.05550  0.64890  0.35180  Biso   1.000  H
  H62      1.0000 0.06990  0.84270  0.49380  Biso   1.000  H
  H63      1.0000 0.96130  0.69020  0.34550  Biso   1.000  H
  H64      1.0000 0.16280  0.79920  0.50090  Biso   1.000  H
  H65      1.0000 0.78550  0.51020  0.47690  Biso   1.000  H
  H66      1.0000 0.87230  0.64880  0.48000  Biso   1.000  H
  H67      1.0000 0.74650  0.67640  0.33550  Biso   1.000  H
  H68      1.0000 0.65990  0.53830  0.33320  Biso   1.000  H
  H69      1.0000 0.80430  0.26470  0.28550  Biso   1.000  H
  H70      1.0000 0.88750  0.21010  0.29510  Biso   1.000  H
  H71      1.0000 0.74280  0.06080  0.43400  Biso   1.000  H
  H72      1.0000 0.66040  0.11570  0.42460  Biso   1.000  H
  H73      1.0000 0.17700  0.32650  0.27680  Biso   1.000  H
  H74      1.0000 0.08330  0.19380  0.29940  Biso   1.000  H
  H75      1.0000 0.97100  0.26840  0.42160  Biso   1.000  H
  H76      1.0000 0.06610  0.40090  0.39900  Biso   1.000  H
  H77      1.0000 0.61800  0.23000  0.48550  Biso   1.000  H
  H78      1.0000 0.63100  0.22950  0.55440  Biso   1.000  H
  H79      1.0000 0.76100  0.39900  0.59340  Biso   1.000  H
  H80      1.0000 0.75500  0.34060  0.54800  Biso   1.000  H
  H81      1.0000 0.59340  0.94450  0.68513  Biso   1.000  H
  H82      1.0000 0.77280  0.93010  0.82713  Biso   1.000  H
  H83      1.0000 0.72890  0.03870  0.67883  Biso   1.000  H
  H84      1.0000 0.63640  0.83720  0.83423  Biso   1.000  H
  H85      1.0000 0.72470  0.21450  0.81023  Biso   1.000  H
  H86      1.0000 0.77650  0.12770  0.81333  Biso   1.000  H
  H87      1.0000 0.92990  0.25350  0.66883  Biso   1.000  H
  H88      1.0000 0.87840  0.34010  0.66653  Biso   1.000  H
  H89      1.0000 0.46040  0.19570  0.61883  Biso   1.000  H
  H90      1.0000 0.32260  0.11250  0.62843  Biso   1.000  H
  H91      1.0000 0.31800  0.25720  0.76733  Biso   1.000  H
  H92      1.0000 0.45530  0.33960  0.75793  Biso   1.000  H
  H93      1.0000 0.14950  0.82300  0.61013  Biso   1.000  H
  H94      1.0000 0.11050  0.91670  0.63273  Biso   1.000  H
  H95      1.0000 0.29740  0.02900  0.75493  Biso   1.000  H
  H96      1.0000 0.33480  0.93390  0.73233  Biso   1.000  H
  H97      1.0000 0.61200  0.38200  0.81883  Biso   1.000  H
  H98      1.0000 0.59850  0.36900  0.88773  Biso   1.000  H
  H99      1.0000 0.63800  0.23900  0.92673  Biso   1.000  H
  H100     1.0000 0.58560  0.24500  0.88133  Biso   1.000  H
  H101     1.0000 0.35110  0.40660  0.01847  Biso   1.000  H
  H102     1.0000 0.15730  0.22720  0.16047  Biso   1.000  H
  H103     1.0000 0.30980  0.27110  0.01217  Biso   1.000  H
  H104     1.0000 0.20080  0.36360  0.16757  Biso   1.000  H
  H105     1.0000 0.48980  0.27530  0.14357  Biso   1.000  H
  H106     1.0000 0.35120  0.22350  0.14667  Biso   1.000  H
  H107     1.0000 0.32360  0.07010  0.00217  Biso   1.000  H
  H108     1.0000 0.46170  0.12160  0.99987  Biso   1.000  H
  H109     1.0000 0.73530  0.53960  0.95217  Biso   1.000  H
  H110     1.0000 0.78990  0.67740  0.96177  Biso   1.000  H
  H111     1.0000 0.93920  0.68200  0.10067  Biso   1.000  H
  H112     1.0000 0.88430  0.54470  0.09127  Biso   1.000  H
  H113     1.0000 0.67350  0.85050  0.94347  Biso   1.000  H
  H114     1.0000 0.80620  0.88950  0.96607  Biso   1.000  H
  H115     1.0000 0.73160  0.70260  0.08827  Biso   1.000  H
  H116     1.0000 0.59910  0.66520  0.06567  Biso   1.000  H
  H117     1.0000 0.77000  0.38800  0.15217  Biso   1.000  H
  H118     1.0000 0.77050  0.40150  0.22107  Biso   1.000  H
  H119     1.0000 0.60100  0.36200  0.26007  Biso   1.000  H
  H120     1.0000 0.65940  0.41440  0.21467  Biso   1.000  H
  C1       1.0000 0.08810  0.08570  0.90433  Biso   1.000  C
  C2       1.0000 0.08700  0.01700  0.89686  Biso   1.000  C
  C3       1.0000 0.04820  0.19640  0.91328  Biso   1.000  C
  C4       1.0000 0.12840  0.23580  0.90953  Biso   1.000  C
  C5       1.0000 0.12250  0.90420  0.87460  Biso   1.000  C
  C6       1.0000 0.04230  0.86740  0.87424  Biso   1.000  C
  C7       1.0000 0.87990  0.27750  0.92562  Biso   1.000  C
  C8       1.0000 0.94130  0.31120  0.88031  Biso   1.000  C
  C9       1.0000 0.93300  0.19660  0.96483  Biso   1.000  C
  C10      1.0000 0.99320  0.22890  0.91878  Biso   1.000  C
  C11      1.0000 0.99730  0.28700  0.87672  Biso   1.000  C
  C12      1.0000 0.87733  0.22191  0.96859  Biso   1.000  C
  C13      1.0000 0.81477  0.29873  0.92801  Biso   1.000  C
  C14      1.0000 0.28502  0.48866  0.90490  Biso   1.000  C
  C15      1.0000 0.22234  0.45596  0.94839  Biso   1.000  C
  C16      1.0000 0.17090  0.37360  0.95030  Biso   1.000  C
  C17      1.0000 0.18270  0.32360  0.90835  Biso   1.000  C
  C18      1.0000 0.24570  0.35710  0.86443  Biso   1.000  C
  C19      1.0000 0.29690  0.43910  0.86288  Biso   1.000  C
  C20      1.0000 0.34110  0.57630  0.90207  Biso   1.000  C
  C21      1.0000 0.27560  0.80350  0.85422  Biso   1.000  C
  C22      1.0000 0.20800  0.77650  0.81602  Biso   1.000  C
  C23      1.0000 0.15830  0.80880  0.82181  Biso   1.000  C
  C24      1.0000 0.17500  0.86900  0.86658  Biso   1.000  C
  C25      1.0000 0.24400  0.89710  0.90413  Biso   1.000  C
  C26      1.0000 0.29330  0.86480  0.89835  Biso   1.000  C
  C27      1.0000 0.32800  0.76740  0.84909  Biso   1.000  C
  C28      1.0000 0.86950  0.62320  0.83543  Biso   1.000  C
  C29      1.0000 0.86510  0.68530  0.80621  Biso   1.000  C
  C30      1.0000 0.92110  0.76430  0.81918  Biso   1.000  C
  C31      1.0000 0.98330  0.78170  0.86108  Biso   1.000  C
  C32      1.0000 0.98750  0.72000  0.89167  Biso   1.000  C
  C33      1.0000 0.93070  0.64140  0.87827  Biso   1.000  C
  C34      1.0000 0.81000  0.53830  0.81970  Biso   1.000  C
  C35      1.0000 0.99760  0.91190  0.23766  Biso   1.000  C
  C36      1.0000 0.93000  0.91300  0.23019  Biso   1.000  C
  C37      1.0000 0.14820  0.95180  0.24661  Biso   1.000  C
  C38      1.0000 0.10740  0.87160  0.24286  Biso   1.000  C
  C39      1.0000 0.78170  0.87750  0.20793  Biso   1.000  C
  C40      1.0000 0.82510  0.95770  0.20757  Biso   1.000  C
  C41      1.0000 0.39760  0.12010  0.25895  Biso   1.000  C
  C42      1.0000 0.36990  0.05870  0.21364  Biso   1.000  C
  C43      1.0000 0.26360  0.06700  0.29816  Biso   1.000  C
  C44      1.0000 0.23570  0.00680  0.25211  Biso   1.000  C
  C45      1.0000 0.28970  0.00270  0.21005  Biso   1.000  C
  C46      1.0000 0.34458  0.12267  0.30192  Biso   1.000  C
  C47      1.0000 0.48396  0.18523  0.26134  Biso   1.000  C
  C48      1.0000 0.20364  0.71498  0.23823  Biso   1.000  C
  C49      1.0000 0.23362  0.77766  0.28172  Biso   1.000  C
  C50      1.0000 0.20270  0.82910  0.28363  Biso   1.000  C
  C51      1.0000 0.14090  0.81730  0.24168  Biso   1.000  C
  C52      1.0000 0.11140  0.75430  0.19776  Biso   1.000  C
  C53      1.0000 0.14220  0.70310  0.19621  Biso   1.000  C
  C54      1.0000 0.23520  0.65890  0.23540  Biso   1.000  C
  C55      1.0000 0.52790  0.72440  0.18755  Biso   1.000  C
  C56      1.0000 0.56850  0.79200  0.14935  Biso   1.000  C
  C57      1.0000 0.65050  0.84170  0.15514  Biso   1.000  C
  C58      1.0000 0.69400  0.82500  0.19991  Biso   1.000  C
  C59      1.0000 0.65310  0.75600  0.23746  Biso   1.000  C
  C60      1.0000 0.57150  0.70670  0.23168  Biso   1.000  C
  C61      1.0000 0.43940  0.67200  0.18242  Biso   1.000  C
  C62      1.0000 0.75370  0.13050  0.16876  Biso   1.000  C
  C63      1.0000 0.82020  0.13490  0.13954  Biso   1.000  C
  C64      1.0000 0.84320  0.07890  0.15251  Biso   1.000  C
  C65      1.0000 0.79840  0.01670  0.19441  Biso   1.000  C
  C66      1.0000 0.73250  0.01250  0.22500  Biso   1.000  C
  C67      1.0000 0.71070  0.06930  0.21160  Biso   1.000  C
  C68      1.0000 0.72830  0.19000  0.15303  Biso   1.000  C
  C69      1.0000 0.91430  0.00240  0.57100  Biso   1.000  C
  C70      1.0000 0.98300  0.07000  0.56353  Biso   1.000  C
  C71      1.0000 0.80360  0.85180  0.57995  Biso   1.000  C
  C72      1.0000 0.76420  0.89260  0.57620  Biso   1.000  C
  C73      1.0000 0.09580  0.21830  0.54127  Biso   1.000  C
  C74      1.0000 0.13260  0.17490  0.54091  Biso   1.000  C
  C75      1.0000 0.72250  0.60240  0.59229  Biso   1.000  C
  C76      1.0000 0.68880  0.63010  0.54698  Biso   1.000  C
  C77      1.0000 0.80340  0.73640  0.63150  Biso   1.000  C
  C78      1.0000 0.77110  0.76430  0.58545  Biso   1.000  C
  C79      1.0000 0.71300  0.71030  0.54339  Biso   1.000  C
  C80      1.0000 0.77809  0.65542  0.63526  Biso   1.000  C
  C81      1.0000 0.70127  0.51604  0.59468  Biso   1.000  C
  C82      1.0000 0.51134  0.79636  0.57157  Biso   1.000  C
  C83      1.0000 0.54404  0.76638  0.61506  Biso   1.000  C
  C84      1.0000 0.62640  0.79730  0.61697  Biso   1.000  C
  C85      1.0000 0.67640  0.85910  0.57502  Biso   1.000  C
  C86      1.0000 0.64290  0.88860  0.53110  Biso   1.000  C
  C87      1.0000 0.56090  0.85780  0.52955  Biso   1.000  C
  C88      1.0000 0.42370  0.76480  0.56874  Biso   1.000  C
  C89      1.0000 0.19650  0.47210  0.52089  Biso   1.000  C
  C90      1.0000 0.22350  0.43150  0.48269  Biso   1.000  C
  C91      1.0000 0.19120  0.34950  0.48848  Biso   1.000  C
  C92      1.0000 0.13100  0.30600  0.53325  Biso   1.000  C
  C93      1.0000 0.10290  0.34690  0.57080  Biso   1.000  C
  C94      1.0000 0.13520  0.42850  0.56502  Biso   1.000  C
  C95      1.0000 0.23260  0.56060  0.51576  Biso   1.000  C
  C96      1.0000 0.37680  0.24630  0.50210  Biso   1.000  C
  C97      1.0000 0.31470  0.17980  0.47288  Biso   1.000  C
  C98      1.0000 0.23570  0.15680  0.48585  Biso   1.000  C
  C99      1.0000 0.21830  0.20160  0.52775  Biso   1.000  C
  C100     1.0000 0.28000  0.26750  0.55834  Biso   1.000  C
  C101     1.0000 0.35860  0.28930  0.54494  Biso   1.000  C
  C102     1.0000 0.46170  0.27170  0.48637  Biso   1.000  C
  C103     1.0000 0.91190  0.91430  0.40433  Biso   1.000  C
  C104     1.0000 0.91300  0.98300  0.39686  Biso   1.000  C
  C105     1.0000 0.95180  0.80360  0.41328  Biso   1.000  C
  C106     1.0000 0.87160  0.76420  0.40953  Biso   1.000  C
  C107     1.0000 0.87750  0.09580  0.37460  Biso   1.000  C
  C108     1.0000 0.95770  0.13260  0.37424  Biso   1.000  C
  C109     1.0000 0.12010  0.72250  0.42562  Biso   1.000  C
  C110     1.0000 0.05870  0.68880  0.38031  Biso   1.000  C
  C111     1.0000 0.06700  0.80340  0.46483  Biso   1.000  C
  C112     1.0000 0.00680  0.77110  0.41878  Biso   1.000  C
  C113     1.0000 0.00270  0.71300  0.37672  Biso   1.000  C
  C114     1.0000 0.12267  0.77809  0.46859  Biso   1.000  C
  C115     1.0000 0.18523  0.70127  0.42801  Biso   1.000  C
  C116     1.0000 0.71498  0.51134  0.40490  Biso   1.000  C
  C117     1.0000 0.77766  0.54404  0.44839  Biso   1.000  C
  C118     1.0000 0.82910  0.62640  0.45030  Biso   1.000  C
  C119     1.0000 0.81730  0.67640  0.40835  Biso   1.000  C
  C120     1.0000 0.75430  0.64290  0.36443  Biso   1.000  C
  C121     1.0000 0.70310  0.56090  0.36288  Biso   1.000  C
  C122     1.0000 0.65890  0.42370  0.40207  Biso   1.000  C
  C123     1.0000 0.72440  0.19650  0.35422  Biso   1.000  C
  C124     1.0000 0.79200  0.22350  0.31602  Biso   1.000  C
  C125     1.0000 0.84170  0.19120  0.32181  Biso   1.000  C
  C126     1.0000 0.82500  0.13100  0.36658  Biso   1.000  C
  C127     1.0000 0.75600  0.10290  0.40413  Biso   1.000  C
  C128     1.0000 0.70670  0.13520  0.39835  Biso   1.000  C
  C129     1.0000 0.67200  0.23260  0.34909  Biso   1.000  C
  C130     1.0000 0.13050  0.37680  0.33543  Biso   1.000  C
  C131     1.0000 0.13490  0.31470  0.30621  Biso   1.000  C
  C132     1.0000 0.07890  0.23570  0.31918  Biso   1.000  C
  C133     1.0000 0.01670  0.21830  0.36108  Biso   1.000  C
  C134     1.0000 0.01250  0.28000  0.39167  Biso   1.000  C
  C135     1.0000 0.06930  0.35860  0.37827  Biso   1.000  C
  C136     1.0000 0.19000  0.46170  0.31970  Biso   1.000  C
  C137     1.0000 0.00240  0.08810  0.73766  Biso   1.000  C
  C138     1.0000 0.07000  0.08700  0.73019  Biso   1.000  C
  C139     1.0000 0.85180  0.04820  0.74661  Biso   1.000  C
  C140     1.0000 0.89260  0.12840  0.74286  Biso   1.000  C
  C141     1.0000 0.21830  0.12250  0.70793  Biso   1.000  C
  C142     1.0000 0.17490  0.04230  0.70757  Biso   1.000  C
  C143     1.0000 0.60240  0.87990  0.75895  Biso   1.000  C
  C144     1.0000 0.63010  0.94130  0.71364  Biso   1.000  C
  C145     1.0000 0.73640  0.93300  0.79816  Biso   1.000  C
  C146     1.0000 0.76430  0.99320  0.75211  Biso   1.000  C
  C147     1.0000 0.71030  0.99730  0.71005  Biso   1.000  C
  C148     1.0000 0.65542  0.87733  0.80192  Biso   1.000  C
  C149     1.0000 0.51604  0.81477  0.76134  Biso   1.000  C
  C150     1.0000 0.79636  0.28502  0.73823  Biso   1.000  C
  C151     1.0000 0.76638  0.22234  0.78172  Biso   1.000  C
  C152     1.0000 0.79730  0.17090  0.78363  Biso   1.000  C
  C153     1.0000 0.85910  0.18270  0.74168  Biso   1.000  C
  C154     1.0000 0.88860  0.24570  0.69776  Biso   1.000  C
  C155     1.0000 0.85780  0.29690  0.69621  Biso   1.000  C
  C156     1.0000 0.76480  0.34110  0.73540  Biso   1.000  C
  C157     1.0000 0.47210  0.27560  0.68755  Biso   1.000  C
  C158     1.0000 0.43150  0.20800  0.64935  Biso   1.000  C
  C159     1.0000 0.34950  0.15830  0.65514  Biso   1.000  C
  C160     1.0000 0.30600  0.17500  0.69991  Biso   1.000  C
  C161     1.0000 0.34690  0.24400  0.73746  Biso   1.000  C
  C162     1.0000 0.42850  0.29330  0.73168  Biso   1.000  C
  C163     1.0000 0.56060  0.32800  0.68242  Biso   1.000  C
  C164     1.0000 0.24630  0.86950  0.66876  Biso   1.000  C
  C165     1.0000 0.17980  0.86510  0.63954  Biso   1.000  C
  C166     1.0000 0.15680  0.92110  0.65251  Biso   1.000  C
  C167     1.0000 0.20160  0.98330  0.69441  Biso   1.000  C
  C168     1.0000 0.26750  0.98750  0.72500  Biso   1.000  C
  C169     1.0000 0.28930  0.93070  0.71160  Biso   1.000  C
  C170     1.0000 0.27170  0.81000  0.65303  Biso   1.000  C
  C171     1.0000 0.08570  0.99760  0.07100  Biso   1.000  C
  C172     1.0000 0.01700  0.93000  0.06353  Biso   1.000  C
  C173     1.0000 0.19640  0.14820  0.07995  Biso   1.000  C
  C174     1.0000 0.23580  0.10740  0.07620  Biso   1.000  C
  C175     1.0000 0.90420  0.78170  0.04127  Biso   1.000  C
  C176     1.0000 0.86740  0.82510  0.04091  Biso   1.000  C
  C177     1.0000 0.27750  0.39760  0.09229  Biso   1.000  C
  C178     1.0000 0.31120  0.36990  0.04698  Biso   1.000  C
  C179     1.0000 0.19660  0.26360  0.13150  Biso   1.000  C
  C180     1.0000 0.22890  0.23570  0.08545  Biso   1.000  C
  C181     1.0000 0.28700  0.28970  0.04339  Biso   1.000  C
  C182     1.0000 0.22191  0.34458  0.13526  Biso   1.000  C
  C183     1.0000 0.29873  0.48396  0.09468  Biso   1.000  C
  C184     1.0000 0.48866  0.20364  0.07157  Biso   1.000  C
  C185     1.0000 0.45596  0.23362  0.11506  Biso   1.000  C
  C186     1.0000 0.37360  0.20270  0.11697  Biso   1.000  C
  C187     1.0000 0.32360  0.14090  0.07502  Biso   1.000  C
  C188     1.0000 0.35710  0.11140  0.03110  Biso   1.000  C
  C189     1.0000 0.43910  0.14220  0.02955  Biso   1.000  C
  C190     1.0000 0.57630  0.23520  0.06874  Biso   1.000  C
  C191     1.0000 0.80350  0.52790  0.02089  Biso   1.000  C
  C192     1.0000 0.77650  0.56850  0.98269  Biso   1.000  C
  C193     1.0000 0.80880  0.65050  0.98848  Biso   1.000  C
  C194     1.0000 0.86900  0.69400  0.03325  Biso   1.000  C
  C195     1.0000 0.89710  0.65310  0.07080  Biso   1.000  C
  C196     1.0000 0.86480  0.57150  0.06502  Biso   1.000  C
  C197     1.0000 0.76740  0.43940  0.01576  Biso   1.000  C
  C198     1.0000 0.62320  0.75370  0.00210  Biso   1.000  C
  C199     1.0000 0.68530  0.82020  0.97288  Biso   1.000  C
  C200     1.0000 0.76430  0.84320  0.98585  Biso   1.000  C
  C201     1.0000 0.78170  0.79840  0.02775  Biso   1.000  C
  C202     1.0000 0.72000  0.73250  0.05834  Biso   1.000  C
  C203     1.0000 0.64140  0.71070  0.04494  Biso   1.000  C
  C204     1.0000 0.53830  0.72830  0.98637  Biso   1.000  C
  S1       1.0000 0.00042  0.09099  0.91411  Biso   1.000  S
  S2       1.0000 0.17664  0.17868  0.90634  Biso   1.000  S
  S3       1.0000 0.17354  0.00849  0.89073  Biso   1.000  S
  S4       1.0000 0.99750  0.92454  0.89310  Biso   1.000  S
  S5       1.0000 0.09057  0.99958  0.24744  Biso   1.000  S
  S6       1.0000 0.00204  0.82336  0.23967  Biso   1.000  S
  S7       1.0000 0.83495  0.82646  0.22406  Biso   1.000  S
  S8       1.0000 0.92704  0.00250  0.22643  Biso   1.000  S
  S9       1.0000 0.90901  0.90943  0.58078  Biso   1.000  S
  S10      1.0000 0.82132  0.99796  0.57301  Biso   1.000  S
  S11      1.0000 0.99151  0.16505  0.55740  Biso   1.000  S
  S12      1.0000 0.07546  0.07296  0.55977  Biso   1.000  S
  S13      1.0000 0.99958  0.90901  0.41411  Biso   1.000  S
  S14      1.0000 0.82336  0.82132  0.40634  Biso   1.000  S
  S15      1.0000 0.82646  0.99151  0.39073  Biso   1.000  S
  S16      1.0000 0.00250  0.07546  0.39310  Biso   1.000  S
  S17      1.0000 0.90943  0.00042  0.74744  Biso   1.000  S
  S18      1.0000 0.99796  0.17664  0.73967  Biso   1.000  S
  S19      1.0000 0.16505  0.17354  0.72406  Biso   1.000  S
  S20      1.0000 0.07296  0.99750  0.72643  Biso   1.000  S
  S21      1.0000 0.09099  0.09057  0.08078  Biso   1.000  S
  S22      1.0000 0.17868  0.00204  0.07301  Biso   1.000  S
  S23      1.0000 0.00849  0.83495  0.05740  Biso   1.000  S
  S24      1.0000 0.92454  0.92704  0.05977  Biso   1.000  S
  O1       1.0000 0.81767  0.35149  0.89125  Biso   1.000  O
  O2       1.0000 0.75846  0.25851  0.96673  Biso   1.000  O
  O3       1.0000 0.39328  0.60548  0.85854  Biso   1.000  O
  O4       1.0000 0.33547  0.62294  0.94249  Biso   1.000  O
  O5       1.0000 0.38503  0.78968  0.88983  Biso   1.000  O
  O6       1.0000 0.31534  0.71610  0.80649  Biso   1.000  O
  O7       1.0000 0.80755  0.48500  0.85467  Biso   1.000  O
  O8       1.0000 0.76654  0.52756  0.77018  Biso   1.000  O
  O9       1.0000 0.39145  0.76375  0.02442  Biso   1.000  O
  O10      1.0000 0.25123  0.61932  0.05698  Biso   1.000  O
  O11      1.0000 0.53382  0.18233  0.22458  Biso   1.000  O
  O12      1.0000 0.50005  0.24154  0.30006  Biso   1.000  O
  O13      1.0000 0.21220  0.60672  0.19187  Biso   1.000  O
  O14      1.0000 0.28747  0.66453  0.27582  Biso   1.000  O
  O15      1.0000 0.40465  0.61497  0.22316  Biso   1.000  O
  O16      1.0000 0.40076  0.68466  0.13982  Biso   1.000  O
  O17      1.0000 0.67745  0.19245  0.18800  Biso   1.000  O
  O18      1.0000 0.76102  0.23346  0.10351  Biso   1.000  O
  O19      1.0000 0.37230  0.60855  0.35775  Biso   1.000  O
  O20      1.0000 0.36809  0.74877  0.39031  Biso   1.000  O
  O21      1.0000 0.64851  0.46618  0.55792  Biso   1.000  O
  O22      1.0000 0.74149  0.49995  0.63340  Biso   1.000  O
  O23      1.0000 0.39452  0.78780  0.52521  Biso   1.000  O
  O24      1.0000 0.37706  0.71253  0.60916  Biso   1.000  O
  O25      1.0000 0.21032  0.59535  0.55650  Biso   1.000  O
  O26      1.0000 0.28390  0.59924  0.47316  Biso   1.000  O
  O27      1.0000 0.51500  0.32255  0.52134  Biso   1.000  O
  O28      1.0000 0.47244  0.23898  0.43685  Biso   1.000  O
  O29      1.0000 0.23625  0.62770  0.69109  Biso   1.000  O
  O30      1.0000 0.38068  0.63191  0.72365  Biso   1.000  O
  O31      1.0000 0.18233  0.64851  0.39125  Biso   1.000  O
  O32      1.0000 0.24154  0.74149  0.46673  Biso   1.000  O
  O33      1.0000 0.60672  0.39452  0.35854  Biso   1.000  O
  O34      1.0000 0.66453  0.37706  0.44249  Biso   1.000  O
  O35      1.0000 0.61497  0.21032  0.38983  Biso   1.000  O
  O36      1.0000 0.68466  0.28390  0.30649  Biso   1.000  O
  O37      1.0000 0.19245  0.51500  0.35467  Biso   1.000  O
  O38      1.0000 0.23346  0.47244  0.27018  Biso   1.000  O
  O39      1.0000 0.60855  0.23625  0.52442  Biso   1.000  O
  O40      1.0000 0.74877  0.38068  0.55698  Biso   1.000  O
  O41      1.0000 0.46618  0.81767  0.72458  Biso   1.000  O
  O42      1.0000 0.49995  0.75846  0.80006  Biso   1.000  O
  O43      1.0000 0.78780  0.39328  0.69187  Biso   1.000  O
  O44      1.0000 0.71253  0.33547  0.77582  Biso   1.000  O
  O45      1.0000 0.59535  0.38503  0.72316  Biso   1.000  O
  O46      1.0000 0.59924  0.31534  0.63982  Biso   1.000  O
  O47      1.0000 0.32255  0.80755  0.68800  Biso   1.000  O
  O48      1.0000 0.23898  0.76654  0.60351  Biso   1.000  O
  O49      1.0000 0.62770  0.39145  0.85775  Biso   1.000  O
  O50      1.0000 0.63191  0.25123  0.89031  Biso   1.000  O
  O51      1.0000 0.35149  0.53382  0.05792  Biso   1.000  O
  O52      1.0000 0.25851  0.50005  0.13340  Biso   1.000  O
  O53      1.0000 0.60548  0.21220  0.02521  Biso   1.000  O
  O54      1.0000 0.62294  0.28747  0.10916  Biso   1.000  O
  O55      1.0000 0.78968  0.40465  0.05650  Biso   1.000  O
  O56      1.0000 0.71610  0.40076  0.97316  Biso   1.000  O
  O57      1.0000 0.48500  0.67745  0.02134  Biso   1.000  O
  O58      1.0000 0.52756  0.76102  0.93685  Biso   1.000  O
  O59      1.0000 0.76375  0.37230  0.19109  Biso   1.000  O
  O60      1.0000 0.61932  0.36809  0.22365  Biso   1.000  O
