data_image0
_cell_length_a       9.039
_cell_length_b       15.641
_cell_length_c       19.37
_cell_angle_alpha    90
_cell_angle_beta     90
_cell_angle_gamma    90

_symmetry_space_group_name_H-M    P 1
_symmetry_int_tables_number       1

loop_
  _symmetry_equiv_pos_as_xyz
  'x, y, z'

loop_
  _atom_site_label
  _atom_site_occupancy
  _atom_site_fract_x
  _atom_site_fract_y
  _atom_site_fract_z
  _atom_site_thermal_displace_type
  _atom_site_B_iso_or_equiv
  _atom_site_type_symbol
  Ga1      1.0000 0.38750  0.88715  0.58871  Biso   1.000  Ga
  Ga2      1.0000 0.93420  0.86703  0.50253  Biso   1.000  Ga
  Ga3      1.0000 0.11250  0.38715  0.41129  Biso   1.000  Ga
  Ga4      1.0000 0.56580  0.36703  0.49747  Biso   1.000  Ga
  Ga5      1.0000 0.61250  0.11285  0.08871  Biso   1.000  Ga
  Ga6      1.0000 0.06580  0.13297  0.00253  Biso   1.000  Ga
  Ga7      1.0000 0.88750  0.61285  0.91129  Biso   1.000  Ga
  Ga8      1.0000 0.43420  0.63297  0.99747  Biso   1.000  Ga
  Ga9      1.0000 0.61250  0.11285  0.41129  Biso   1.000  Ga
  Ga10     1.0000 0.06580  0.13297  0.49747  Biso   1.000  Ga
  Ga11     1.0000 0.88750  0.61285  0.58871  Biso   1.000  Ga
  Ga12     1.0000 0.43420  0.63297  0.50253  Biso   1.000  Ga
  Ga13     1.0000 0.38750  0.88715  0.91129  Biso   1.000  Ga
  Ga14     1.0000 0.93420  0.86703  0.99747  Biso   1.000  Ga
  Ga15     1.0000 0.11250  0.38715  0.08871  Biso   1.000  Ga
  Ga16     1.0000 0.56580  0.36703  0.00253  Biso   1.000  Ga
  Ga17     1.0000 0.14760  0.07110  0.75000  Biso   1.000  Ga
  Ga18     1.0000 0.35240  0.57110  0.25000  Biso   1.000  Ga
  Ga19     1.0000 0.85240  0.92890  0.25000  Biso   1.000  Ga
  Ga20     1.0000 0.64760  0.42890  0.75000  Biso   1.000  Ga
  P1       1.0000 0.15890  0.72920  0.54140  Biso   1.000  P
  P2       1.0000 0.07310  0.98540  0.60480  Biso   1.000  P
  P3       1.0000 0.34110  0.22920  0.45860  Biso   1.000  P
  P4       1.0000 0.42690  0.48540  0.39520  Biso   1.000  P
  P5       1.0000 0.84110  0.27080  0.04140  Biso   1.000  P
  P6       1.0000 0.92690  0.01460  0.10480  Biso   1.000  P
  P7       1.0000 0.65890  0.77080  0.95860  Biso   1.000  P
  P8       1.0000 0.57310  0.51460  0.89520  Biso   1.000  P
  P9       1.0000 0.84110  0.27080  0.45860  Biso   1.000  P
  P10      1.0000 0.92690  0.01460  0.39520  Biso   1.000  P
  P11      1.0000 0.65890  0.77080  0.54140  Biso   1.000  P
  P12      1.0000 0.57310  0.51460  0.60480  Biso   1.000  P
  P13      1.0000 0.15890  0.72920  0.95860  Biso   1.000  P
  P14      1.0000 0.07310  0.98540  0.89520  Biso   1.000  P
  P15      1.0000 0.34110  0.22920  0.04140  Biso   1.000  P
  P16      1.0000 0.42690  0.48540  0.10480  Biso   1.000  P
  P17      1.0000 0.41130  0.94160  0.75000  Biso   1.000  P
  P18      1.0000 0.08870  0.44160  0.25000  Biso   1.000  P
  P19      1.0000 0.58870  0.05840  0.25000  Biso   1.000  P
  P20      1.0000 0.91130  0.55840  0.75000  Biso   1.000  P
  C1       1.0000 0.46680  0.97310  0.46930  Biso   1.000  C
  C2       1.0000 0.03320  0.47310  0.53070  Biso   1.000  C
  C3       1.0000 0.53320  0.02690  0.96930  Biso   1.000  C
  C4       1.0000 0.96680  0.52690  0.03070  Biso   1.000  C
  C5       1.0000 0.53320  0.02690  0.53070  Biso   1.000  C
  C6       1.0000 0.96680  0.52690  0.46930  Biso   1.000  C
  C7       1.0000 0.46680  0.97310  0.03070  Biso   1.000  C
  C8       1.0000 0.03320  0.47310  0.96930  Biso   1.000  C
  O1       1.0000 0.40990  0.90420  0.48430  Biso   1.000  O
  O2       1.0000 0.48690  0.00520  0.41010  Biso   1.000  O
  O3       1.0000 0.37520  0.88820  0.68700  Biso   1.000  O
  O4       1.0000 0.22220  0.96580  0.57640  Biso   1.000  O
  O5       1.0000 0.26500  0.78680  0.58150  Biso   1.000  O
  O6       1.0000 0.24250  0.66560  0.49470  Biso   1.000  O
  O7       1.0000 0.06110  0.68230  0.59310  Biso   1.000  O
  O8       1.0000 0.06290  0.77930  0.48950  Biso   1.000  O
  O9       1.0000 0.96400  0.91060  0.58770  Biso   1.000  O
  O10      1.0000 0.01280  0.06780  0.56900  Biso   1.000  O
  O11      1.0000 0.06770  0.99560  0.68230  Biso   1.000  O
  O12      1.0000 0.20900  0.15630  0.67980  Biso   1.000  O
  O13      1.0000 0.09010  0.40420  0.51570  Biso   1.000  O
  O14      1.0000 0.01310  0.50520  0.58990  Biso   1.000  O
  O15      1.0000 0.12480  0.38820  0.31300  Biso   1.000  O
  O16      1.0000 0.27780  0.46580  0.42360  Biso   1.000  O
  O17      1.0000 0.23500  0.28680  0.41850  Biso   1.000  O
  O18      1.0000 0.25750  0.16560  0.50530  Biso   1.000  O
  O19      1.0000 0.43890  0.18230  0.40690  Biso   1.000  O
  O20      1.0000 0.43710  0.27930  0.51050  Biso   1.000  O
  O21      1.0000 0.53600  0.41060  0.41230  Biso   1.000  O
  O22      1.0000 0.48720  0.56780  0.43100  Biso   1.000  O
  O23      1.0000 0.43230  0.49560  0.31770  Biso   1.000  O
  O24      1.0000 0.29100  0.65630  0.32020  Biso   1.000  O
  O25      1.0000 0.59010  0.09580  0.98430  Biso   1.000  O
  O26      1.0000 0.51310  0.99480  0.91010  Biso   1.000  O
  O27      1.0000 0.62480  0.11180  0.18700  Biso   1.000  O
  O28      1.0000 0.77780  0.03420  0.07640  Biso   1.000  O
  O29      1.0000 0.73500  0.21320  0.08150  Biso   1.000  O
  O30      1.0000 0.75750  0.33440  0.99470  Biso   1.000  O
  O31      1.0000 0.93890  0.31770  0.09310  Biso   1.000  O
  O32      1.0000 0.93710  0.22070  0.98950  Biso   1.000  O
  O33      1.0000 0.03600  0.08940  0.08770  Biso   1.000  O
  O34      1.0000 0.98720  0.93220  0.06900  Biso   1.000  O
  O35      1.0000 0.93230  0.00440  0.18230  Biso   1.000  O
  O36      1.0000 0.79100  0.84370  0.17980  Biso   1.000  O
  O37      1.0000 0.90990  0.59580  0.01570  Biso   1.000  O
  O38      1.0000 0.98690  0.49480  0.08990  Biso   1.000  O
  O39      1.0000 0.87520  0.61180  0.81300  Biso   1.000  O
  O40      1.0000 0.72220  0.53420  0.92360  Biso   1.000  O
  O41      1.0000 0.76500  0.71320  0.91850  Biso   1.000  O
  O42      1.0000 0.74250  0.83440  0.00530  Biso   1.000  O
  O43      1.0000 0.56110  0.81770  0.90690  Biso   1.000  O
  O44      1.0000 0.56290  0.72070  0.01050  Biso   1.000  O
  O45      1.0000 0.46400  0.58940  0.91230  Biso   1.000  O
  O46      1.0000 0.51280  0.43220  0.93100  Biso   1.000  O
  O47      1.0000 0.56770  0.50440  0.81770  Biso   1.000  O
  O48      1.0000 0.70900  0.34370  0.82020  Biso   1.000  O
  O49      1.0000 0.59010  0.09580  0.51570  Biso   1.000  O
  O50      1.0000 0.51310  0.99480  0.58990  Biso   1.000  O
  O51      1.0000 0.62480  0.11180  0.31300  Biso   1.000  O
  O52      1.0000 0.77780  0.03420  0.42360  Biso   1.000  O
  O53      1.0000 0.73500  0.21320  0.41850  Biso   1.000  O
  O54      1.0000 0.75750  0.33440  0.50530  Biso   1.000  O
  O55      1.0000 0.93890  0.31770  0.40690  Biso   1.000  O
  O56      1.0000 0.93710  0.22070  0.51050  Biso   1.000  O
  O57      1.0000 0.03600  0.08940  0.41230  Biso   1.000  O
  O58      1.0000 0.98720  0.93220  0.43100  Biso   1.000  O
  O59      1.0000 0.93230  0.00440  0.31770  Biso   1.000  O
  O60      1.0000 0.79100  0.84370  0.32020  Biso   1.000  O
  O61      1.0000 0.90990  0.59580  0.48430  Biso   1.000  O
  O62      1.0000 0.98690  0.49480  0.41010  Biso   1.000  O
  O63      1.0000 0.87520  0.61180  0.68700  Biso   1.000  O
  O64      1.0000 0.72220  0.53420  0.57640  Biso   1.000  O
  O65      1.0000 0.76500  0.71320  0.58150  Biso   1.000  O
  O66      1.0000 0.74250  0.83440  0.49470  Biso   1.000  O
  O67      1.0000 0.56110  0.81770  0.59310  Biso   1.000  O
  O68      1.0000 0.56290  0.72070  0.48950  Biso   1.000  O
  O69      1.0000 0.46400  0.58940  0.58770  Biso   1.000  O
  O70      1.0000 0.51280  0.43220  0.56900  Biso   1.000  O
  O71      1.0000 0.56770  0.50440  0.68230  Biso   1.000  O
  O72      1.0000 0.70900  0.34370  0.67980  Biso   1.000  O
  O73      1.0000 0.40990  0.90420  0.01570  Biso   1.000  O
  O74      1.0000 0.48690  0.00520  0.08990  Biso   1.000  O
  O75      1.0000 0.37520  0.88820  0.81300  Biso   1.000  O
  O76      1.0000 0.22220  0.96580  0.92360  Biso   1.000  O
  O77      1.0000 0.26500  0.78680  0.91850  Biso   1.000  O
  O78      1.0000 0.24250  0.66560  0.00530  Biso   1.000  O
  O79      1.0000 0.06110  0.68230  0.90690  Biso   1.000  O
  O80      1.0000 0.06290  0.77930  0.01050  Biso   1.000  O
  O81      1.0000 0.96400  0.91060  0.91230  Biso   1.000  O
  O82      1.0000 0.01280  0.06780  0.93100  Biso   1.000  O
  O83      1.0000 0.06770  0.99560  0.81770  Biso   1.000  O
  O84      1.0000 0.20900  0.15630  0.82020  Biso   1.000  O
  O85      1.0000 0.09010  0.40420  0.98430  Biso   1.000  O
  O86      1.0000 0.01310  0.50520  0.91010  Biso   1.000  O
  O87      1.0000 0.12480  0.38820  0.18700  Biso   1.000  O
  O88      1.0000 0.27780  0.46580  0.07640  Biso   1.000  O
  O89      1.0000 0.23500  0.28680  0.08150  Biso   1.000  O
  O90      1.0000 0.25750  0.16560  0.99470  Biso   1.000  O
  O91      1.0000 0.43890  0.18230  0.09310  Biso   1.000  O
  O92      1.0000 0.43710  0.27930  0.98950  Biso   1.000  O
  O93      1.0000 0.53600  0.41060  0.08770  Biso   1.000  O
  O94      1.0000 0.48720  0.56780  0.06900  Biso   1.000  O
  O95      1.0000 0.43230  0.49560  0.18230  Biso   1.000  O
  O96      1.0000 0.29100  0.65630  0.17980  Biso   1.000  O
  O97      1.0000 0.95800  0.14020  0.75000  Biso   1.000  O
  O98      1.0000 0.33700  0.02620  0.75000  Biso   1.000  O
  O99      1.0000 0.58300  0.96070  0.75000  Biso   1.000  O
  O100     1.0000 0.54200  0.64020  0.25000  Biso   1.000  O
  O101     1.0000 0.16300  0.52620  0.25000  Biso   1.000  O
  O102     1.0000 0.91700  0.46070  0.25000  Biso   1.000  O
  O103     1.0000 0.04200  0.85980  0.25000  Biso   1.000  O
  O104     1.0000 0.66300  0.97380  0.25000  Biso   1.000  O
  O105     1.0000 0.41700  0.03930  0.25000  Biso   1.000  O
  O106     1.0000 0.45800  0.35980  0.75000  Biso   1.000  O
  O107     1.0000 0.83700  0.47380  0.75000  Biso   1.000  O
  O108     1.0000 0.08300  0.53930  0.75000  Biso   1.000  O
