data_image0
_cell_length_a       16.055
_cell_length_b       17.9369
_cell_length_c       17.9369
_cell_angle_alpha    72.8827
_cell_angle_beta     63.4139
_cell_angle_gamma    63.4138

_symmetry_space_group_name_H-M    P 1
_symmetry_int_tables_number       1

loop_
  _symmetry_equiv_pos_as_xyz
  'x, y, z'

loop_
  _atom_site_label
  _atom_site_occupancy
  _atom_site_fract_x
  _atom_site_fract_y
  _atom_site_fract_z
  _atom_site_thermal_displace_type
  _atom_site_B_iso_or_equiv
  _atom_site_type_symbol
  K1       1.0000 0.25890  0.58838  0.91162  Biso   1.000  K
  K2       1.0000 0.25890  0.91162  0.58838  Biso   1.000  K
  K3       1.0000 0.74110  0.41162  0.08838  Biso   1.000  K
  K4       1.0000 0.74110  0.08838  0.41162  Biso   1.000  K
  Cd1      1.0000 0.12341  0.26738  0.95502  Biso   1.000  Cd
  Cd2      1.0000 0.38761  0.37067  0.82005  Biso   1.000  Cd
  Cd3      1.0000 0.84581  0.23262  0.54498  Biso   1.000  Cd
  Cd4      1.0000 0.07833  0.12933  0.67995  Biso   1.000  Cd
  Cd5      1.0000 0.15419  0.45502  0.76738  Biso   1.000  Cd
  Cd6      1.0000 0.92167  0.32005  0.87067  Biso   1.000  Cd
  Cd7      1.0000 0.87659  0.04498  0.73262  Biso   1.000  Cd
  Cd8      1.0000 0.61239  0.17995  0.62933  Biso   1.000  Cd
  Cd9      1.0000 0.87659  0.73262  0.04498  Biso   1.000  Cd
  Cd10     1.0000 0.61239  0.62933  0.17995  Biso   1.000  Cd
  Cd11     1.0000 0.15419  0.76738  0.45502  Biso   1.000  Cd
  Cd12     1.0000 0.92167  0.87067  0.32005  Biso   1.000  Cd
  Cd13     1.0000 0.84581  0.54498  0.23262  Biso   1.000  Cd
  Cd14     1.0000 0.07833  0.67995  0.12933  Biso   1.000  Cd
  Cd15     1.0000 0.12341  0.95502  0.26738  Biso   1.000  Cd
  Cd16     1.0000 0.38761  0.82005  0.37067  Biso   1.000  Cd
  C1       1.0000 0.10240  0.41570  0.02670  Biso   1.000  C
  C2       1.0000 0.20020  0.39900  0.95520  Biso   1.000  C
  C3       1.0000 0.00130  0.15780  0.09260  Biso   1.000  C
  C4       1.0000 0.92640  0.21700  0.05320  Biso   1.000  C
  C5       1.0000 0.24030  0.81080  0.15100  Biso   1.000  C
  C6       1.0000 0.22700  0.75500  0.12120  Biso   1.000  C
  C7       1.0000 0.32250  0.84010  0.13210  Biso   1.000  C
  C8       1.0000 0.28900  0.69740  0.05400  Biso   1.000  C
  C9       1.0000 0.04480  0.08430  0.47330  Biso   1.000  C
  C10      1.0000 0.05440  0.10100  0.54480  Biso   1.000  C
  C11      1.0000 0.75170  0.34220  0.40740  Biso   1.000  C
  C12      1.0000 0.69660  0.28300  0.44680  Biso   1.000  C
  C13      1.0000 0.70210  0.68920  0.34900  Biso   1.000  C
  C14      1.0000 0.60320  0.74500  0.37880  Biso   1.000  C
  C15      1.0000 0.79470  0.65990  0.36790  Biso   1.000  C
  C16      1.0000 0.54040  0.80260  0.44600  Biso   1.000  C
  C17      1.0000 0.95520  0.52670  0.91570  Biso   1.000  C
  C18      1.0000 0.94560  0.45520  0.89900  Biso   1.000  C
  C19      1.0000 0.24830  0.59260  0.65780  Biso   1.000  C
  C20      1.0000 0.30340  0.55320  0.71700  Biso   1.000  C
  C21      1.0000 0.29790  0.65100  0.31080  Biso   1.000  C
  C22      1.0000 0.39680  0.62120  0.25500  Biso   1.000  C
  C23      1.0000 0.20530  0.63210  0.34010  Biso   1.000  C
  C24      1.0000 0.45960  0.55400  0.19740  Biso   1.000  C
  C25      1.0000 0.89760  0.97330  0.58430  Biso   1.000  C
  C26      1.0000 0.79980  0.04480  0.60100  Biso   1.000  C
  C27      1.0000 0.99870  0.90740  0.84220  Biso   1.000  C
  C28      1.0000 0.07360  0.94680  0.78300  Biso   1.000  C
  C29      1.0000 0.75970  0.84900  0.18920  Biso   1.000  C
  C30      1.0000 0.77300  0.87880  0.24500  Biso   1.000  C
  C31      1.0000 0.67750  0.86790  0.15990  Biso   1.000  C
  C32      1.0000 0.71100  0.94600  0.30260  Biso   1.000  C
  C33      1.0000 0.89760  0.58430  0.97330  Biso   1.000  C
  C34      1.0000 0.79980  0.60100  0.04480  Biso   1.000  C
  C35      1.0000 0.99870  0.84220  0.90740  Biso   1.000  C
  C36      1.0000 0.07360  0.78300  0.94680  Biso   1.000  C
  C37      1.0000 0.75970  0.18920  0.84900  Biso   1.000  C
  C38      1.0000 0.77300  0.24500  0.87880  Biso   1.000  C
  C39      1.0000 0.67750  0.15990  0.86790  Biso   1.000  C
  C40      1.0000 0.71100  0.30260  0.94600  Biso   1.000  C
  C41      1.0000 0.95520  0.91570  0.52670  Biso   1.000  C
  C42      1.0000 0.94560  0.89900  0.45520  Biso   1.000  C
  C43      1.0000 0.24830  0.65780  0.59260  Biso   1.000  C
  C44      1.0000 0.30340  0.71700  0.55320  Biso   1.000  C
  C45      1.0000 0.29790  0.31080  0.65100  Biso   1.000  C
  C46      1.0000 0.39680  0.25500  0.62120  Biso   1.000  C
  C47      1.0000 0.20530  0.34010  0.63210  Biso   1.000  C
  C48      1.0000 0.45960  0.19740  0.55400  Biso   1.000  C
  C49      1.0000 0.04480  0.47330  0.08430  Biso   1.000  C
  C50      1.0000 0.05440  0.54480  0.10100  Biso   1.000  C
  C51      1.0000 0.75170  0.40740  0.34220  Biso   1.000  C
  C52      1.0000 0.69660  0.44680  0.28300  Biso   1.000  C
  C53      1.0000 0.70210  0.34900  0.68920  Biso   1.000  C
  C54      1.0000 0.60320  0.37880  0.74500  Biso   1.000  C
  C55      1.0000 0.79470  0.36790  0.65990  Biso   1.000  C
  C56      1.0000 0.54040  0.44600  0.80260  Biso   1.000  C
  C57      1.0000 0.10240  0.02670  0.41570  Biso   1.000  C
  C58      1.0000 0.20020  0.95520  0.39900  Biso   1.000  C
  C59      1.0000 0.00130  0.09260  0.15780  Biso   1.000  C
  C60      1.0000 0.92640  0.05320  0.21700  Biso   1.000  C
  C61      1.0000 0.24030  0.15100  0.81080  Biso   1.000  C
  C62      1.0000 0.22700  0.12120  0.75500  Biso   1.000  C
  C63      1.0000 0.32250  0.13210  0.84010  Biso   1.000  C
  C64      1.0000 0.28900  0.05400  0.69740  Biso   1.000  C
  N1       1.0000 0.04900  0.36890  0.04090  Biso   1.000  N
  N2       1.0000 0.09150  0.16450  0.06290  Biso   1.000  N
  N3       1.0000 0.15240  0.84440  0.21300  Biso   1.000  N
  N4       1.0000 0.08630  0.81400  0.22180  Biso   1.000  N
  N5       1.0000 0.13130  0.75940  0.16560  Biso   1.000  N
  N6       1.0000 0.95880  0.13110  0.45910  Biso   1.000  N
  N7       1.0000 0.81890  0.33550  0.43710  Biso   1.000  N
  N8       1.0000 0.70980  0.65560  0.28700  Biso   1.000  N
  N9       1.0000 0.62210  0.68600  0.27820  Biso   1.000  N
  N10      1.0000 0.55630  0.74060  0.33440  Biso   1.000  N
  N11      1.0000 0.04120  0.54090  0.86890  Biso   1.000  N
  N12      1.0000 0.18110  0.56290  0.66450  Biso   1.000  N
  N13      1.0000 0.29020  0.71300  0.34440  Biso   1.000  N
  N14      1.0000 0.37790  0.72180  0.31400  Biso   1.000  N
  N15      1.0000 0.44370  0.66560  0.25940  Biso   1.000  N
  N16      1.0000 0.95100  0.95910  0.63110  Biso   1.000  N
  N17      1.0000 0.90850  0.93710  0.83550  Biso   1.000  N
  N18      1.0000 0.84760  0.78700  0.15560  Biso   1.000  N
  N19      1.0000 0.91370  0.77820  0.18600  Biso   1.000  N
  N20      1.0000 0.86870  0.83440  0.24060  Biso   1.000  N
  N21      1.0000 0.95100  0.63110  0.95910  Biso   1.000  N
  N22      1.0000 0.90850  0.83550  0.93710  Biso   1.000  N
  N23      1.0000 0.84760  0.15560  0.78700  Biso   1.000  N
  N24      1.0000 0.91370  0.18600  0.77820  Biso   1.000  N
  N25      1.0000 0.86870  0.24060  0.83440  Biso   1.000  N
  N26      1.0000 0.04120  0.86890  0.54090  Biso   1.000  N
  N27      1.0000 0.18110  0.66450  0.56290  Biso   1.000  N
  N28      1.0000 0.29020  0.34440  0.71300  Biso   1.000  N
  N29      1.0000 0.37790  0.31400  0.72180  Biso   1.000  N
  N30      1.0000 0.44370  0.25940  0.66560  Biso   1.000  N
  N31      1.0000 0.95880  0.45910  0.13110  Biso   1.000  N
  N32      1.0000 0.81890  0.43710  0.33550  Biso   1.000  N
  N33      1.0000 0.70980  0.28700  0.65560  Biso   1.000  N
  N34      1.0000 0.62210  0.27820  0.68600  Biso   1.000  N
  N35      1.0000 0.55630  0.33440  0.74060  Biso   1.000  N
  N36      1.0000 0.04900  0.04090  0.36890  Biso   1.000  N
  N37      1.0000 0.09150  0.06290  0.16450  Biso   1.000  N
  N38      1.0000 0.15240  0.21300  0.84440  Biso   1.000  N
  N39      1.0000 0.08630  0.22180  0.81400  Biso   1.000  N
  N40      1.0000 0.13130  0.16560  0.75940  Biso   1.000  N
  N41      1.0000 0.96090  0.39500  0.10500  Biso   1.000  N
  N42      1.0000 0.96090  0.10500  0.39500  Biso   1.000  N
  N43      1.0000 0.03910  0.60500  0.89500  Biso   1.000  N
  N44      1.0000 0.03910  0.89500  0.60500  Biso   1.000  N
  N45      1.0000 0.14520  0.10670  0.10670  Biso   1.000  N
  N46      1.0000 0.85860  0.39330  0.39330  Biso   1.000  N
  N47      1.0000 0.14140  0.60670  0.60670  Biso   1.000  N
  N48      1.0000 0.85480  0.89330  0.89330  Biso   1.000  N
  O1       1.0000 0.21577  0.35743  0.90043  Biso   1.000  O
  O2       1.0000 0.26345  0.42545  0.94905  Biso   1.000  O
  O3       1.0000 0.95600  0.26780  0.99120  Biso   1.000  O
  O4       1.0000 0.85950  0.19400  0.05880  Biso   1.000  O
  O5       1.0000 0.29770  0.90060  0.16940  Biso   1.000  O
  O6       1.0000 0.40770  0.80330  0.08330  Biso   1.000  O
  O7       1.0000 0.25400  0.64730  0.05530  Biso   1.000  O
  O8       1.0000 0.36850  0.70420  0.00120  Biso   1.000  O
  O9       1.0000 0.41510  0.24310  0.90530  Biso   1.000  O
  O10      1.0000 0.97363  0.14257  0.59957  Biso   1.000  O
  O11      1.0000 0.13795  0.07455  0.55095  Biso   1.000  O
  O12      1.0000 0.71500  0.23220  0.50880  Biso   1.000  O
  O13      1.0000 0.61230  0.30600  0.44120  Biso   1.000  O
  O14      1.0000 0.86770  0.59940  0.33060  Biso   1.000  O
  O15      1.0000 0.79430  0.69670  0.41670  Biso   1.000  O
  O16      1.0000 0.45660  0.85270  0.44470  Biso   1.000  O
  O17      1.0000 0.57390  0.79580  0.49880  Biso   1.000  O
  O18      1.0000 0.06350  0.25690  0.59470  Biso   1.000  O
  O19      1.0000 0.02637  0.40043  0.85743  Biso   1.000  O
  O20      1.0000 0.86205  0.44905  0.92545  Biso   1.000  O
  O21      1.0000 0.28500  0.49120  0.76780  Biso   1.000  O
  O22      1.0000 0.38770  0.55880  0.69400  Biso   1.000  O
  O23      1.0000 0.13230  0.66940  0.40060  Biso   1.000  O
  O24      1.0000 0.20570  0.58330  0.30330  Biso   1.000  O
  O25      1.0000 0.54340  0.55530  0.14730  Biso   1.000  O
  O26      1.0000 0.42610  0.50120  0.20420  Biso   1.000  O
  O27      1.0000 0.93650  0.40530  0.74310  Biso   1.000  O
  O28      1.0000 0.78423  0.09957  0.64257  Biso   1.000  O
  O29      1.0000 0.73655  0.05095  0.57455  Biso   1.000  O
  O30      1.0000 0.04400  0.00880  0.73220  Biso   1.000  O
  O31      1.0000 0.14050  0.94120  0.80600  Biso   1.000  O
  O32      1.0000 0.70230  0.83060  0.09940  Biso   1.000  O
  O33      1.0000 0.59230  0.91670  0.19670  Biso   1.000  O
  O34      1.0000 0.74600  0.94470  0.35270  Biso   1.000  O
  O35      1.0000 0.63150  0.99880  0.29580  Biso   1.000  O
  O36      1.0000 0.58490  0.09470  0.75690  Biso   1.000  O
  O37      1.0000 0.78423  0.64257  0.09957  Biso   1.000  O
  O38      1.0000 0.73655  0.57455  0.05095  Biso   1.000  O
  O39      1.0000 0.04400  0.73220  0.00880  Biso   1.000  O
  O40      1.0000 0.14050  0.80600  0.94120  Biso   1.000  O
  O41      1.0000 0.70230  0.09940  0.83060  Biso   1.000  O
  O42      1.0000 0.59230  0.19670  0.91670  Biso   1.000  O
  O43      1.0000 0.74600  0.35270  0.94470  Biso   1.000  O
  O44      1.0000 0.63150  0.29580  0.99880  Biso   1.000  O
  O45      1.0000 0.58490  0.75690  0.09470  Biso   1.000  O
  O46      1.0000 0.02637  0.85743  0.40043  Biso   1.000  O
  O47      1.0000 0.86205  0.92545  0.44905  Biso   1.000  O
  O48      1.0000 0.28500  0.76780  0.49120  Biso   1.000  O
  O49      1.0000 0.38770  0.69400  0.55880  Biso   1.000  O
  O50      1.0000 0.13230  0.40060  0.66940  Biso   1.000  O
  O51      1.0000 0.20570  0.30330  0.58330  Biso   1.000  O
  O52      1.0000 0.54340  0.14730  0.55530  Biso   1.000  O
  O53      1.0000 0.42610  0.20420  0.50120  Biso   1.000  O
  O54      1.0000 0.93650  0.74310  0.40530  Biso   1.000  O
  O55      1.0000 0.97363  0.59957  0.14257  Biso   1.000  O
  O56      1.0000 0.13795  0.55095  0.07455  Biso   1.000  O
  O57      1.0000 0.71500  0.50880  0.23220  Biso   1.000  O
  O58      1.0000 0.61230  0.44120  0.30600  Biso   1.000  O
  O59      1.0000 0.86770  0.33060  0.59940  Biso   1.000  O
  O60      1.0000 0.79430  0.41670  0.69670  Biso   1.000  O
  O61      1.0000 0.45660  0.44470  0.85270  Biso   1.000  O
  O62      1.0000 0.57390  0.49880  0.79580  Biso   1.000  O
  O63      1.0000 0.06350  0.59470  0.25690  Biso   1.000  O
  O64      1.0000 0.21577  0.90043  0.35743  Biso   1.000  O
  O65      1.0000 0.26345  0.94905  0.42545  Biso   1.000  O
  O66      1.0000 0.95600  0.99120  0.26780  Biso   1.000  O
  O67      1.0000 0.85950  0.05880  0.19400  Biso   1.000  O
  O68      1.0000 0.29770  0.16940  0.90060  Biso   1.000  O
  O69      1.0000 0.40770  0.08330  0.80330  Biso   1.000  O
  O70      1.0000 0.25400  0.05530  0.64730  Biso   1.000  O
  O71      1.0000 0.36850  0.00120  0.70420  Biso   1.000  O
  O72      1.0000 0.41510  0.90530  0.24310  Biso   1.000  O
  O73      1.0000 0.42290  0.64790  0.85210  Biso   1.000  O
  O74      1.0000 0.42290  0.85210  0.64790  Biso   1.000  O
  O75      1.0000 0.57710  0.35210  0.14790  Biso   1.000  O
  O76      1.0000 0.57710  0.14790  0.35210  Biso   1.000  O
