data_PEJMUN_charged
_audit_creation_date              2014-07-02
_audit_creation_method            'Materials Studio'
_symmetry_space_group_name_H-M    'P1'
_symmetry_Int_Tables_number       1
_symmetry_cell_setting            triclinic
loop_
_symmetry_equiv_pos_as_xyz
  x,y,z
_cell_length_a                    21.4638
_cell_length_b                    21.4638
_cell_length_c                    21.4638
_cell_angle_alpha                 109.4710
_cell_angle_beta                  109.4710
_cell_angle_gamma                 109.4710
loop_
_atom_site_label
_atom_site_type_symbol
_atom_site_fract_x
_atom_site_fract_y
_atom_site_fract_z
_atom_site_U_iso_or_equiv
_atom_site_adp_type
_atom_site_occupancy
Cd1    Cd    0.50000   0.50000   0.50000   0.01267  Uiso   1.00
Cd2    Cd    0.50000   0.00000   0.00000   0.01267  Uiso   1.00
Cd3    Cd    0.00000   0.00000   0.50000   0.01267  Uiso   1.00
Cd4    Cd    0.00000   0.50000   0.00000   0.01267  Uiso   1.00
H1     H     0.18500   0.54840   0.38660   0.01267  Uiso   1.00
H2     H     0.12450   0.59950   0.33440   0.01267  Uiso   1.00
H3     H     0.34210   0.42280   0.33830   0.01267  Uiso   1.00
H4     H     0.23030   0.42350   0.28440   0.01267  Uiso   1.00
H5     H     0.29990   0.59230   0.48840   0.01267  Uiso   1.00
H6     H     0.41190   0.59120   0.53430   0.01267  Uiso   1.00
H7     H     0.66180   0.79840   0.11340   0.01267  Uiso   1.00
H8     H     0.76510   0.79010   0.16560   0.01267  Uiso   1.00
H9     H     0.58450   0.00380   0.16170   0.01267  Uiso   1.00
H10    H     0.63910   0.94590   0.21560   0.01267  Uiso   1.00
H11    H     0.60390   0.81150   0.01160   0.01267  Uiso   1.00
H12    H     0.55690   0.87760   0.96570   0.01267  Uiso   1.00
H13    H     0.83820   0.95160   0.13660   0.01267  Uiso   1.00
H14    H     0.73490   0.90050   0.02500   0.01267  Uiso   1.00
H15    H     0.91550   0.07720   0.41930   0.01267  Uiso   1.00
H16    H     0.86090   0.07650   0.30680   0.01267  Uiso   1.00
H17    H     0.89610   0.90770   0.20760   0.01267  Uiso   1.00
H18    H     0.94310   0.90880   0.32070   0.01267  Uiso   1.00
H19    H     0.31500   0.70160   0.36340   0.01267  Uiso   1.00
H20    H     0.37550   0.70990   0.47500   0.01267  Uiso   1.00
H21    H     0.15790   0.49620   0.08070   0.01267  Uiso   1.00
H22    H     0.26970   0.55410   0.19320   0.01267  Uiso   1.00
H23    H     0.20010   0.68850   0.29240   0.01267  Uiso   1.00
H24    H     0.08810   0.62240   0.17930   0.01267  Uiso   1.00
H25    H     0.63660   0.83820   0.45160   0.01267  Uiso   1.00
H26    H     0.52500   0.73490   0.40050   0.01267  Uiso   1.00
H27    H     0.91930   0.91550   0.57720   0.01267  Uiso   1.00
H28    H     0.80680   0.86090   0.57650   0.01267  Uiso   1.00
H29    H     0.70760   0.89610   0.40770   0.01267  Uiso   1.00
H30    H     0.82070   0.94310   0.40880   0.01267  Uiso   1.00
H31    H     0.86340   0.31500   0.20160   0.01267  Uiso   1.00
H32    H     0.97500   0.37550   0.20990   0.01267  Uiso   1.00
H33    H     0.58070   0.15790   0.99620   0.01267  Uiso   1.00
H34    H     0.69320   0.26970   0.05410   0.01267  Uiso   1.00
H35    H     0.79240   0.20010   0.18850   0.01267  Uiso   1.00
H36    H     0.67930   0.08810   0.12240   0.01267  Uiso   1.00
H37    H     0.88660   0.18500   0.04840   0.01267  Uiso   1.00
H38    H     0.83440   0.12450   0.09950   0.01267  Uiso   1.00
H39    H     0.83830   0.34210   0.92280   0.01267  Uiso   1.00
H40    H     0.78440   0.23030   0.92350   0.01267  Uiso   1.00
H41    H     0.98840   0.29990   0.09230   0.01267  Uiso   1.00
H42    H     0.03430   0.41190   0.09120   0.01267  Uiso   1.00
H43    H     0.61340   0.66180   0.29840   0.01267  Uiso   1.00
H44    H     0.66560   0.76510   0.29010   0.01267  Uiso   1.00
H45    H     0.66170   0.58450   0.50380   0.01267  Uiso   1.00
H46    H     0.71560   0.63910   0.44590   0.01267  Uiso   1.00
H47    H     0.51160   0.60390   0.31150   0.01267  Uiso   1.00
H48    H     0.46570   0.55690   0.37760   0.01267  Uiso   1.00
H49    H     0.79840   0.61340   0.16180   0.01267  Uiso   1.00
H50    H     0.79010   0.66560   0.26510   0.01267  Uiso   1.00
H51    H     0.00380   0.66170   0.08450   0.01267  Uiso   1.00
H52    H     0.94590   0.71560   0.13910   0.01267  Uiso   1.00
H53    H     0.81150   0.51160   0.10390   0.01267  Uiso   1.00
H54    H     0.87760   0.46570   0.05690   0.01267  Uiso   1.00
H55    H     0.54840   0.88660   0.68500   0.01267  Uiso   1.00
H56    H     0.59950   0.83440   0.62450   0.01267  Uiso   1.00
H57    H     0.42280   0.83830   0.84210   0.01267  Uiso   1.00
H58    H     0.42350   0.78440   0.73030   0.01267  Uiso   1.00
H59    H     0.59230   0.98840   0.79990   0.01267  Uiso   1.00
H60    H     0.59120   0.03430   0.91190   0.01267  Uiso   1.00
H61    H     0.70160   0.86340   0.81500   0.01267  Uiso   1.00
H62    H     0.70990   0.97500   0.87550   0.01267  Uiso   1.00
H63    H     0.49620   0.58070   0.65790   0.01267  Uiso   1.00
H64    H     0.55410   0.69320   0.76970   0.01267  Uiso   1.00
H65    H     0.68850   0.79240   0.70010   0.01267  Uiso   1.00
H66    H     0.62240   0.67930   0.58810   0.01267  Uiso   1.00
H67    H     0.95160   0.63660   0.33820   0.01267  Uiso   1.00
H68    H     0.90050   0.52500   0.23490   0.01267  Uiso   1.00
H69    H     0.07720   0.91930   0.41550   0.01267  Uiso   1.00
H70    H     0.07650   0.80680   0.36090   0.01267  Uiso   1.00
H71    H     0.90770   0.70760   0.39610   0.01267  Uiso   1.00
H72    H     0.90880   0.82070   0.44310   0.01267  Uiso   1.00
H73    H     0.81500   0.45160   0.61340   0.01267  Uiso   1.00
H74    H     0.87550   0.40050   0.66560   0.01267  Uiso   1.00
H75    H     0.65790   0.57720   0.66170   0.01267  Uiso   1.00
H76    H     0.76970   0.57650   0.71560   0.01267  Uiso   1.00
H77    H     0.70010   0.40770   0.51160   0.01267  Uiso   1.00
H78    H     0.58810   0.40880   0.46570   0.01267  Uiso   1.00
H79    H     0.33820   0.20160   0.88660   0.01267  Uiso   1.00
H80    H     0.23490   0.20990   0.83440   0.01267  Uiso   1.00
H81    H     0.41550   0.99620   0.83830   0.01267  Uiso   1.00
H82    H     0.36090   0.05410   0.78440   0.01267  Uiso   1.00
H83    H     0.39610   0.18850   0.98840   0.01267  Uiso   1.00
H84    H     0.44310   0.12240   0.03430   0.01267  Uiso   1.00
H85    H     0.16180   0.04840   0.86340   0.01267  Uiso   1.00
H86    H     0.26510   0.09950   0.97500   0.01267  Uiso   1.00
H87    H     0.08450   0.92280   0.58070   0.01267  Uiso   1.00
H88    H     0.13910   0.92350   0.69320   0.01267  Uiso   1.00
H89    H     0.10390   0.09230   0.79240   0.01267  Uiso   1.00
H90    H     0.05690   0.09120   0.67930   0.01267  Uiso   1.00
H91    H     0.68500   0.29840   0.63660   0.01267  Uiso   1.00
H92    H     0.62450   0.29010   0.52500   0.01267  Uiso   1.00
H93    H     0.84210   0.50380   0.91930   0.01267  Uiso   1.00
H94    H     0.73030   0.44590   0.80680   0.01267  Uiso   1.00
H95    H     0.79990   0.31150   0.70760   0.01267  Uiso   1.00
H96    H     0.91190   0.37760   0.82070   0.01267  Uiso   1.00
H97    H     0.36340   0.16180   0.54840   0.01267  Uiso   1.00
H98    H     0.47500   0.26510   0.59950   0.01267  Uiso   1.00
H99    H     0.08070   0.08450   0.42280   0.01267  Uiso   1.00
H100   H     0.19320   0.13910   0.42350   0.01267  Uiso   1.00
H101   H     0.29240   0.10390   0.59230   0.01267  Uiso   1.00
H102   H     0.17930   0.05690   0.59120   0.01267  Uiso   1.00
H103   H     0.13660   0.68500   0.79840   0.01267  Uiso   1.00
H104   H     0.02500   0.62450   0.79010   0.01267  Uiso   1.00
H105   H     0.41930   0.84210   0.00380   0.01267  Uiso   1.00
H106   H     0.30680   0.73030   0.94590   0.01267  Uiso   1.00
H107   H     0.20760   0.79990   0.81150   0.01267  Uiso   1.00
H108   H     0.32070   0.91190   0.87760   0.01267  Uiso   1.00
H109   H     0.11340   0.81500   0.95160   0.01267  Uiso   1.00
H110   H     0.16560   0.87550   0.90050   0.01267  Uiso   1.00
H111   H     0.16170   0.65790   0.07720   0.01267  Uiso   1.00
H112   H     0.21560   0.76970   0.07650   0.01267  Uiso   1.00
H113   H     0.01160   0.70010   0.90770   0.01267  Uiso   1.00
H114   H     0.96570   0.58810   0.90880   0.01267  Uiso   1.00
H115   H     0.38660   0.33820   0.70160   0.01267  Uiso   1.00
H116   H     0.33440   0.23490   0.70990   0.01267  Uiso   1.00
H117   H     0.33830   0.41550   0.49620   0.01267  Uiso   1.00
H118   H     0.28440   0.36090   0.55410   0.01267  Uiso   1.00
H119   H     0.48840   0.39610   0.68850   0.01267  Uiso   1.00
H120   H     0.53430   0.44310   0.62240   0.01267  Uiso   1.00
H121   H     0.20160   0.38660   0.83820   0.01267  Uiso   1.00
H122   H     0.20990   0.33440   0.73490   0.01267  Uiso   1.00
H123   H     0.99620   0.33830   0.91550   0.01267  Uiso   1.00
H124   H     0.05410   0.28440   0.86090   0.01267  Uiso   1.00
H125   H     0.18850   0.48840   0.89610   0.01267  Uiso   1.00
H126   H     0.12240   0.53430   0.94310   0.01267  Uiso   1.00
H127   H     0.45160   0.11340   0.31500   0.01267  Uiso   1.00
H128   H     0.40050   0.16560   0.37550   0.01267  Uiso   1.00
H129   H     0.57720   0.16170   0.15790   0.01267  Uiso   1.00
H130   H     0.57650   0.21560   0.26970   0.01267  Uiso   1.00
H131   H     0.40770   0.01160   0.20010   0.01267  Uiso   1.00
H132   H     0.40880   0.96570   0.08810   0.01267  Uiso   1.00
H133   H     0.29840   0.13660   0.18500   0.01267  Uiso   1.00
H134   H     0.29010   0.02500   0.12450   0.01267  Uiso   1.00
H135   H     0.50380   0.41930   0.34210   0.01267  Uiso   1.00
H136   H     0.44590   0.30680   0.23030   0.01267  Uiso   1.00
H137   H     0.31150   0.20760   0.29990   0.01267  Uiso   1.00
H138   H     0.37760   0.32070   0.41190   0.01267  Uiso   1.00
H139   H     0.04840   0.36340   0.66180   0.01267  Uiso   1.00
H140   H     0.09950   0.47500   0.76510   0.01267  Uiso   1.00
H141   H     0.92280   0.08070   0.58450   0.01267  Uiso   1.00
H142   H     0.92350   0.19320   0.63910   0.01267  Uiso   1.00
H143   H     0.09230   0.29240   0.60390   0.01267  Uiso   1.00
H144   H     0.09120   0.17930   0.55690   0.01267  Uiso   1.00
C1     C     0.07430   0.55950   0.30460   0.01267  Uiso   1.00
C2     C     0.05900   0.48440   0.27460   0.01267  Uiso   1.00
C3     C     0.12180   0.46500   0.28560   0.01267  Uiso   1.00
C4     C     0.33380   0.45790   0.36890   0.01267  Uiso   1.00
C5     C     0.26580   0.45720   0.33600   0.01267  Uiso   1.00
C6     C     0.25120   0.50690   0.38050   0.01267  Uiso   1.00
C7     C     0.30740   0.55760   0.45640   0.01267  Uiso   1.00
C8     C     0.37420   0.55580   0.48380   0.01267  Uiso   1.00
C9     C     0.75490   0.76970   0.19540   0.01267  Uiso   1.00
C10    C     0.70980   0.78440   0.22540   0.01267  Uiso   1.00
C11    C     0.67940   0.83620   0.21440   0.01267  Uiso   1.00
C12    C     0.58900   0.96490   0.13110   0.01267  Uiso   1.00
C13    C     0.62120   0.92980   0.16400   0.01267  Uiso   1.00
C14    C     0.62640   0.87070   0.11950   0.01267  Uiso   1.00
C15    C     0.60120   0.85100   0.04360   0.01267  Uiso   1.00
C16    C     0.57200   0.89040   0.01620   0.01267  Uiso   1.00
C17    C     0.74510   0.94050   0.01480   0.01267  Uiso   1.00
C18    C     0.79020   0.01560   0.07460   0.01267  Uiso   1.00
C19    C     0.82060   0.03500   0.15680   0.01267  Uiso   1.00
C20    C     0.91100   0.04210   0.37590   0.01267  Uiso   1.00
C21    C     0.87880   0.04280   0.30860   0.01267  Uiso   1.00
C22    C     0.87360   0.99310   0.24430   0.01267  Uiso   1.00
C23    C     0.89880   0.94240   0.24980   0.01267  Uiso   1.00
C24    C     0.92800   0.94420   0.31840   0.01267  Uiso   1.00
C25    C     0.42570   0.73030   0.48520   0.01267  Uiso   1.00
C26    C     0.44100   0.71560   0.42540   0.01267  Uiso   1.00
C27    C     0.37820   0.66380   0.34320   0.01267  Uiso   1.00
C28    C     0.16620   0.53510   0.12410   0.01267  Uiso   1.00
C29    C     0.23420   0.57020   0.19140   0.01267  Uiso   1.00
C30    C     0.24880   0.62930   0.25570   0.01267  Uiso   1.00
C31    C     0.19260   0.64900   0.25020   0.01267  Uiso   1.00
C32    C     0.12580   0.60960   0.18160   0.01267  Uiso   1.00
C33    C     0.51480   0.74510   0.44050   0.01267  Uiso   1.00
C34    C     0.57460   0.79020   0.51560   0.01267  Uiso   1.00
C35    C     0.65680   0.82060   0.53500   0.01267  Uiso   1.00
C36    C     0.87590   0.91100   0.54210   0.01267  Uiso   1.00
C37    C     0.80860   0.87880   0.54280   0.01267  Uiso   1.00
C38    C     0.74430   0.87360   0.49310   0.01267  Uiso   1.00
C39    C     0.74980   0.89880   0.44240   0.01267  Uiso   1.00
C40    C     0.81840   0.92800   0.44420   0.01267  Uiso   1.00
C41    C     0.98520   0.42570   0.23030   0.01267  Uiso   1.00
C42    C     0.92540   0.44100   0.21560   0.01267  Uiso   1.00
C43    C     0.84320   0.37820   0.16380   0.01267  Uiso   1.00
C44    C     0.62410   0.16620   0.03510   0.01267  Uiso   1.00
C45    C     0.69140   0.23420   0.07020   0.01267  Uiso   1.00
C46    C     0.75570   0.24880   0.12930   0.01267  Uiso   1.00
C47    C     0.75020   0.19260   0.14900   0.01267  Uiso   1.00
C48    C     0.68160   0.12580   0.10960   0.01267  Uiso   1.00
C49    C     0.80460   0.07430   0.05950   0.01267  Uiso   1.00
C50    C     0.77460   0.05900   0.98440   0.01267  Uiso   1.00
C51    C     0.78560   0.12180   0.96500   0.01267  Uiso   1.00
C52    C     0.86890   0.33380   0.95790   0.01267  Uiso   1.00
C53    C     0.83600   0.26580   0.95720   0.01267  Uiso   1.00
C54    C     0.88050   0.25120   0.00690   0.01267  Uiso   1.00
C55    C     0.95640   0.30740   0.05760   0.01267  Uiso   1.00
C56    C     0.98380   0.37420   0.05580   0.01267  Uiso   1.00
C57    C     0.69540   0.75490   0.26970   0.01267  Uiso   1.00
C58    C     0.72540   0.70980   0.28440   0.01267  Uiso   1.00
C59    C     0.71440   0.67940   0.33620   0.01267  Uiso   1.00
C60    C     0.63110   0.58900   0.46490   0.01267  Uiso   1.00
C61    C     0.66400   0.62120   0.42980   0.01267  Uiso   1.00
C62    C     0.61950   0.62640   0.37070   0.01267  Uiso   1.00
C63    C     0.54360   0.60120   0.35100   0.01267  Uiso   1.00
C64    C     0.51620   0.57200   0.39040   0.01267  Uiso   1.00
C65    C     0.76970   0.69540   0.25490   0.01267  Uiso   1.00
C66    C     0.78440   0.72540   0.20980   0.01267  Uiso   1.00
C67    C     0.83620   0.71440   0.17940   0.01267  Uiso   1.00
C68    C     0.96490   0.63110   0.08900   0.01267  Uiso   1.00
C69    C     0.92980   0.66400   0.12120   0.01267  Uiso   1.00
C70    C     0.87070   0.61950   0.12640   0.01267  Uiso   1.00
C71    C     0.85100   0.54360   0.10120   0.01267  Uiso   1.00
C72    C     0.89040   0.51620   0.07200   0.01267  Uiso   1.00
C73    C     0.55950   0.80460   0.57430   0.01267  Uiso   1.00
C74    C     0.48440   0.77460   0.55900   0.01267  Uiso   1.00
C75    C     0.46500   0.78560   0.62180   0.01267  Uiso   1.00
C76    C     0.45790   0.86890   0.83380   0.01267  Uiso   1.00
C77    C     0.45720   0.83600   0.76580   0.01267  Uiso   1.00
C78    C     0.50690   0.88050   0.75120   0.01267  Uiso   1.00
C79    C     0.55760   0.95640   0.80740   0.01267  Uiso   1.00
C80    C     0.55580   0.98380   0.87420   0.01267  Uiso   1.00
C81    C     0.73030   0.98520   0.92570   0.01267  Uiso   1.00
C82    C     0.71560   0.92540   0.94100   0.01267  Uiso   1.00
C83    C     0.66380   0.84320   0.87820   0.01267  Uiso   1.00
C84    C     0.53510   0.62410   0.66620   0.01267  Uiso   1.00
C85    C     0.57020   0.69140   0.73420   0.01267  Uiso   1.00
C86    C     0.62930   0.75570   0.74880   0.01267  Uiso   1.00
C87    C     0.64900   0.75020   0.69260   0.01267  Uiso   1.00
C88    C     0.60960   0.68160   0.62580   0.01267  Uiso   1.00
C89    C     0.94050   0.51480   0.24510   0.01267  Uiso   1.00
C90    C     0.01560   0.57460   0.29020   0.01267  Uiso   1.00
C91    C     0.03500   0.65680   0.32060   0.01267  Uiso   1.00
C92    C     0.04210   0.87590   0.41100   0.01267  Uiso   1.00
C93    C     0.04280   0.80860   0.37880   0.01267  Uiso   1.00
C94    C     0.99310   0.74430   0.37360   0.01267  Uiso   1.00
C95    C     0.94240   0.74980   0.39880   0.01267  Uiso   1.00
C96    C     0.94420   0.81840   0.42800   0.01267  Uiso   1.00
C97    C     0.92570   0.44050   0.69540   0.01267  Uiso   1.00
C98    C     0.94100   0.51560   0.72540   0.01267  Uiso   1.00
C99    C     0.87820   0.53500   0.71440   0.01267  Uiso   1.00
C100   C     0.66620   0.54210   0.63110   0.01267  Uiso   1.00
C101   C     0.73420   0.54280   0.66400   0.01267  Uiso   1.00
C102   C     0.74880   0.49310   0.61950   0.01267  Uiso   1.00
C103   C     0.69260   0.44240   0.54360   0.01267  Uiso   1.00
C104   C     0.62580   0.44420   0.51620   0.01267  Uiso   1.00
C105   C     0.24510   0.23030   0.80460   0.01267  Uiso   1.00
C106   C     0.29020   0.21560   0.77460   0.01267  Uiso   1.00
C107   C     0.32060   0.16380   0.78560   0.01267  Uiso   1.00
C108   C     0.41100   0.03510   0.86890   0.01267  Uiso   1.00
C109   C     0.37880   0.07020   0.83600   0.01267  Uiso   1.00
C110   C     0.37360   0.12930   0.88050   0.01267  Uiso   1.00
C111   C     0.39880   0.14900   0.95640   0.01267  Uiso   1.00
C112   C     0.42800   0.10960   0.98380   0.01267  Uiso   1.00
C113   C     0.25490   0.05950   0.98520   0.01267  Uiso   1.00
C114   C     0.20980   0.98440   0.92540   0.01267  Uiso   1.00
C115   C     0.17940   0.96500   0.84320   0.01267  Uiso   1.00
C116   C     0.08900   0.95790   0.62410   0.01267  Uiso   1.00
C117   C     0.12120   0.95720   0.69140   0.01267  Uiso   1.00
C118   C     0.12640   0.00690   0.75570   0.01267  Uiso   1.00
C119   C     0.10120   0.05760   0.75020   0.01267  Uiso   1.00
C120   C     0.07200   0.05580   0.68160   0.01267  Uiso   1.00
C121   C     0.57430   0.26970   0.51480   0.01267  Uiso   1.00
C122   C     0.55900   0.28440   0.57460   0.01267  Uiso   1.00
C123   C     0.62180   0.33620   0.65680   0.01267  Uiso   1.00
C124   C     0.83380   0.46490   0.87590   0.01267  Uiso   1.00
C125   C     0.76580   0.42980   0.80860   0.01267  Uiso   1.00
C126   C     0.75120   0.37070   0.74430   0.01267  Uiso   1.00
C127   C     0.80740   0.35100   0.74980   0.01267  Uiso   1.00
C128   C     0.87420   0.39040   0.81840   0.01267  Uiso   1.00
C129   C     0.48520   0.25490   0.55950   0.01267  Uiso   1.00
C130   C     0.42540   0.20980   0.48440   0.01267  Uiso   1.00
C131   C     0.34320   0.17940   0.46500   0.01267  Uiso   1.00
C132   C     0.12410   0.08900   0.45790   0.01267  Uiso   1.00
C133   C     0.19140   0.12120   0.45720   0.01267  Uiso   1.00
C134   C     0.25570   0.12640   0.50690   0.01267  Uiso   1.00
C135   C     0.25020   0.10120   0.55760   0.01267  Uiso   1.00
C136   C     0.18160   0.07200   0.55580   0.01267  Uiso   1.00
C137   C     0.01480   0.57430   0.76970   0.01267  Uiso   1.00
C138   C     0.07460   0.55900   0.78440   0.01267  Uiso   1.00
C139   C     0.15680   0.62180   0.83620   0.01267  Uiso   1.00
C140   C     0.37590   0.83380   0.96490   0.01267  Uiso   1.00
C141   C     0.30860   0.76580   0.92980   0.01267  Uiso   1.00
C142   C     0.24430   0.75120   0.87070   0.01267  Uiso   1.00
C143   C     0.24980   0.80740   0.85100   0.01267  Uiso   1.00
C144   C     0.31840   0.87420   0.89040   0.01267  Uiso   1.00
C145   C     0.19540   0.92570   0.94050   0.01267  Uiso   1.00
C146   C     0.22540   0.94100   0.01560   0.01267  Uiso   1.00
C147   C     0.21440   0.87820   0.03500   0.01267  Uiso   1.00
C148   C     0.13110   0.66620   0.04210   0.01267  Uiso   1.00
C149   C     0.16400   0.73420   0.04280   0.01267  Uiso   1.00
C150   C     0.11950   0.74880   0.99310   0.01267  Uiso   1.00
C151   C     0.04360   0.69260   0.94240   0.01267  Uiso   1.00
C152   C     0.01620   0.62580   0.94420   0.01267  Uiso   1.00
C153   C     0.30460   0.24510   0.73030   0.01267  Uiso   1.00
C154   C     0.27460   0.29020   0.71560   0.01267  Uiso   1.00
C155   C     0.28560   0.32060   0.66380   0.01267  Uiso   1.00
C156   C     0.36890   0.41100   0.53510   0.01267  Uiso   1.00
C157   C     0.33600   0.37880   0.57020   0.01267  Uiso   1.00
C158   C     0.38050   0.37360   0.62930   0.01267  Uiso   1.00
C159   C     0.45640   0.39880   0.64900   0.01267  Uiso   1.00
C160   C     0.48380   0.42800   0.60960   0.01267  Uiso   1.00
C161   C     0.23030   0.30460   0.74510   0.01267  Uiso   1.00
C162   C     0.21560   0.27460   0.79020   0.01267  Uiso   1.00
C163   C     0.16380   0.28560   0.82060   0.01267  Uiso   1.00
C164   C     0.03510   0.36890   0.91100   0.01267  Uiso   1.00
C165   C     0.07020   0.33600   0.87880   0.01267  Uiso   1.00
C166   C     0.12930   0.38050   0.87360   0.01267  Uiso   1.00
C167   C     0.14900   0.45640   0.89880   0.01267  Uiso   1.00
C168   C     0.10960   0.48380   0.92800   0.01267  Uiso   1.00
C169   C     0.44050   0.19540   0.42570   0.01267  Uiso   1.00
C170   C     0.51560   0.22540   0.44100   0.01267  Uiso   1.00
C171   C     0.53500   0.21440   0.37820   0.01267  Uiso   1.00
C172   C     0.54210   0.13110   0.16620   0.01267  Uiso   1.00
C173   C     0.54280   0.16400   0.23420   0.01267  Uiso   1.00
C174   C     0.49310   0.11950   0.24880   0.01267  Uiso   1.00
C175   C     0.44240   0.04360   0.19260   0.01267  Uiso   1.00
C176   C     0.44420   0.01620   0.12580   0.01267  Uiso   1.00
C177   C     0.26970   0.01480   0.07430   0.01267  Uiso   1.00
C178   C     0.28440   0.07460   0.05900   0.01267  Uiso   1.00
C179   C     0.33620   0.15680   0.12180   0.01267  Uiso   1.00
C180   C     0.46490   0.37590   0.33380   0.01267  Uiso   1.00
C181   C     0.42980   0.30860   0.26580   0.01267  Uiso   1.00
C182   C     0.37070   0.24430   0.25120   0.01267  Uiso   1.00
C183   C     0.35100   0.24980   0.30740   0.01267  Uiso   1.00
C184   C     0.39040   0.31840   0.37420   0.01267  Uiso   1.00
C185   C     0.05950   0.48520   0.75490   0.01267  Uiso   1.00
C186   C     0.98440   0.42540   0.70980   0.01267  Uiso   1.00
C187   C     0.96500   0.34320   0.67940   0.01267  Uiso   1.00
C188   C     0.95790   0.12410   0.58900   0.01267  Uiso   1.00
C189   C     0.95720   0.19140   0.62120   0.01267  Uiso   1.00
C190   C     0.00690   0.25570   0.62640   0.01267  Uiso   1.00
C191   C     0.05760   0.25020   0.60120   0.01267  Uiso   1.00
C192   C     0.05580   0.18160   0.57200   0.01267  Uiso   1.00
N1     N     0.38793   0.50584   0.44161   0.01267  Uiso   1.00
N2     N     0.18530   0.51150   0.35460   0.01267  Uiso   1.00
N3     N     0.56423   0.94632   0.05839   0.01267  Uiso   1.00
N4     N     0.65690   0.83070   0.14540   0.01267  Uiso   1.00
N5     N     0.93577   0.99416   0.38209   0.01267  Uiso   1.00
N6     N     0.84310   0.98850   0.17380   0.01267  Uiso   1.00
N7     N     0.11207   0.55368   0.11791   0.01267  Uiso   1.00
N8     N     0.31470   0.66930   0.32620   0.01267  Uiso   1.00
N9     N     0.88209   0.93577   0.49416   0.01267  Uiso   1.00
N10    N     0.67380   0.84310   0.48850   0.01267  Uiso   1.00
N11    N     0.61791   0.11207   0.05368   0.01267  Uiso   1.00
N12    N     0.82620   0.31470   0.16930   0.01267  Uiso   1.00
N13    N     0.94161   0.38793   0.00584   0.01267  Uiso   1.00
N14    N     0.85460   0.18530   0.01150   0.01267  Uiso   1.00
N15    N     0.55839   0.56423   0.44632   0.01267  Uiso   1.00
N16    N     0.64540   0.65690   0.33070   0.01267  Uiso   1.00
N17    N     0.94632   0.55839   0.06423   0.01267  Uiso   1.00
N18    N     0.83070   0.64540   0.15690   0.01267  Uiso   1.00
N19    N     0.50584   0.94161   0.88793   0.01267  Uiso   1.00
N20    N     0.51150   0.85460   0.68530   0.01267  Uiso   1.00
N21    N     0.55368   0.61791   0.61207   0.01267  Uiso   1.00
N22    N     0.66930   0.82620   0.81470   0.01267  Uiso   1.00
N23    N     0.99416   0.88209   0.43577   0.01267  Uiso   1.00
N24    N     0.98850   0.67380   0.34310   0.01267  Uiso   1.00
N25    N     0.61207   0.49416   0.55839   0.01267  Uiso   1.00
N26    N     0.81470   0.48850   0.64540   0.01267  Uiso   1.00
N27    N     0.43577   0.05368   0.94161   0.01267  Uiso   1.00
N28    N     0.34310   0.16930   0.85460   0.01267  Uiso   1.00
N29    N     0.06423   0.00584   0.61791   0.01267  Uiso   1.00
N30    N     0.15690   0.01150   0.82620   0.01267  Uiso   1.00
N31    N     0.88793   0.44632   0.88209   0.01267  Uiso   1.00
N32    N     0.68530   0.33070   0.67380   0.01267  Uiso   1.00
N33    N     0.11791   0.06423   0.50584   0.01267  Uiso   1.00
N34    N     0.32620   0.15690   0.51150   0.01267  Uiso   1.00
N35    N     0.38209   0.88793   0.94632   0.01267  Uiso   1.00
N36    N     0.17380   0.68530   0.83070   0.01267  Uiso   1.00
N37    N     0.05839   0.61207   0.99416   0.01267  Uiso   1.00
N38    N     0.14540   0.81470   0.98850   0.01267  Uiso   1.00
N39    N     0.44161   0.43577   0.55368   0.01267  Uiso   1.00
N40    N     0.35460   0.34310   0.66930   0.01267  Uiso   1.00
N41    N     0.05368   0.44161   0.93577   0.01267  Uiso   1.00
N42    N     0.16930   0.35460   0.84310   0.01267  Uiso   1.00
N43    N     0.49416   0.05839   0.11207   0.01267  Uiso   1.00
N44    N     0.48850   0.14540   0.31470   0.01267  Uiso   1.00
N45    N     0.44632   0.38209   0.38793   0.01267  Uiso   1.00
N46    N     0.33070   0.17380   0.18530   0.01267  Uiso   1.00
N47    N     0.00584   0.11791   0.56423   0.01267  Uiso   1.00
N48    N     0.01150   0.32620   0.65690   0.01267  Uiso   1.00
O1     O     0.11350   0.41040   0.23430   0.01267  Uiso   1.00
O2     O     0.67610   0.87920   0.26570   0.01267  Uiso   1.00
O3     O     0.82390   0.08960   0.20310   0.01267  Uiso   1.00
O4     O     0.38650   0.62080   0.29690   0.01267  Uiso   1.00
O5     O     0.70310   0.82390   0.58960   0.01267  Uiso   1.00
O6     O     0.79690   0.38650   0.12080   0.01267  Uiso   1.00
O7     O     0.73430   0.11350   0.91040   0.01267  Uiso   1.00
O8     O     0.76570   0.67610   0.37920   0.01267  Uiso   1.00
O9     O     0.87920   0.76570   0.17610   0.01267  Uiso   1.00
O10    O     0.41040   0.73430   0.61350   0.01267  Uiso   1.00
O11    O     0.62080   0.79690   0.88650   0.01267  Uiso   1.00
O12    O     0.08960   0.70310   0.32390   0.01267  Uiso   1.00
O13    O     0.88650   0.58960   0.76570   0.01267  Uiso   1.00
O14    O     0.32390   0.12080   0.73430   0.01267  Uiso   1.00
O15    O     0.17610   0.91040   0.79690   0.01267  Uiso   1.00
O16    O     0.61350   0.37920   0.70310   0.01267  Uiso   1.00
O17    O     0.29690   0.17610   0.41040   0.01267  Uiso   1.00
O18    O     0.20310   0.61350   0.87920   0.01267  Uiso   1.00
O19    O     0.26570   0.88650   0.08960   0.01267  Uiso   1.00
O20    O     0.23430   0.32390   0.62080   0.01267  Uiso   1.00
O21    O     0.12080   0.23430   0.82390   0.01267  Uiso   1.00
O22    O     0.58960   0.26570   0.38650   0.01267  Uiso   1.00
O23    O     0.37920   0.20310   0.11350   0.01267  Uiso   1.00
O24    O     0.91040   0.29690   0.67610   0.01267  Uiso   1.00
Cl1    Cl    0.18800   0.61910   0.48390   0.01267  Uiso   1.00
Cl2    Cl    0.63520   0.70410   0.01610   0.01267  Uiso   1.00
Cl3    Cl    0.86480   0.88090   0.06890   0.01267  Uiso   1.00
Cl4    Cl    0.31200   0.79590   0.43110   0.01267  Uiso   1.00
Cl5    Cl    0.56890   0.86480   0.38090   0.01267  Uiso   1.00
Cl6    Cl    0.93110   0.31200   0.29590   0.01267  Uiso   1.00
Cl7    Cl    0.98390   0.18800   0.11910   0.01267  Uiso   1.00
Cl8    Cl    0.51610   0.63520   0.20410   0.01267  Uiso   1.00
Cl9    Cl    0.70410   0.51610   0.13520   0.01267  Uiso   1.00
Cl10   Cl    0.61910   0.98390   0.68800   0.01267  Uiso   1.00
Cl11   Cl    0.79590   0.93110   0.81200   0.01267  Uiso   1.00
Cl12   Cl    0.88090   0.56890   0.36480   0.01267  Uiso   1.00
Cl13   Cl    0.81200   0.38090   0.51610   0.01267  Uiso   1.00
Cl14   Cl    0.36480   0.29590   0.98390   0.01267  Uiso   1.00
Cl15   Cl    0.13520   0.11910   0.93110   0.01267  Uiso   1.00
Cl16   Cl    0.68800   0.20410   0.56890   0.01267  Uiso   1.00
Cl17   Cl    0.43110   0.13520   0.61910   0.01267  Uiso   1.00
Cl18   Cl    0.06890   0.68800   0.70410   0.01267  Uiso   1.00
Cl19   Cl    0.01610   0.81200   0.88090   0.01267  Uiso   1.00
Cl20   Cl    0.48390   0.36480   0.79590   0.01267  Uiso   1.00
Cl21   Cl    0.29590   0.48390   0.86480   0.01267  Uiso   1.00
Cl22   Cl    0.38090   0.01610   0.31200   0.01267  Uiso   1.00
Cl23   Cl    0.20410   0.06890   0.18800   0.01267  Uiso   1.00
Cl24   Cl    0.11910   0.43110   0.63520   0.01267  Uiso   1.00
