data_image0
_cell_length_a       16.965
_cell_length_b       15.5171
_cell_length_c       14.0726
_cell_angle_alpha    90
_cell_angle_beta     108.119
_cell_angle_gamma    90

_symmetry_space_group_name_H-M    "P 1"
_symmetry_int_tables_number       1

loop_
  _symmetry_equiv_pos_as_xyz
  'x, y, z'

loop_
  _atom_site_label
  _atom_site_occupancy
  _atom_site_fract_x
  _atom_site_fract_y
  _atom_site_fract_z
  _atom_site_thermal_displace_type
  _atom_site_B_iso_or_equiv
  _atom_site_type_symbol
  Zn1      1.0000 0.51225  0.70437  0.63636  Biso   1.000  Zn
  O1       1.0000 0.48060  0.31930  0.49330  Biso   1.000  O
  O2       1.0000 0.49880  0.19470  0.56770  Biso   1.000  O
  O3       1.0000 0.51010  0.58480  0.67620  Biso   1.000  O
  O4       1.0000 0.40540  0.75400  0.62490  Biso   1.000  O
  O5       1.0000 0.39540  0.76630  0.77790  Biso   1.000  O
  O6       1.0000 0.05560  0.88360  0.36280  Biso   1.000  O
  O7       1.0000 0.17090  0.84070  0.33160  Biso   1.000  O
  O8       1.0000 0.06580  0.97850  0.68750  Biso   1.000  O
  O9       1.0000 0.15380  0.92270  0.82510  Biso   1.000  O
  C1       1.0000 0.49730  0.40690  0.66410  Biso   1.000  C
  H1       1.0000 0.49630  0.43700  0.60650  Biso   1.000  H
  C2       1.0000 0.49590  0.31830  0.66200  Biso   1.000  C
  C3       1.0000 0.49120  0.27230  0.56850  Biso   1.000  C
  C4       1.0000 0.13390  0.89180  0.56310  Biso   1.000  C
  H2       1.0000 0.08330  0.91960  0.53600  Biso   1.000  H
  C5       1.0000 0.17000  0.85460  0.49990  Biso   1.000  C
  C6       1.0000 0.24560  0.81640  0.53960  Biso   1.000  C
  H3       1.0000 0.27090  0.79140  0.49650  Biso   1.000  H
  C7       1.0000 0.28680  0.81360  0.64300  Biso   1.000  C
  C8       1.0000 0.24380  0.85020  0.70550  Biso   1.000  C
  H4       1.0000 0.26700  0.84690  0.77460  Biso   1.000  H
  C9       1.0000 0.16840  0.89060  0.66520  Biso   1.000  C
  C10      1.0000 0.36790  0.77460  0.68500  Biso   1.000  C
  C11      1.0000 0.13130  0.85980  0.39110  Biso   1.000  C
  C12      1.0000 0.12960  0.93430  0.73350  Biso   1.000  C
  Zn2      1.0000 0.48775  0.70437  0.86364  Biso   1.000  Zn
  O10      1.0000 0.51940  0.31930  0.00670  Biso   1.000  O
  O11      1.0000 0.50120  0.19470  0.93230  Biso   1.000  O
  O12      1.0000 0.48990  0.58480  0.82380  Biso   1.000  O
  O13      1.0000 0.59460  0.75400  0.87510  Biso   1.000  O
  O14      1.0000 0.60460  0.76630  0.72210  Biso   1.000  O
  O15      1.0000 0.94440  0.88360  0.13720  Biso   1.000  O
  O16      1.0000 0.82910  0.84070  0.16840  Biso   1.000  O
  O17      1.0000 0.93420  0.97850  0.81250  Biso   1.000  O
  O18      1.0000 0.84620  0.92270  0.67490  Biso   1.000  O
  C13      1.0000 0.50270  0.40690  0.83590  Biso   1.000  C
  H5       1.0000 0.50370  0.43700  0.89350  Biso   1.000  H
  C14      1.0000 0.50410  0.31830  0.83800  Biso   1.000  C
  C15      1.0000 0.50880  0.27230  0.93150  Biso   1.000  C
  C16      1.0000 0.86610  0.89180  0.93690  Biso   1.000  C
  H6       1.0000 0.91670  0.91960  0.96400  Biso   1.000  H
  C17      1.0000 0.83000  0.85460  0.00010  Biso   1.000  C
  C18      1.0000 0.75440  0.81640  0.96040  Biso   1.000  C
  H7       1.0000 0.72910  0.79140  0.00350  Biso   1.000  H
  C19      1.0000 0.71320  0.81360  0.85700  Biso   1.000  C
  C20      1.0000 0.75620  0.85020  0.79450  Biso   1.000  C
  H8       1.0000 0.73300  0.84690  0.72540  Biso   1.000  H
  C21      1.0000 0.83160  0.89060  0.83480  Biso   1.000  C
  C22      1.0000 0.63210  0.77460  0.81500  Biso   1.000  C
  C23      1.0000 0.86870  0.85980  0.10890  Biso   1.000  C
  C24      1.0000 0.87040  0.93430  0.76650  Biso   1.000  C
  Zn3      1.0000 0.48775  0.29563  0.36364  Biso   1.000  Zn
  O19      1.0000 0.51940  0.68070  0.50670  Biso   1.000  O
  O20      1.0000 0.50120  0.80530  0.43230  Biso   1.000  O
  O21      1.0000 0.48990  0.41520  0.32380  Biso   1.000  O
  O22      1.0000 0.59460  0.24600  0.37510  Biso   1.000  O
  O23      1.0000 0.60460  0.23370  0.22210  Biso   1.000  O
  O24      1.0000 0.94440  0.11640  0.63720  Biso   1.000  O
  O25      1.0000 0.82910  0.15930  0.66840  Biso   1.000  O
  O26      1.0000 0.93420  0.02150  0.31250  Biso   1.000  O
  O27      1.0000 0.84620  0.07730  0.17490  Biso   1.000  O
  C25      1.0000 0.50270  0.59310  0.33590  Biso   1.000  C
  H9       1.0000 0.50370  0.56300  0.39350  Biso   1.000  H
  C26      1.0000 0.50410  0.68170  0.33800  Biso   1.000  C
  C27      1.0000 0.50880  0.72770  0.43150  Biso   1.000  C
  C28      1.0000 0.86610  0.10820  0.43690  Biso   1.000  C
  H10      1.0000 0.91670  0.08040  0.46400  Biso   1.000  H
  C29      1.0000 0.83000  0.14540  0.50010  Biso   1.000  C
  C30      1.0000 0.75440  0.18360  0.46040  Biso   1.000  C
  H11      1.0000 0.72910  0.20860  0.50350  Biso   1.000  H
  C31      1.0000 0.71320  0.18640  0.35700  Biso   1.000  C
  C32      1.0000 0.75620  0.14980  0.29450  Biso   1.000  C
  H12      1.0000 0.73300  0.15310  0.22540  Biso   1.000  H
  C33      1.0000 0.83160  0.10940  0.33480  Biso   1.000  C
  C34      1.0000 0.63210  0.22540  0.31500  Biso   1.000  C
  C35      1.0000 0.86870  0.14020  0.60890  Biso   1.000  C
  C36      1.0000 0.87040  0.06570  0.26650  Biso   1.000  C
  Zn4      1.0000 0.51225  0.29563  0.13636  Biso   1.000  Zn
  O28      1.0000 0.48060  0.68070  0.99330  Biso   1.000  O
  O29      1.0000 0.49880  0.80530  0.06770  Biso   1.000  O
  O30      1.0000 0.51010  0.41520  0.17620  Biso   1.000  O
  O31      1.0000 0.40540  0.24600  0.12490  Biso   1.000  O
  O32      1.0000 0.39540  0.23370  0.27790  Biso   1.000  O
  O33      1.0000 0.05560  0.11640  0.86280  Biso   1.000  O
  O34      1.0000 0.17090  0.15930  0.83160  Biso   1.000  O
  O35      1.0000 0.06580  0.02150  0.18750  Biso   1.000  O
  O36      1.0000 0.15380  0.07730  0.32510  Biso   1.000  O
  C37      1.0000 0.49730  0.59310  0.16410  Biso   1.000  C
  H13      1.0000 0.49630  0.56300  0.10650  Biso   1.000  H
  C38      1.0000 0.49590  0.68170  0.16200  Biso   1.000  C
  C39      1.0000 0.49120  0.72770  0.06850  Biso   1.000  C
  C40      1.0000 0.13390  0.10820  0.06310  Biso   1.000  C
  H14      1.0000 0.08330  0.08040  0.03600  Biso   1.000  H
  C41      1.0000 0.17000  0.14540  0.99990  Biso   1.000  C
  C42      1.0000 0.24560  0.18360  0.03960  Biso   1.000  C
  H15      1.0000 0.27090  0.20860  0.99650  Biso   1.000  H
  C43      1.0000 0.28680  0.18640  0.14300  Biso   1.000  C
  C44      1.0000 0.24380  0.14980  0.20550  Biso   1.000  C
  H16      1.0000 0.26700  0.15310  0.27460  Biso   1.000  H
  C45      1.0000 0.16840  0.10940  0.16520  Biso   1.000  C
  C46      1.0000 0.36790  0.22540  0.18500  Biso   1.000  C
  C47      1.0000 0.13130  0.14020  0.89110  Biso   1.000  C
  C48      1.0000 0.12960  0.06570  0.23350  Biso   1.000  C
  Zn5      1.0000 0.00000  0.95650  0.25000  Biso   1.000  Zn
  Zn6      1.0000 0.00000  0.04350  0.75000  Biso   1.000  Zn
  C49      1.0000 0.50000  0.27400  0.75000  Biso   1.000  C
  H17      1.0000 0.50000  0.21400  0.75000  Biso   1.000  H
  C50      1.0000 0.50000  0.45260  0.75000  Biso   1.000  C
  C51      1.0000 0.50000  0.54840  0.75000  Biso   1.000  C
  C52      1.0000 0.50000  0.72600  0.25000  Biso   1.000  C
  H18      1.0000 0.50000  0.78600  0.25000  Biso   1.000  H
  C53      1.0000 0.50000  0.54740  0.25000  Biso   1.000  C
  C54      1.0000 0.50000  0.45160  0.25000  Biso   1.000  C
