data_PEJPIF_charged
_audit_creation_date              2014-07-02
_audit_creation_method            'Materials Studio'
_symmetry_space_group_name_H-M    'P1'
_symmetry_Int_Tables_number       1
_symmetry_cell_setting            triclinic
loop_
_symmetry_equiv_pos_as_xyz
  x,y,z
_cell_length_a                    14.4189
_cell_length_b                    14.5932
_cell_length_c                    18.0571
_cell_angle_alpha                 66.2301
_cell_angle_beta                  66.4682
_cell_angle_gamma                 60.3944
loop_
_atom_site_label
_atom_site_type_symbol
_atom_site_fract_x
_atom_site_fract_y
_atom_site_fract_z
_atom_site_U_iso_or_equiv
_atom_site_adp_type
_atom_site_occupancy
Zn1    Zn    0.55545   0.73808   0.85586   0.01267  Uiso   1.00
Zn2    Zn    0.30298   0.75117   0.47917   0.01267  Uiso   1.00
Zn3    Zn    0.64939   0.76192   0.64414   0.01267  Uiso   1.00
Zn4    Zn    0.03332   0.74883   0.02083   0.01267  Uiso   1.00
Zn5    Zn    0.44455   0.26192   0.14414   0.01267  Uiso   1.00
Zn6    Zn    0.69702   0.24883   0.52083   0.01267  Uiso   1.00
Zn7    Zn    0.35061   0.23808   0.35586   0.01267  Uiso   1.00
Zn8    Zn    0.96668   0.25117   0.97917   0.01267  Uiso   1.00
H1     H     0.94300   0.75840   0.62800   0.01267  Uiso   1.00
H2     H     0.51990   0.48130   0.90110   0.01267  Uiso   1.00
H3     H     0.55890   0.22020   0.85020   0.01267  Uiso   1.00
H4     H     0.64920   0.44970   0.66630   0.01267  Uiso   1.00
H5     H     0.54540   0.56300   0.51340   0.01267  Uiso   1.00
H6     H     0.49760   0.54330   0.61070   0.01267  Uiso   1.00
H7     H     0.41670   0.72610   0.60050   0.01267  Uiso   1.00
H8     H     0.53960   0.70040   0.54760   0.01267  Uiso   1.00
H9     H     0.45050   0.91200   0.45660   0.01267  Uiso   1.00
H10    H     0.34260   0.90580   0.52420   0.01267  Uiso   1.00
H11    H     0.28090   0.03570   0.41470   0.01267  Uiso   1.00
H12    H     0.37500   0.96960   0.35040   0.01267  Uiso   1.00
H13    H     0.55150   0.66110   0.42190   0.01267  Uiso   1.00
H14    H     0.58750   0.75140   0.41240   0.01267  Uiso   1.00
H15    H     0.51180   0.77530   0.35850   0.01267  Uiso   1.00
H16    H     0.82940   0.74160   0.87200   0.01267  Uiso   1.00
H17    H     0.40230   0.01870   0.59890   0.01267  Uiso   1.00
H18    H     0.12930   0.27980   0.64980   0.01267  Uiso   1.00
H19    H     0.26520   0.05030   0.83370   0.01267  Uiso   1.00
H20    H     0.12180   0.93700   0.98660   0.01267  Uiso   1.00
H21    H     0.15160   0.95670   0.88930   0.01267  Uiso   1.00
H22    H     0.24330   0.77390   0.89950   0.01267  Uiso   1.00
H23    H     0.28760   0.79960   0.95240   0.01267  Uiso   1.00
H24    H     0.31910   0.58800   0.04340   0.01267  Uiso   1.00
H25    H     0.27260   0.59420   0.97580   0.01267  Uiso   1.00
H26    H     0.23130   0.46430   0.08530   0.01267  Uiso   1.00
H27    H     0.19500   0.53040   0.14960   0.01267  Uiso   1.00
H28    H     0.13450   0.83890   0.07810   0.01267  Uiso   1.00
H29    H     0.25130   0.74860   0.08760   0.01267  Uiso   1.00
H30    H     0.14560   0.72470   0.14150   0.01267  Uiso   1.00
H31    H     0.05700   0.24160   0.37200   0.01267  Uiso   1.00
H32    H     0.48010   0.51870   0.09890   0.01267  Uiso   1.00
H33    H     0.44110   0.77980   0.14980   0.01267  Uiso   1.00
H34    H     0.35080   0.55030   0.33370   0.01267  Uiso   1.00
H35    H     0.45460   0.43700   0.48660   0.01267  Uiso   1.00
H36    H     0.50240   0.45670   0.38930   0.01267  Uiso   1.00
H37    H     0.58330   0.27390   0.39950   0.01267  Uiso   1.00
H38    H     0.46040   0.29960   0.45240   0.01267  Uiso   1.00
H39    H     0.54950   0.08800   0.54340   0.01267  Uiso   1.00
H40    H     0.65740   0.09420   0.47580   0.01267  Uiso   1.00
H41    H     0.71910   0.96430   0.58530   0.01267  Uiso   1.00
H42    H     0.62500   0.03040   0.64960   0.01267  Uiso   1.00
H43    H     0.44850   0.33890   0.57810   0.01267  Uiso   1.00
H44    H     0.41250   0.24860   0.58760   0.01267  Uiso   1.00
H45    H     0.48820   0.22470   0.64150   0.01267  Uiso   1.00
H46    H     0.17060   0.25840   0.12800   0.01267  Uiso   1.00
H47    H     0.59770   0.98130   0.40110   0.01267  Uiso   1.00
H48    H     0.87070   0.72020   0.35020   0.01267  Uiso   1.00
H49    H     0.73480   0.94970   0.16630   0.01267  Uiso   1.00
H50    H     0.87820   0.06300   0.01340   0.01267  Uiso   1.00
H51    H     0.84840   0.04330   0.11070   0.01267  Uiso   1.00
H52    H     0.75670   0.22610   0.10050   0.01267  Uiso   1.00
H53    H     0.71240   0.20040   0.04760   0.01267  Uiso   1.00
H54    H     0.68090   0.41200   0.95660   0.01267  Uiso   1.00
H55    H     0.72740   0.40580   0.02420   0.01267  Uiso   1.00
H56    H     0.76870   0.53570   0.91470   0.01267  Uiso   1.00
H57    H     0.80500   0.46960   0.85040   0.01267  Uiso   1.00
H58    H     0.86550   0.16110   0.92190   0.01267  Uiso   1.00
H59    H     0.74870   0.25140   0.91240   0.01267  Uiso   1.00
H60    H     0.85440   0.27530   0.85850   0.01267  Uiso   1.00
H61    H     0.12480   0.75000   0.75000   0.01267  Uiso   1.00
H62    H     0.87520   0.25000   0.25000   0.01267  Uiso   1.00
C1     C     0.95120   0.75580   0.67740   0.01267  Uiso   1.00
C2     C     0.04520   0.75780   0.67700   0.01267  Uiso   1.00
C3     C     0.13550   0.76660   0.60180   0.01267  Uiso   1.00
C4     C     0.59690   0.58820   0.75160   0.01267  Uiso   1.00
C5     C     0.58580   0.48180   0.77800   0.01267  Uiso   1.00
C6     C     0.54160   0.44200   0.86320   0.01267  Uiso   1.00
C7     C     0.53070   0.34540   0.89000   0.01267  Uiso   1.00
C8     C     0.56480   0.28690   0.83230   0.01267  Uiso   1.00
C9     C     0.60660   0.32730   0.74990   0.01267  Uiso   1.00
C10    C     0.61870   0.42390   0.72250   0.01267  Uiso   1.00
C11    C     0.49150   0.29730   0.98170   0.01267  Uiso   1.00
C12    C     0.64460   0.26000   0.68940   0.01267  Uiso   1.00
C13    C     0.48290   0.59190   0.55730   0.01267  Uiso   1.00
C14    C     0.46970   0.70250   0.55110   0.01267  Uiso   1.00
C15    C     0.38940   0.89210   0.47050   0.01267  Uiso   1.00
C16    C     0.32460   0.96320   0.40560   0.01267  Uiso   1.00
C17    C     0.52890   0.73800   0.41200   0.01267  Uiso   1.00
C18    C     0.88440   0.74420   0.82260   0.01267  Uiso   1.00
C19    C     0.98000   0.74220   0.82300   0.01267  Uiso   1.00
C20    C     0.00390   0.73340   0.89820   0.01267  Uiso   1.00
C21    C     0.43670   0.91180   0.74840   0.01267  Uiso   1.00
C22    C     0.34560   0.01820   0.72200   0.01267  Uiso   1.00
C23    C     0.34680   0.05800   0.63680   0.01267  Uiso   1.00
C24    C     0.26610   0.15460   0.61000   0.01267  Uiso   1.00
C25    C     0.18400   0.21310   0.66770   0.01267  Uiso   1.00
C26    C     0.18380   0.17270   0.75010   0.01267  Uiso   1.00
C27    C     0.26510   0.07610   0.77750   0.01267  Uiso   1.00
C28    C     0.27050   0.20270   0.51830   0.01267  Uiso   1.00
C29    C     0.09400   0.24000   0.81060   0.01267  Uiso   1.00
C30    C     0.13210   0.90810   0.94270   0.01267  Uiso   1.00
C31    C     0.22330   0.79750   0.94890   0.01267  Uiso   1.00
C32    C     0.25200   0.60790   0.02950   0.01267  Uiso   1.00
C33    C     0.19340   0.53680   0.09440   0.01267  Uiso   1.00
C34    C     0.17890   0.76200   0.08800   0.01267  Uiso   1.00
C35    C     0.04880   0.24420   0.32260   0.01267  Uiso   1.00
C36    C     0.95480   0.24220   0.32300   0.01267  Uiso   1.00
C37    C     0.86450   0.23340   0.39820   0.01267  Uiso   1.00
C38    C     0.40310   0.41180   0.24840   0.01267  Uiso   1.00
C39    C     0.41420   0.51820   0.22200   0.01267  Uiso   1.00
C40    C     0.45840   0.55800   0.13680   0.01267  Uiso   1.00
C41    C     0.46930   0.65460   0.11000   0.01267  Uiso   1.00
C42    C     0.43520   0.71310   0.16770   0.01267  Uiso   1.00
C43    C     0.39340   0.67270   0.25010   0.01267  Uiso   1.00
C44    C     0.38130   0.57610   0.27750   0.01267  Uiso   1.00
C45    C     0.50850   0.70270   0.01830   0.01267  Uiso   1.00
C46    C     0.35540   0.74000   0.31060   0.01267  Uiso   1.00
C47    C     0.51710   0.40810   0.44270   0.01267  Uiso   1.00
C48    C     0.53030   0.29750   0.44890   0.01267  Uiso   1.00
C49    C     0.61060   0.10790   0.52950   0.01267  Uiso   1.00
C50    C     0.67540   0.03680   0.59440   0.01267  Uiso   1.00
C51    C     0.47110   0.26200   0.58800   0.01267  Uiso   1.00
C52    C     0.11560   0.25580   0.17740   0.01267  Uiso   1.00
C53    C     0.02000   0.25780   0.17700   0.01267  Uiso   1.00
C54    C     0.99610   0.26660   0.10180   0.01267  Uiso   1.00
C55    C     0.56330   0.08820   0.25160   0.01267  Uiso   1.00
C56    C     0.65440   0.98180   0.27800   0.01267  Uiso   1.00
C57    C     0.65320   0.94200   0.36320   0.01267  Uiso   1.00
C58    C     0.73390   0.84540   0.39000   0.01267  Uiso   1.00
C59    C     0.81600   0.78690   0.33230   0.01267  Uiso   1.00
C60    C     0.81620   0.82730   0.24990   0.01267  Uiso   1.00
C61    C     0.73490   0.92390   0.22250   0.01267  Uiso   1.00
C62    C     0.72950   0.79730   0.48170   0.01267  Uiso   1.00
C63    C     0.90600   0.76000   0.18940   0.01267  Uiso   1.00
C64    C     0.86790   0.09190   0.05730   0.01267  Uiso   1.00
C65    C     0.77670   0.20250   0.05110   0.01267  Uiso   1.00
C66    C     0.74800   0.39210   0.97050   0.01267  Uiso   1.00
C67    C     0.80660   0.46320   0.90560   0.01267  Uiso   1.00
C68    C     0.82110   0.23800   0.91200   0.01267  Uiso   1.00
C69    C     0.76630   0.75000   0.75000   0.01267  Uiso   1.00
C70    C     0.86750   0.75000   0.75000   0.01267  Uiso   1.00
C71    C     0.06030   0.75000   0.75000   0.01267  Uiso   1.00
C72    C     0.23370   0.25000   0.25000   0.01267  Uiso   1.00
C73    C     0.13250   0.25000   0.25000   0.01267  Uiso   1.00
C74    C     0.93970   0.25000   0.25000   0.01267  Uiso   1.00
N1     N     0.43180   0.77790   0.47710   0.01267  Uiso   1.00
N2     N     0.18680   0.72210   0.02290   0.01267  Uiso   1.00
N3     N     0.56820   0.22210   0.52290   0.01267  Uiso   1.00
N4     N     0.81320   0.27790   0.97710   0.01267  Uiso   1.00
O1     O     0.69450   0.75170   0.81750   0.01267  Uiso   1.00
O2     O     0.14070   0.74620   0.53920   0.01267  Uiso   1.00
O3     O     0.20670   0.79040   0.59900   0.01267  Uiso   1.00
O4     O     0.57454   0.62996   0.80836   0.01267  Uiso   1.00
O5     O     0.63217   0.62650   0.67516   0.01267  Uiso   1.00
O6     O     0.47480   0.34845   0.03055   0.01267  Uiso   1.00
O7     O     0.48260   0.21080   0.00520   0.01267  Uiso   1.00
O8     O     0.66584   0.30656   0.61336   0.01267  Uiso   1.00
O9     O     0.55450   0.22630   0.70270   0.01267  Uiso   1.00
O10    O     0.38990   0.59550   0.55010   0.01267  Uiso   1.00
O11    O     0.25570   0.92020   0.40900   0.01267  Uiso   1.00
O12    O     0.76370   0.74830   0.68250   0.01267  Uiso   1.00
O13    O     0.92610   0.75380   0.96080   0.01267  Uiso   1.00
O14    O     0.09610   0.70960   0.90100   0.01267  Uiso   1.00
O15    O     0.51286   0.87004   0.69164   0.01267  Uiso   1.00
O16    O     0.43383   0.87350   0.82484   0.01267  Uiso   1.00
O17    O     0.35380   0.15155   0.46945   0.01267  Uiso   1.00
O18    O     0.19860   0.28920   0.49480   0.01267  Uiso   1.00
O19    O     0.08576   0.19344   0.88664   0.01267  Uiso   1.00
O20    O     0.98350   0.27370   0.79730   0.01267  Uiso   1.00
O21    O     0.03550   0.90450   0.94990   0.01267  Uiso   1.00
O22    O     0.08490   0.57980   0.09100   0.01267  Uiso   1.00
O23    O     0.30550   0.24830   0.18250   0.01267  Uiso   1.00
O24    O     0.85930   0.25380   0.46080   0.01267  Uiso   1.00
O25    O     0.79330   0.20960   0.40100   0.01267  Uiso   1.00
O26    O     0.42546   0.37004   0.19164   0.01267  Uiso   1.00
O27    O     0.36783   0.37350   0.32484   0.01267  Uiso   1.00
O28    O     0.52520   0.65155   0.96945   0.01267  Uiso   1.00
O29    O     0.51740   0.78920   0.99480   0.01267  Uiso   1.00
O30    O     0.33416   0.69344   0.38664   0.01267  Uiso   1.00
O31    O     0.44550   0.77370   0.29730   0.01267  Uiso   1.00
O32    O     0.61010   0.40450   0.44990   0.01267  Uiso   1.00
O33    O     0.74430   0.07980   0.59100   0.01267  Uiso   1.00
O34    O     0.23630   0.25170   0.31750   0.01267  Uiso   1.00
O35    O     0.07390   0.24620   0.03920   0.01267  Uiso   1.00
O36    O     0.90390   0.29040   0.09900   0.01267  Uiso   1.00
O37    O     0.48714   0.12996   0.30836   0.01267  Uiso   1.00
O38    O     0.56617   0.12650   0.17516   0.01267  Uiso   1.00
O39    O     0.64620   0.84845   0.53055   0.01267  Uiso   1.00
O40    O     0.80140   0.71080   0.50520   0.01267  Uiso   1.00
O41    O     0.91424   0.80656   0.11336   0.01267  Uiso   1.00
O42    O     0.01650   0.72630   0.20270   0.01267  Uiso   1.00
O43    O     0.96450   0.09550   0.05010   0.01267  Uiso   1.00
O44    O     0.91510   0.42020   0.90900   0.01267  Uiso   1.00
