data_image0
_cell_length_a       11.3031
_cell_length_b       24.2334
_cell_length_c       36.079
_cell_angle_alpha    98.213
_cell_angle_beta     90
_cell_angle_gamma    90

_symmetry_space_group_name_H-M    P 1
_symmetry_int_tables_number       1

loop_
  _symmetry_equiv_pos_as_xyz
  'x, y, z'

loop_
  _atom_site_label
  _atom_site_occupancy
  _atom_site_fract_x
  _atom_site_fract_y
  _atom_site_fract_z
  _atom_site_thermal_displace_type
  _atom_site_B_iso_or_equiv
  _atom_site_type_symbol
  Mn1      1.0000 0.12099  0.28415  0.62105  Biso   1.000  Mn
  Mn2      1.0000 0.84453  0.32564  0.65858  Biso   1.000  Mn
  Mn3      1.0000 0.60115  0.69660  0.40289  Biso   1.000  Mn
  Mn4      1.0000 0.62099  0.71585  0.87895  Biso   1.000  Mn
  Mn5      1.0000 0.34453  0.67436  0.84142  Biso   1.000  Mn
  Mn6      1.0000 0.10115  0.30340  0.09711  Biso   1.000  Mn
  Mn7      1.0000 0.87901  0.71585  0.37895  Biso   1.000  Mn
  Mn8      1.0000 0.15547  0.67436  0.34142  Biso   1.000  Mn
  Mn9      1.0000 0.39885  0.30340  0.59711  Biso   1.000  Mn
  Mn10     1.0000 0.37901  0.28415  0.12105  Biso   1.000  Mn
  Mn11     1.0000 0.65547  0.32564  0.15858  Biso   1.000  Mn
  Mn12     1.0000 0.89885  0.69660  0.90289  Biso   1.000  Mn
  H1       1.0000 0.09990  0.27740  0.41320  Biso   1.000  H
  H2       1.0000 0.07440  0.34190  0.42190  Biso   1.000  H
  H3       1.0000 0.90350  0.35320  0.33910  Biso   1.000  H
  H4       1.0000 0.85430  0.34900  0.37930  Biso   1.000  H
  H5       1.0000 0.16760  0.35000  0.36230  Biso   1.000  H
  H6       1.0000 0.18100  0.28530  0.35020  Biso   1.000  H
  H7       1.0000 0.88620  0.24540  0.36540  Biso   1.000  H
  H8       1.0000 0.93430  0.25510  0.32600  Biso   1.000  H
  H9       1.0000 0.75560  0.27530  0.46330  Biso   1.000  H
  H10      1.0000 0.72430  0.28390  0.52600  Biso   1.000  H
  H11      1.0000 0.05800  0.33330  0.54480  Biso   1.000  H
  H12      1.0000 0.08810  0.32590  0.48070  Biso   1.000  H
  H13      1.0000 0.04870  0.50260  0.39630  Biso   1.000  H
  H14      1.0000 0.95090  0.58500  0.39700  Biso   1.000  H
  H15      1.0000 0.65830  0.50250  0.36040  Biso   1.000  H
  H16      1.0000 0.75850  0.41830  0.35890  Biso   1.000  H
  H17      1.0000 0.33350  0.31330  0.31760  Biso   1.000  H
  H18      1.0000 0.46870  0.32260  0.27130  Biso   1.000  H
  H19      1.0000 0.20880  0.35420  0.20250  Biso   1.000  H
  H20      1.0000 0.07290  0.34570  0.24810  Biso   1.000  H
  H21      1.0000 0.93080  0.15100  0.36140  Biso   1.000  H
  H22      1.0000 0.95850  0.15190  0.31890  Biso   1.000  H
  H23      1.0000 0.21580  0.16030  0.37170  Biso   1.000  H
  H24      1.0000 0.24330  0.09590  0.36620  Biso   1.000  H
  H25      1.0000 0.98610  0.05230  0.31230  Biso   1.000  H
  H26      1.0000 0.00120  0.05100  0.35550  Biso   1.000  H
  H27      1.0000 0.22670  0.09760  0.29710  Biso   1.000  H
  H28      1.0000 0.19650  0.16170  0.30510  Biso   1.000  H
  H29      1.0000 0.31780  0.16300  0.42420  Biso   1.000  H
  H30      1.0000 0.36650  0.20540  0.48550  Biso   1.000  H
  H31      1.0000 0.03480  0.18560  0.51760  Biso   1.000  H
  H32      1.0000 0.98620  0.14050  0.45900  Biso   1.000  H
  H33      1.0000 0.28250  0.94070  0.32450  Biso   1.000  H
  H34      1.0000 0.25440  0.84890  0.33140  Biso   1.000  H
  H35      1.0000 0.90810  0.87450  0.34220  Biso   1.000  H
  H36      1.0000 0.93360  0.96520  0.33300  Biso   1.000  H
  H37      1.0000 0.92020  0.14950  0.23260  Biso   1.000  H
  H38      1.0000 0.92690  0.20480  0.18610  Biso   1.000  H
  H39      1.0000 0.27980  0.21180  0.19450  Biso   1.000  H
  H40      1.0000 0.27150  0.16100  0.24470  Biso   1.000  H
  H41      1.0000 0.68470  0.41420  0.63110  Biso   1.000  H
  H42      1.0000 0.59990  0.72260  0.08680  Biso   1.000  H
  H43      1.0000 0.57440  0.65810  0.07810  Biso   1.000  H
  H44      1.0000 0.40350  0.64680  0.16090  Biso   1.000  H
  H45      1.0000 0.35430  0.65100  0.12070  Biso   1.000  H
  H46      1.0000 0.66760  0.65000  0.13770  Biso   1.000  H
  H47      1.0000 0.68100  0.71470  0.14980  Biso   1.000  H
  H48      1.0000 0.38620  0.75460  0.13460  Biso   1.000  H
  H49      1.0000 0.43430  0.74490  0.17400  Biso   1.000  H
  H50      1.0000 0.25560  0.72470  0.03670  Biso   1.000  H
  H51      1.0000 0.22430  0.71610  0.97400  Biso   1.000  H
  H52      1.0000 0.55800  0.66670  0.95520  Biso   1.000  H
  H53      1.0000 0.58810  0.67410  0.01930  Biso   1.000  H
  H54      1.0000 0.54870  0.49740  0.10370  Biso   1.000  H
  H55      1.0000 0.45090  0.41500  0.10300  Biso   1.000  H
  H56      1.0000 0.15830  0.49750  0.13960  Biso   1.000  H
  H57      1.0000 0.25850  0.58170  0.14110  Biso   1.000  H
  H58      1.0000 0.83350  0.68670  0.18240  Biso   1.000  H
  H59      1.0000 0.96870  0.67740  0.22870  Biso   1.000  H
  H60      1.0000 0.70880  0.64580  0.29750  Biso   1.000  H
  H61      1.0000 0.57290  0.65430  0.25190  Biso   1.000  H
  H62      1.0000 0.43080  0.84900  0.13860  Biso   1.000  H
  H63      1.0000 0.45850  0.84810  0.18110  Biso   1.000  H
  H64      1.0000 0.71580  0.83970  0.12830  Biso   1.000  H
  H65      1.0000 0.74330  0.90410  0.13380  Biso   1.000  H
  H66      1.0000 0.48610  0.94770  0.18770  Biso   1.000  H
  H67      1.0000 0.50120  0.94900  0.14450  Biso   1.000  H
  H68      1.0000 0.72670  0.90240  0.20290  Biso   1.000  H
  H69      1.0000 0.69650  0.83830  0.19490  Biso   1.000  H
  H70      1.0000 0.81780  0.83700  0.07580  Biso   1.000  H
  H71      1.0000 0.86650  0.79460  0.01450  Biso   1.000  H
  H72      1.0000 0.53480  0.81440  0.98240  Biso   1.000  H
  H73      1.0000 0.48620  0.85950  0.04100  Biso   1.000  H
  H74      1.0000 0.78250  0.05930  0.17550  Biso   1.000  H
  H75      1.0000 0.75440  0.15110  0.16860  Biso   1.000  H
  H76      1.0000 0.40810  0.12550  0.15780  Biso   1.000  H
  H77      1.0000 0.43360  0.03480  0.16700  Biso   1.000  H
  H78      1.0000 0.42020  0.85050  0.26740  Biso   1.000  H
  H79      1.0000 0.42690  0.79520  0.31390  Biso   1.000  H
  H80      1.0000 0.77980  0.78820  0.30550  Biso   1.000  H
  H81      1.0000 0.77150  0.83900  0.25530  Biso   1.000  H
  H82      1.0000 0.18470  0.58580  0.86890  Biso   1.000  H
  H83      1.0000 0.90010  0.72260  0.58680  Biso   1.000  H
  H84      1.0000 0.92560  0.65810  0.57810  Biso   1.000  H
  H85      1.0000 0.09650  0.64680  0.66090  Biso   1.000  H
  H86      1.0000 0.14570  0.65100  0.62070  Biso   1.000  H
  H87      1.0000 0.83240  0.65000  0.63770  Biso   1.000  H
  H88      1.0000 0.81900  0.71470  0.64980  Biso   1.000  H
  H89      1.0000 0.11380  0.75460  0.63460  Biso   1.000  H
  H90      1.0000 0.06570  0.74490  0.67400  Biso   1.000  H
  H91      1.0000 0.24440  0.72470  0.53670  Biso   1.000  H
  H92      1.0000 0.27570  0.71610  0.47400  Biso   1.000  H
  H93      1.0000 0.94200  0.66670  0.45520  Biso   1.000  H
  H94      1.0000 0.91190  0.67410  0.51930  Biso   1.000  H
  H95      1.0000 0.95130  0.49740  0.60370  Biso   1.000  H
  H96      1.0000 0.04910  0.41500  0.60300  Biso   1.000  H
  H97      1.0000 0.34170  0.49750  0.63960  Biso   1.000  H
  H98      1.0000 0.24150  0.58170  0.64110  Biso   1.000  H
  H99      1.0000 0.66650  0.68670  0.68240  Biso   1.000  H
  H100     1.0000 0.53130  0.67740  0.72870  Biso   1.000  H
  H101     1.0000 0.79120  0.64580  0.79750  Biso   1.000  H
  H102     1.0000 0.92710  0.65430  0.75190  Biso   1.000  H
  H103     1.0000 0.06920  0.84900  0.63860  Biso   1.000  H
  H104     1.0000 0.04150  0.84810  0.68110  Biso   1.000  H
  H105     1.0000 0.78420  0.83970  0.62830  Biso   1.000  H
  H106     1.0000 0.75670  0.90410  0.63380  Biso   1.000  H
  H107     1.0000 0.01390  0.94770  0.68770  Biso   1.000  H
  H108     1.0000 0.99880  0.94900  0.64450  Biso   1.000  H
  H109     1.0000 0.77330  0.90240  0.70290  Biso   1.000  H
  H110     1.0000 0.80350  0.83830  0.69490  Biso   1.000  H
  H111     1.0000 0.68220  0.83700  0.57580  Biso   1.000  H
  H112     1.0000 0.63350  0.79460  0.51450  Biso   1.000  H
  H113     1.0000 0.96520  0.81440  0.48240  Biso   1.000  H
  H114     1.0000 0.01380  0.85950  0.54100  Biso   1.000  H
  H115     1.0000 0.71750  0.05930  0.67550  Biso   1.000  H
  H116     1.0000 0.74560  0.15110  0.66860  Biso   1.000  H
  H117     1.0000 0.09190  0.12550  0.65780  Biso   1.000  H
  H118     1.0000 0.06640  0.03480  0.66700  Biso   1.000  H
  H119     1.0000 0.07980  0.85050  0.76740  Biso   1.000  H
  H120     1.0000 0.07310  0.79520  0.81390  Biso   1.000  H
  H121     1.0000 0.72020  0.78820  0.80550  Biso   1.000  H
  H122     1.0000 0.72850  0.83900  0.75530  Biso   1.000  H
  H123     1.0000 0.31530  0.58580  0.36890  Biso   1.000  H
  H124     1.0000 0.40010  0.27740  0.91320  Biso   1.000  H
  H125     1.0000 0.42560  0.34190  0.92190  Biso   1.000  H
  H126     1.0000 0.59650  0.35320  0.83910  Biso   1.000  H
  H127     1.0000 0.64570  0.34900  0.87930  Biso   1.000  H
  H128     1.0000 0.33240  0.35000  0.86230  Biso   1.000  H
  H129     1.0000 0.31900  0.28530  0.85020  Biso   1.000  H
  H130     1.0000 0.61380  0.24540  0.86540  Biso   1.000  H
  H131     1.0000 0.56570  0.25510  0.82600  Biso   1.000  H
  H132     1.0000 0.74440  0.27530  0.96330  Biso   1.000  H
  H133     1.0000 0.77570  0.28390  0.02600  Biso   1.000  H
  H134     1.0000 0.44200  0.33330  0.04480  Biso   1.000  H
  H135     1.0000 0.41190  0.32590  0.98070  Biso   1.000  H
  H136     1.0000 0.45130  0.50260  0.89630  Biso   1.000  H
  H137     1.0000 0.54910  0.58500  0.89700  Biso   1.000  H
  H138     1.0000 0.84170  0.50250  0.86040  Biso   1.000  H
  H139     1.0000 0.74150  0.41830  0.85890  Biso   1.000  H
  H140     1.0000 0.16650  0.31330  0.81760  Biso   1.000  H
  H141     1.0000 0.03130  0.32260  0.77130  Biso   1.000  H
  H142     1.0000 0.29120  0.35420  0.70250  Biso   1.000  H
  H143     1.0000 0.42710  0.34570  0.74810  Biso   1.000  H
  H144     1.0000 0.56920  0.15100  0.86140  Biso   1.000  H
  H145     1.0000 0.54150  0.15190  0.81890  Biso   1.000  H
  H146     1.0000 0.28420  0.16030  0.87170  Biso   1.000  H
  H147     1.0000 0.25670  0.09590  0.86620  Biso   1.000  H
  H148     1.0000 0.51390  0.05230  0.81230  Biso   1.000  H
  H149     1.0000 0.49880  0.05100  0.85550  Biso   1.000  H
  H150     1.0000 0.27330  0.09760  0.79710  Biso   1.000  H
  H151     1.0000 0.30350  0.16170  0.80510  Biso   1.000  H
  H152     1.0000 0.18220  0.16300  0.92420  Biso   1.000  H
  H153     1.0000 0.13350  0.20540  0.98550  Biso   1.000  H
  H154     1.0000 0.46520  0.18560  0.01760  Biso   1.000  H
  H155     1.0000 0.51380  0.14050  0.95900  Biso   1.000  H
  H156     1.0000 0.21750  0.94070  0.82450  Biso   1.000  H
  H157     1.0000 0.24560  0.84890  0.83140  Biso   1.000  H
  H158     1.0000 0.59190  0.87450  0.84220  Biso   1.000  H
  H159     1.0000 0.56640  0.96520  0.83300  Biso   1.000  H
  H160     1.0000 0.57980  0.14950  0.73260  Biso   1.000  H
  H161     1.0000 0.57310  0.20480  0.68610  Biso   1.000  H
  H162     1.0000 0.22020  0.21180  0.69450  Biso   1.000  H
  H163     1.0000 0.22850  0.16100  0.74470  Biso   1.000  H
  H164     1.0000 0.81530  0.41420  0.13110  Biso   1.000  H
  C1       1.0000 0.01330  0.30750  0.36888  Biso   1.000  C
  C2       1.0000 0.04240  0.30630  0.41064  Biso   1.000  C
  C3       1.0000 0.92540  0.35400  0.36512  Biso   1.000  C
  C4       1.0000 0.12860  0.31690  0.34981  Biso   1.000  C
  C5       1.0000 0.95670  0.25290  0.35166  Biso   1.000  C
  C6       1.0000 0.92470  0.30080  0.46613  Biso   1.000  C
  C7       1.0000 0.81640  0.28760  0.47981  Biso   1.000  C
  C8       1.0000 0.79820  0.29260  0.51710  Biso   1.000  C
  C9       1.0000 0.88780  0.31030  0.54235  Biso   1.000  C
  C10      1.0000 0.99620  0.32210  0.52843  Biso   1.000  C
  C11      1.0000 0.01450  0.31750  0.49001  Biso   1.000  C
  C12      1.0000 0.86540  0.31520  0.58280  Biso   1.000  C
  C13      1.0000 0.91250  0.45240  0.37756  Biso   1.000  C
  C14      1.0000 0.96970  0.50260  0.38910  Biso   1.000  C
  C15      1.0000 0.91110  0.55160  0.38984  Biso   1.000  C
  C16      1.0000 0.79390  0.55230  0.38015  Biso   1.000  C
  C17      1.0000 0.73700  0.50230  0.36792  Biso   1.000  C
  C18      1.0000 0.79690  0.45190  0.36683  Biso   1.000  C
  C19      1.0000 0.72630  0.60520  0.38367  Biso   1.000  C
  C20      1.0000 0.18850  0.32830  0.28757  Biso   1.000  C
  C21      1.0000 0.30820  0.32140  0.29446  Biso   1.000  C
  C22      1.0000 0.38850  0.32670  0.26663  Biso   1.000  C
  C23      1.0000 0.35270  0.33820  0.23153  Biso   1.000  C
  C24      1.0000 0.23410  0.34560  0.22556  Biso   1.000  C
  C25      1.0000 0.15280  0.34050  0.25278  Biso   1.000  C
  C26      1.0000 0.44030  0.34010  0.20096  Biso   1.000  C
  C27      1.0000 0.99180  0.15580  0.34360  Biso   1.000  C
  C28      1.0000 0.09410  0.11500  0.33732  Biso   1.000  C
  C29      1.0000 0.18060  0.12340  0.36970  Biso   1.000  C
  C30      1.0000 0.04250  0.05680  0.33276  Biso   1.000  C
  C31      1.0000 0.16280  0.12450  0.30178  Biso   1.000  C
  C32      1.0000 0.14850  0.14600  0.43650  Biso   1.000  C
  C33      1.0000 0.26140  0.16650  0.44314  Biso   1.000  C
  C34      1.0000 0.28960  0.19330  0.48006  Biso   1.000  C
  C35      1.0000 0.20590  0.20120  0.50721  Biso   1.000  C
  C36      1.0000 0.09230  0.18080  0.49901  Biso   1.000  C
  C37      1.0000 0.06280  0.15360  0.46399  Biso   1.000  C
  C38      1.0000 0.23300  0.23160  0.54496  Biso   1.000  C
  C39      1.0000 0.10880  0.96290  0.32871  Biso   1.000  C
  C40      1.0000 0.20670  0.92740  0.32790  Biso   1.000  C
  C41      1.0000 0.18930  0.87250  0.33230  Biso   1.000  C
  C42      1.0000 0.07990  0.85160  0.33798  Biso   1.000  C
  C43      1.0000 0.98380  0.88760  0.33841  Biso   1.000  C
  C44      1.0000 0.99920  0.94210  0.33330  Biso   1.000  C
  C45      1.0000 0.06390  0.79350  0.34570  Biso   1.000  C
  C46      1.0000 0.09510  0.15030  0.24355  Biso   1.000  C
  C47      1.0000 0.99250  0.16300  0.22551  Biso   1.000  C
  C48      1.0000 0.99660  0.19520  0.19727  Biso   1.000  C
  C49      1.0000 0.10530  0.21360  0.18520  Biso   1.000  C
  C50      1.0000 0.20700  0.20010  0.20261  Biso   1.000  C
  C51      1.0000 0.20240  0.16900  0.23247  Biso   1.000  C
  C52      1.0000 0.10970  0.24760  0.15456  Biso   1.000  C
  C53      1.0000 0.73500  0.43740  0.64660  Biso   1.000  C
  C54      1.0000 0.60850  0.51320  0.63490  Biso   1.000  C
  C55      1.0000 0.78080  0.52990  0.67860  Biso   1.000  C
  C56      1.0000 0.51330  0.69250  0.13112  Biso   1.000  C
  C57      1.0000 0.54240  0.69370  0.08936  Biso   1.000  C
  C58      1.0000 0.42540  0.64600  0.13488  Biso   1.000  C
  C59      1.0000 0.62860  0.68310  0.15019  Biso   1.000  C
  C60      1.0000 0.45670  0.74710  0.14834  Biso   1.000  C
  C61      1.0000 0.42470  0.69920  0.03387  Biso   1.000  C
  C62      1.0000 0.31640  0.71240  0.02019  Biso   1.000  C
  C63      1.0000 0.29820  0.70740  0.98290  Biso   1.000  C
  C64      1.0000 0.38780  0.68970  0.95765  Biso   1.000  C
  C65      1.0000 0.49620  0.67790  0.97157  Biso   1.000  C
  C66      1.0000 0.51450  0.68250  0.00999  Biso   1.000  C
  C67      1.0000 0.36540  0.68480  0.91720  Biso   1.000  C
  C68      1.0000 0.41250  0.54760  0.12244  Biso   1.000  C
  C69      1.0000 0.46970  0.49740  0.11090  Biso   1.000  C
  C70      1.0000 0.41110  0.44840  0.11016  Biso   1.000  C
  C71      1.0000 0.29390  0.44770  0.11985  Biso   1.000  C
  C72      1.0000 0.23700  0.49770  0.13208  Biso   1.000  C
  C73      1.0000 0.29690  0.54810  0.13317  Biso   1.000  C
  C74      1.0000 0.22630  0.39480  0.11633  Biso   1.000  C
  C75      1.0000 0.68850  0.67170  0.21243  Biso   1.000  C
  C76      1.0000 0.80820  0.67860  0.20554  Biso   1.000  C
  C77      1.0000 0.88850  0.67330  0.23337  Biso   1.000  C
  C78      1.0000 0.85270  0.66180  0.26847  Biso   1.000  C
  C79      1.0000 0.73410  0.65440  0.27444  Biso   1.000  C
  C80      1.0000 0.65280  0.65950  0.24722  Biso   1.000  C
  C81      1.0000 0.94030  0.65990  0.29904  Biso   1.000  C
  C82      1.0000 0.49180  0.84420  0.15640  Biso   1.000  C
  C83      1.0000 0.59410  0.88500  0.16268  Biso   1.000  C
  C84      1.0000 0.68060  0.87660  0.13030  Biso   1.000  C
  C85      1.0000 0.54250  0.94320  0.16724  Biso   1.000  C
  C86      1.0000 0.66280  0.87550  0.19822  Biso   1.000  C
  C87      1.0000 0.64850  0.85400  0.06350  Biso   1.000  C
  C88      1.0000 0.76140  0.83350  0.05686  Biso   1.000  C
  C89      1.0000 0.78960  0.80670  0.01994  Biso   1.000  C
  C90      1.0000 0.70590  0.79880  0.99279  Biso   1.000  C
  C91      1.0000 0.59230  0.81920  0.00099  Biso   1.000  C
  C92      1.0000 0.56280  0.84640  0.03601  Biso   1.000  C
  C93      1.0000 0.73300  0.76840  0.95504  Biso   1.000  C
  C94      1.0000 0.60880  0.03710  0.17129  Biso   1.000  C
  C95      1.0000 0.70670  0.07260  0.17210  Biso   1.000  C
  C96      1.0000 0.68930  0.12750  0.16770  Biso   1.000  C
  C97      1.0000 0.57990  0.14840  0.16202  Biso   1.000  C
  C98      1.0000 0.48380  0.11240  0.16159  Biso   1.000  C
  C99      1.0000 0.49920  0.05790  0.16670  Biso   1.000  C
  C100     1.0000 0.56390  0.20650  0.15430  Biso   1.000  C
  C101     1.0000 0.59510  0.84970  0.25645  Biso   1.000  C
  C102     1.0000 0.49250  0.83700  0.27449  Biso   1.000  C
  C103     1.0000 0.49660  0.80480  0.30273  Biso   1.000  C
  C104     1.0000 0.60530  0.78640  0.31480  Biso   1.000  C
  C105     1.0000 0.70700  0.79990  0.29739  Biso   1.000  C
  C106     1.0000 0.70240  0.83100  0.26753  Biso   1.000  C
  C107     1.0000 0.60970  0.75240  0.34544  Biso   1.000  C
  C108     1.0000 0.23500  0.56260  0.85340  Biso   1.000  C
  C109     1.0000 0.10850  0.48680  0.86510  Biso   1.000  C
  C110     1.0000 0.28080  0.47010  0.82140  Biso   1.000  C
  C111     1.0000 0.98670  0.69250  0.63112  Biso   1.000  C
  C112     1.0000 0.95760  0.69370  0.58936  Biso   1.000  C
  C113     1.0000 0.07460  0.64600  0.63488  Biso   1.000  C
  C114     1.0000 0.87140  0.68310  0.65019  Biso   1.000  C
  C115     1.0000 0.04330  0.74710  0.64834  Biso   1.000  C
  C116     1.0000 0.07530  0.69920  0.53387  Biso   1.000  C
  C117     1.0000 0.18360  0.71240  0.52019  Biso   1.000  C
  C118     1.0000 0.20180  0.70740  0.48290  Biso   1.000  C
  C119     1.0000 0.11220  0.68970  0.45765  Biso   1.000  C
  C120     1.0000 0.00380  0.67790  0.47157  Biso   1.000  C
  C121     1.0000 0.98550  0.68250  0.50999  Biso   1.000  C
  C122     1.0000 0.13460  0.68480  0.41720  Biso   1.000  C
  C123     1.0000 0.08750  0.54760  0.62244  Biso   1.000  C
  C124     1.0000 0.03030  0.49740  0.61090  Biso   1.000  C
  C125     1.0000 0.08890  0.44840  0.61016  Biso   1.000  C
  C126     1.0000 0.20610  0.44770  0.61985  Biso   1.000  C
  C127     1.0000 0.26300  0.49770  0.63208  Biso   1.000  C
  C128     1.0000 0.20310  0.54810  0.63317  Biso   1.000  C
  C129     1.0000 0.27370  0.39480  0.61633  Biso   1.000  C
  C130     1.0000 0.81150  0.67170  0.71243  Biso   1.000  C
  C131     1.0000 0.69180  0.67860  0.70554  Biso   1.000  C
  C132     1.0000 0.61150  0.67330  0.73337  Biso   1.000  C
  C133     1.0000 0.64730  0.66180  0.76847  Biso   1.000  C
  C134     1.0000 0.76590  0.65440  0.77444  Biso   1.000  C
  C135     1.0000 0.84720  0.65950  0.74722  Biso   1.000  C
  C136     1.0000 0.55970  0.65990  0.79904  Biso   1.000  C
  C137     1.0000 0.00820  0.84420  0.65640  Biso   1.000  C
  C138     1.0000 0.90590  0.88500  0.66268  Biso   1.000  C
  C139     1.0000 0.81940  0.87660  0.63030  Biso   1.000  C
  C140     1.0000 0.95750  0.94320  0.66724  Biso   1.000  C
  C141     1.0000 0.83720  0.87550  0.69822  Biso   1.000  C
  C142     1.0000 0.85150  0.85400  0.56350  Biso   1.000  C
  C143     1.0000 0.73860  0.83350  0.55686  Biso   1.000  C
  C144     1.0000 0.71040  0.80670  0.51994  Biso   1.000  C
  C145     1.0000 0.79410  0.79880  0.49279  Biso   1.000  C
  C146     1.0000 0.90770  0.81920  0.50099  Biso   1.000  C
  C147     1.0000 0.93720  0.84640  0.53601  Biso   1.000  C
  C148     1.0000 0.76700  0.76840  0.45504  Biso   1.000  C
  C149     1.0000 0.89120  0.03710  0.67129  Biso   1.000  C
  C150     1.0000 0.79330  0.07260  0.67210  Biso   1.000  C
  C151     1.0000 0.81070  0.12750  0.66770  Biso   1.000  C
  C152     1.0000 0.92010  0.14840  0.66202  Biso   1.000  C
  C153     1.0000 0.01620  0.11240  0.66159  Biso   1.000  C
  C154     1.0000 0.00080  0.05790  0.66670  Biso   1.000  C
  C155     1.0000 0.93610  0.20650  0.65430  Biso   1.000  C
  C156     1.0000 0.90490  0.84970  0.75645  Biso   1.000  C
  C157     1.0000 0.00750  0.83700  0.77449  Biso   1.000  C
  C158     1.0000 0.00340  0.80480  0.80273  Biso   1.000  C
  C159     1.0000 0.89470  0.78640  0.81480  Biso   1.000  C
  C160     1.0000 0.79300  0.79990  0.79739  Biso   1.000  C
  C161     1.0000 0.79760  0.83100  0.76753  Biso   1.000  C
  C162     1.0000 0.89030  0.75240  0.84544  Biso   1.000  C
  C163     1.0000 0.26500  0.56260  0.35340  Biso   1.000  C
  C164     1.0000 0.39150  0.48680  0.36510  Biso   1.000  C
  C165     1.0000 0.21920  0.47010  0.32140  Biso   1.000  C
  C166     1.0000 0.48670  0.30750  0.86888  Biso   1.000  C
  C167     1.0000 0.45760  0.30630  0.91064  Biso   1.000  C
  C168     1.0000 0.57460  0.35400  0.86512  Biso   1.000  C
  C169     1.0000 0.37140  0.31690  0.84981  Biso   1.000  C
  C170     1.0000 0.54330  0.25290  0.85166  Biso   1.000  C
  C171     1.0000 0.57530  0.30080  0.96613  Biso   1.000  C
  C172     1.0000 0.68360  0.28760  0.97981  Biso   1.000  C
  C173     1.0000 0.70180  0.29260  0.01710  Biso   1.000  C
  C174     1.0000 0.61220  0.31030  0.04235  Biso   1.000  C
  C175     1.0000 0.50380  0.32210  0.02843  Biso   1.000  C
  C176     1.0000 0.48550  0.31750  0.99001  Biso   1.000  C
  C177     1.0000 0.63460  0.31520  0.08280  Biso   1.000  C
  C178     1.0000 0.58750  0.45240  0.87756  Biso   1.000  C
  C179     1.0000 0.53030  0.50260  0.88910  Biso   1.000  C
  C180     1.0000 0.58890  0.55160  0.88984  Biso   1.000  C
  C181     1.0000 0.70610  0.55230  0.88015  Biso   1.000  C
  C182     1.0000 0.76300  0.50230  0.86792  Biso   1.000  C
  C183     1.0000 0.70310  0.45190  0.86683  Biso   1.000  C
  C184     1.0000 0.77370  0.60520  0.88367  Biso   1.000  C
  C185     1.0000 0.31150  0.32830  0.78757  Biso   1.000  C
  C186     1.0000 0.19180  0.32140  0.79446  Biso   1.000  C
  C187     1.0000 0.11150  0.32670  0.76663  Biso   1.000  C
  C188     1.0000 0.14730  0.33820  0.73153  Biso   1.000  C
  C189     1.0000 0.26590  0.34560  0.72556  Biso   1.000  C
  C190     1.0000 0.34720  0.34050  0.75278  Biso   1.000  C
  C191     1.0000 0.05970  0.34010  0.70096  Biso   1.000  C
  C192     1.0000 0.50820  0.15580  0.84360  Biso   1.000  C
  C193     1.0000 0.40590  0.11500  0.83732  Biso   1.000  C
  C194     1.0000 0.31940  0.12340  0.86970  Biso   1.000  C
  C195     1.0000 0.45750  0.05680  0.83276  Biso   1.000  C
  C196     1.0000 0.33720  0.12450  0.80178  Biso   1.000  C
  C197     1.0000 0.35150  0.14600  0.93650  Biso   1.000  C
  C198     1.0000 0.23860  0.16650  0.94314  Biso   1.000  C
  C199     1.0000 0.21040  0.19330  0.98006  Biso   1.000  C
  C200     1.0000 0.29410  0.20120  0.00721  Biso   1.000  C
  C201     1.0000 0.40770  0.18080  0.99901  Biso   1.000  C
  C202     1.0000 0.43720  0.15360  0.96399  Biso   1.000  C
  C203     1.0000 0.26700  0.23160  0.04496  Biso   1.000  C
  C204     1.0000 0.39120  0.96290  0.82871  Biso   1.000  C
  C205     1.0000 0.29330  0.92740  0.82790  Biso   1.000  C
  C206     1.0000 0.31070  0.87250  0.83230  Biso   1.000  C
  C207     1.0000 0.42010  0.85160  0.83798  Biso   1.000  C
  C208     1.0000 0.51620  0.88760  0.83841  Biso   1.000  C
  C209     1.0000 0.50080  0.94210  0.83330  Biso   1.000  C
  C210     1.0000 0.43610  0.79350  0.84570  Biso   1.000  C
  C211     1.0000 0.40490  0.15030  0.74355  Biso   1.000  C
  C212     1.0000 0.50750  0.16300  0.72551  Biso   1.000  C
  C213     1.0000 0.50340  0.19520  0.69727  Biso   1.000  C
  C214     1.0000 0.39470  0.21360  0.68520  Biso   1.000  C
  C215     1.0000 0.29300  0.20010  0.70261  Biso   1.000  C
  C216     1.0000 0.29760  0.16900  0.73247  Biso   1.000  C
  C217     1.0000 0.39030  0.24760  0.65456  Biso   1.000  C
  C218     1.0000 0.76500  0.43740  0.14660  Biso   1.000  C
  C219     1.0000 0.89150  0.51320  0.13490  Biso   1.000  C
  C220     1.0000 0.71920  0.52990  0.17860  Biso   1.000  C
  N1       1.0000 0.71010  0.49070  0.65229  Biso   1.000  N
  N2       1.0000 0.21010  0.50930  0.84771  Biso   1.000  N
  N3       1.0000 0.28990  0.50930  0.34771  Biso   1.000  N
  N4       1.0000 0.78990  0.49070  0.15229  Biso   1.000  N
  O1       1.0000 0.04050  0.20996  0.35247  Biso   1.000  O
  O2       1.0000 0.66670  0.32454  0.68021  Biso   1.000  O
  O3       1.0000 0.93220  0.29500  0.42789  Biso   1.000  O
  O4       1.0000 0.45210  0.66790  0.42887  Biso   1.000  O
  O5       1.0000 0.97890  0.40543  0.37870  Biso   1.000  O
  O6       1.0000 0.10010  0.32373  0.31209  Biso   1.000  O
  O7       1.0000 0.95380  0.31951  0.60558  Biso   1.000  O
  O8       1.0000 0.76370  0.31613  0.59583  Biso   1.000  O
  O9       1.0000 0.62300  0.60661  0.37135  Biso   1.000  O
  O10      1.0000 0.77280  0.64973  0.40185  Biso   1.000  O
  O11      1.0000 0.54980  0.33666  0.20802  Biso   1.000  O
  O12      1.0000 0.40110  0.34514  0.16885  Biso   1.000  O
  O13      1.0000 0.11280  0.11826  0.40278  Biso   1.000  O
  O14      1.0000 0.13500  0.01713  0.32528  Biso   1.000  O
  O15      1.0000 0.08190  0.11819  0.27117  Biso   1.000  O
  O16      1.0000 0.15150  0.23524  0.56908  Biso   1.000  O
  O17      1.0000 0.33400  0.25120  0.55082  Biso   1.000  O
  O18      1.0000 0.15340  0.76221  0.34324  Biso   1.000  O
  O19      1.0000 0.96110  0.77857  0.35319  Biso   1.000  O
  O20      1.0000 0.20620  0.25730  0.14018  Biso   1.000  O
  O21      1.0000 0.01540  0.26612  0.14151  Biso   1.000  O
  O22      1.0000 0.82030  0.41539  0.66046  Biso   1.000  O
  O23      1.0000 0.54050  0.79004  0.14753  Biso   1.000  O
  O24      1.0000 0.16670  0.67546  0.81979  Biso   1.000  O
  O25      1.0000 0.43220  0.70500  0.07211  Biso   1.000  O
  O26      1.0000 0.95210  0.33210  0.07113  Biso   1.000  O
  O27      1.0000 0.47890  0.59457  0.12130  Biso   1.000  O
  O28      1.0000 0.60010  0.67627  0.18791  Biso   1.000  O
  O29      1.0000 0.45380  0.68049  0.89442  Biso   1.000  O
  O30      1.0000 0.26370  0.68387  0.90417  Biso   1.000  O
  O31      1.0000 0.12300  0.39339  0.12865  Biso   1.000  O
  O32      1.0000 0.27280  0.35027  0.09815  Biso   1.000  O
  O33      1.0000 0.04980  0.66334  0.29198  Biso   1.000  O
  O34      1.0000 0.90110  0.65486  0.33115  Biso   1.000  O
  O35      1.0000 0.61280  0.88174  0.09722  Biso   1.000  O
  O36      1.0000 0.63500  0.98287  0.17472  Biso   1.000  O
  O37      1.0000 0.58190  0.88181  0.22883  Biso   1.000  O
  O38      1.0000 0.65150  0.76476  0.93092  Biso   1.000  O
  O39      1.0000 0.83400  0.74880  0.94918  Biso   1.000  O
  O40      1.0000 0.65340  0.23779  0.15676  Biso   1.000  O
  O41      1.0000 0.46110  0.22143  0.14681  Biso   1.000  O
  O42      1.0000 0.70620  0.74270  0.35982  Biso   1.000  O
  O43      1.0000 0.51540  0.73388  0.35849  Biso   1.000  O
  O44      1.0000 0.32030  0.58461  0.83954  Biso   1.000  O
  O45      1.0000 0.95950  0.79004  0.64753  Biso   1.000  O
  O46      1.0000 0.33330  0.67546  0.31979  Biso   1.000  O
  O47      1.0000 0.06780  0.70500  0.57211  Biso   1.000  O
  O48      1.0000 0.54790  0.33210  0.57113  Biso   1.000  O
  O49      1.0000 0.02110  0.59457  0.62130  Biso   1.000  O
  O50      1.0000 0.89990  0.67627  0.68791  Biso   1.000  O
  O51      1.0000 0.04620  0.68049  0.39442  Biso   1.000  O
  O52      1.0000 0.23630  0.68387  0.40417  Biso   1.000  O
  O53      1.0000 0.37700  0.39339  0.62865  Biso   1.000  O
  O54      1.0000 0.22720  0.35027  0.59815  Biso   1.000  O
  O55      1.0000 0.45020  0.66334  0.79198  Biso   1.000  O
  O56      1.0000 0.59890  0.65486  0.83115  Biso   1.000  O
  O57      1.0000 0.88720  0.88174  0.59722  Biso   1.000  O
  O58      1.0000 0.86500  0.98287  0.67472  Biso   1.000  O
  O59      1.0000 0.91810  0.88181  0.72883  Biso   1.000  O
  O60      1.0000 0.84850  0.76476  0.43092  Biso   1.000  O
  O61      1.0000 0.66600  0.74880  0.44918  Biso   1.000  O
  O62      1.0000 0.84660  0.23779  0.65676  Biso   1.000  O
  O63      1.0000 0.03890  0.22143  0.64681  Biso   1.000  O
  O64      1.0000 0.79380  0.74270  0.85982  Biso   1.000  O
  O65      1.0000 0.98460  0.73388  0.85849  Biso   1.000  O
  O66      1.0000 0.17970  0.58461  0.33954  Biso   1.000  O
  O67      1.0000 0.45950  0.20996  0.85247  Biso   1.000  O
  O68      1.0000 0.83330  0.32454  0.18021  Biso   1.000  O
  O69      1.0000 0.56780  0.29500  0.92789  Biso   1.000  O
  O70      1.0000 0.04790  0.66790  0.92887  Biso   1.000  O
  O71      1.0000 0.52110  0.40543  0.87870  Biso   1.000  O
  O72      1.0000 0.39990  0.32373  0.81209  Biso   1.000  O
  O73      1.0000 0.54620  0.31951  0.10558  Biso   1.000  O
  O74      1.0000 0.73630  0.31613  0.09583  Biso   1.000  O
  O75      1.0000 0.87700  0.60661  0.87135  Biso   1.000  O
  O76      1.0000 0.72720  0.64973  0.90185  Biso   1.000  O
  O77      1.0000 0.95020  0.33666  0.70802  Biso   1.000  O
  O78      1.0000 0.09890  0.34514  0.66885  Biso   1.000  O
  O79      1.0000 0.38720  0.11826  0.90278  Biso   1.000  O
  O80      1.0000 0.36500  0.01713  0.82528  Biso   1.000  O
  O81      1.0000 0.41810  0.11819  0.77117  Biso   1.000  O
  O82      1.0000 0.34850  0.23524  0.06908  Biso   1.000  O
  O83      1.0000 0.16600  0.25120  0.05082  Biso   1.000  O
  O84      1.0000 0.34660  0.76221  0.84324  Biso   1.000  O
  O85      1.0000 0.53890  0.77857  0.85319  Biso   1.000  O
  O86      1.0000 0.29380  0.25730  0.64018  Biso   1.000  O
  O87      1.0000 0.48460  0.26612  0.64151  Biso   1.000  O
  O88      1.0000 0.67970  0.41539  0.16046  Biso   1.000  O
