data_image0
_cell_length_a       10.3733
_cell_length_b       14.1908
_cell_length_c       34.2152
_cell_angle_alpha    78.3007
_cell_angle_beta     81.281
_cell_angle_gamma    68.562

_symmetry_space_group_name_H-M    P 1
_symmetry_int_tables_number       1

loop_
  _symmetry_equiv_pos_as_xyz
  'x, y, z'

loop_
  _atom_site_label
  _atom_site_occupancy
  _atom_site_fract_x
  _atom_site_fract_y
  _atom_site_fract_z
  _atom_site_thermal_displace_type
  _atom_site_B_iso_or_equiv
  _atom_site_type_symbol
  Mn1      1.0000 0.39962  0.82683  0.83793  Biso   1.000  Mn
  Mn2      1.0000 0.02523  0.94114  0.85526  Biso   1.000  Mn
  Mn3      1.0000 0.77482  0.71320  0.81838  Biso   1.000  Mn
  Mn4      1.0000 0.93562  0.32683  0.33793  Biso   1.000  Mn
  Mn5      1.0000 0.17837  0.44114  0.35526  Biso   1.000  Mn
  Mn6      1.0000 0.69360  0.21320  0.31838  Biso   1.000  Mn
  H1       1.0000 0.73910  0.80130  0.11730  Biso   1.000  H
  H2       1.0000 0.65850  0.81780  0.15960  Biso   1.000  H
  H3       1.0000 0.46990  0.80860  0.08260  Biso   1.000  H
  H4       1.0000 0.42180  0.92540  0.06360  Biso   1.000  H
  H5       1.0000 0.59040  0.00580  0.12680  Biso   1.000  H
  H6       1.0000 0.65550  0.97600  0.08460  Biso   1.000  H
  H7       1.0000 0.32190  0.96920  0.12920  Biso   1.000  H
  H8       1.0000 0.37500  0.85400  0.15020  Biso   1.000  H
  H9       1.0000 0.78540  0.67790  0.19470  Biso   1.000  H
  H10      1.0000 0.81660  0.54480  0.24880  Biso   1.000  H
  H11      1.0000 0.55100  0.44990  0.20910  Biso   1.000  H
  H12      1.0000 0.52120  0.57940  0.15420  Biso   1.000  H
  H13      1.0000 0.42150  0.82370  0.01610  Biso   1.000  H
  H14      1.0000 0.43640  0.78920  0.95120  Biso   1.000  H
  H15      1.0000 0.81760  0.80840  0.92960  Biso   1.000  H
  H16      1.0000 0.80720  0.83470  0.99430  Biso   1.000  H
  H17      1.0000 0.44270  0.04090  0.22710  Biso   1.000  H
  H18      1.0000 0.27000  0.12560  0.27240  Biso   1.000  H
  H19      1.0000 0.99110  0.05080  0.22780  Biso   1.000  H
  H20      1.0000 0.16230  0.96830  0.18170  Biso   1.000  H
  H21      1.0000 0.18280  0.27580  0.03140  Biso   1.000  H
  H22      1.0000 0.24490  0.16110  0.05270  Biso   1.000  H
  H23      1.0000 0.43960  0.32490  0.01410  Biso   1.000  H
  H24      1.0000 0.44640  0.35950  0.05450  Biso   1.000  H
  H25      1.0000 0.24450  0.21780  0.11640  Biso   1.000  H
  H26      1.0000 0.17650  0.33170  0.09550  Biso   1.000  H
  H27      1.0000 0.53270  0.17880  0.09180  Biso   1.000  H
  H28      1.0000 0.54920  0.15190  0.04850  Biso   1.000  H
  H29      1.0000 0.11510  0.17010  0.99770  Biso   1.000  H
  H30      1.0000 0.07040  0.09440  0.94960  Biso   1.000  H
  H31      1.0000 0.46300  0.03040  0.90200  Biso   1.000  H
  H32      1.0000 0.50520  0.11280  0.94700  Biso   1.000  H
  H33      1.0000 0.44790  0.47500  0.98100  Biso   1.000  H
  H34      1.0000 0.40750  0.60890  0.92670  Biso   1.000  H
  H35      1.0000 0.00090  0.69380  0.96040  Biso   1.000  H
  H36      1.0000 0.04060  0.55580  0.01200  Biso   1.000  H
  H37      1.0000 0.09520  0.32410  0.16550  Biso   1.000  H
  H38      1.0000 0.03100  0.35960  0.22960  Biso   1.000  H
  H39      1.0000 0.41690  0.35270  0.23850  Biso   1.000  H
  H40      1.0000 0.47730  0.32810  0.17250  Biso   1.000  H
  H41      1.0000 0.87230  0.59050  0.90050  Biso   1.000  H
  H42      1.0000 0.97330  0.47860  0.95540  Biso   1.000  H
  H43      1.0000 0.96410  0.36920  0.95940  Biso   1.000  H
  H44      1.0000 0.10150  0.38900  0.94080  Biso   1.000  H
  H45      1.0000 0.94830  0.38610  0.85670  Biso   1.000  H
  H46      1.0000 0.08400  0.32810  0.87890  Biso   1.000  H
  H47      1.0000 0.94420  0.31190  0.89730  Biso   1.000  H
  H48      1.0000 0.88570  0.05850  0.77710  Biso   1.000  H
  H49      1.0000 0.76850  0.15660  0.72720  Biso   1.000  H
  H50      1.0000 0.66970  0.26340  0.73780  Biso   1.000  H
  H51      1.0000 0.80600  0.25520  0.70960  Biso   1.000  H
  H52      1.0000 0.89980  0.26910  0.80290  Biso   1.000  H
  H53      1.0000 0.88890  0.32850  0.75890  Biso   1.000  H
  H54      1.0000 0.75360  0.33480  0.78740  Biso   1.000  H
  H55      1.0000 0.34230  0.30130  0.61730  Biso   1.000  H
  H56      1.0000 0.36410  0.31780  0.65960  Biso   1.000  H
  H57      1.0000 0.63890  0.30860  0.58260  Biso   1.000  H
  H58      1.0000 0.58920  0.42540  0.56360  Biso   1.000  H
  H59      1.0000 0.27700  0.50580  0.62680  Biso   1.000  H
  H60      1.0000 0.28390  0.47600  0.58460  Biso   1.000  H
  H61      1.0000 0.57970  0.46920  0.62920  Biso   1.000  H
  H62      1.0000 0.62080  0.35400  0.65020  Biso   1.000  H
  H63      1.0000 0.34200  0.17790  0.69470  Biso   1.000  H
  H64      1.0000 0.38980  0.04480  0.74880  Biso   1.000  H
  H65      1.0000 0.79000  0.94990  0.70910  Biso   1.000  H
  H66      1.0000 0.74520  0.07940  0.65420  Biso   1.000  H
  H67      1.0000 0.73870  0.32370  0.51610  Biso   1.000  H
  H68      1.0000 0.82320  0.28920  0.45120  Biso   1.000  H
  H69      1.0000 0.44440  0.30840  0.42960  Biso   1.000  H
  H70      1.0000 0.36380  0.33470  0.49430  Biso   1.000  H
  H71      1.0000 0.28930  0.54090  0.72710  Biso   1.000  H
  H72      1.0000 0.33200  0.62560  0.77240  Biso   1.000  H
  H73      1.0000 0.73030  0.55080  0.72780  Biso   1.000  H
  H74      1.0000 0.68770  0.46830  0.68170  Biso   1.000  H
  H75      1.0000 0.51000  0.77580  0.53140  Biso   1.000  H
  H76      1.0000 0.54130  0.66110  0.55270  Biso   1.000  H
  H77      1.0000 0.22140  0.82490  0.51410  Biso   1.000  H
  H78      1.0000 0.13960  0.85950  0.55450  Biso   1.000  H
  H79      1.0000 0.42130  0.71780  0.61640  Biso   1.000  H
  H80      1.0000 0.39630  0.83170  0.59550  Biso   1.000  H
  H81      1.0000 0.19670  0.67880  0.59180  Biso   1.000  H
  H82      1.0000 0.25040  0.65190  0.54850  Biso   1.000  H
  H83      1.0000 0.71710  0.67010  0.49770  Biso   1.000  H
  H84      1.0000 0.88560  0.59440  0.44960  Biso   1.000  H
  H85      1.0000 0.60460  0.53040  0.40200  Biso   1.000  H
  H86      1.0000 0.43500  0.61280  0.44700  Biso   1.000  H
  H87      1.0000 0.09610  0.97500  0.48100  Biso   1.000  H
  H88      1.0000 0.05690  0.10890  0.42670  Biso   1.000  H
  H89      1.0000 0.34490  0.19380  0.46040  Biso   1.000  H
  H90      1.0000 0.39160  0.05580  0.51200  Biso   1.000  H
  H91      1.0000 0.41520  0.82410  0.66550  Biso   1.000  H
  H92      1.0000 0.37980  0.85960  0.72960  Biso   1.000  H
  H93      1.0000 0.99190  0.85270  0.73850  Biso   1.000  H
  H94      1.0000 0.02210  0.82810  0.67250  Biso   1.000  H
  H95      1.0000 0.63670  0.09050  0.40050  Biso   1.000  H
  H96      1.0000 0.59270  0.97860  0.45540  Biso   1.000  H
  H97      1.0000 0.70730  0.86920  0.45940  Biso   1.000  H
  H98      1.0000 0.56870  0.88900  0.44080  Biso   1.000  H
  H99      1.0000 0.80890  0.88610  0.35670  Biso   1.000  H
  H100     1.0000 0.70900  0.82810  0.37890  Biso   1.000  H
  H101     1.0000 0.84660  0.81190  0.39730  Biso   1.000  H
  H102     1.0000 0.27870  0.55850  0.27710  Biso   1.000  H
  H103     1.0000 0.34770  0.65660  0.22720  Biso   1.000  H
  H104     1.0000 0.32910  0.76340  0.23780  Biso   1.000  H
  H105     1.0000 0.22920  0.75520  0.20960  Biso   1.000  H
  H106     1.0000 0.02820  0.76910  0.30290  Biso   1.000  H
  H107     1.0000 0.02370  0.82850  0.25890  Biso   1.000  H
  H108     1.0000 0.12420  0.83480  0.28740  Biso   1.000  H
  C1       1.0000 0.53100  0.89461  0.11299  Biso   1.000  C
  C2       1.0000 0.65180  0.80601  0.13319  Biso   1.000  C
  C3       1.0000 0.49750  0.86865  0.07575  Biso   1.000  C
  C4       1.0000 0.57280  0.98934  0.10266  Biso   1.000  C
  C5       1.0000 0.39910  0.91545  0.14195  Biso   1.000  C
  C6       1.0000 0.64870  0.64259  0.16961  Biso   1.000  C
  C7       1.0000 0.73780  0.63228  0.19752  Biso   1.000  C
  C8       1.0000 0.75580  0.55251  0.23009  Biso   1.000  C
  C9       1.0000 0.68480  0.48563  0.23477  Biso   1.000  C
  C10      1.0000 0.59800  0.49595  0.20625  Biso   1.000  C
  C11      1.0000 0.57930  0.57359  0.17341  Biso   1.000  C
  C12      1.0000 0.70010  0.40046  0.27054  Biso   1.000  C
  C13      1.0000 0.61270  0.83192  0.01128  Biso   1.000  C
  C14      1.0000 0.50140  0.81929  0.99891  Biso   1.000  C
  C15      1.0000 0.51030  0.79969  0.95971  Biso   1.000  C
  C16      1.0000 0.62700  0.79576  0.93384  Biso   1.000  C
  C17      1.0000 0.73880  0.81009  0.94691  Biso   1.000  C
  C18      1.0000 0.73190  0.82678  0.98542  Biso   1.000  C
  C19      1.0000 0.63870  0.77474  0.89206  Biso   1.000  C
  C20      1.0000 0.31860  0.99505  0.20055  Biso   1.000  C
  C21      1.0000 0.35190  0.04294  0.22726  Biso   1.000  C
  C22      1.0000 0.24825  0.09405  0.25425  Biso   1.000  C
  C23      1.0000 0.11291  0.09808  0.25430  Biso   1.000  C
  C24      1.0000 0.08150  0.04955  0.22745  Biso   1.000  C
  C25      1.0000 0.18410  0.99912  0.20008  Biso   1.000  C
  C26      1.0000 0.99995  0.15517  0.28333  Biso   1.000  C
  C27      1.0000 0.35030  0.25117  0.06303  Biso   1.000  C
  C28      1.0000 0.26830  0.21956  0.03804  Biso   1.000  C
  C29      1.0000 0.38890  0.34153  0.03947  Biso   1.000  C
  C30      1.0000 0.26410  0.27732  0.10128  Biso   1.000  C
  C31      1.0000 0.48700  0.16275  0.07265  Biso   1.000  C
  C32      1.0000 0.31570  0.14900  0.97700  Biso   1.000  C
  C33      1.0000 0.18440  0.14337  0.97823  Biso   1.000  C
  C34      1.0000 0.15900  0.09651  0.94949  Biso   1.000  C
  C35      1.0000 0.26030  0.05375  0.92105  Biso   1.000  C
  C36      1.0000 0.39220  0.05962  0.92078  Biso   1.000  C
  C37      1.0000 0.41780  0.10781  0.94799  Biso   1.000  C
  C38      1.0000 0.23310  0.99953  0.89127  Biso   1.000  C
  C39      1.0000 0.24880  0.50286  0.00074  Biso   1.000  C
  C40      1.0000 0.35750  0.51828  0.97632  Biso   1.000  C
  C41      1.0000 0.33340  0.59937  0.94403  Biso   1.000  C
  C42      1.0000 0.19800  0.66595  0.93785  Biso   1.000  C
  C43      1.0000 0.09140  0.64894  0.96386  Biso   1.000  C
  C44      1.0000 0.11450  0.56706  0.99514  Biso   1.000  C
  C45      1.0000 0.16950  0.75061  0.90319  Biso   1.000  C
  C46      1.0000 0.29220  0.32449  0.16251  Biso   1.000  C
  C47      1.0000 0.15850  0.33201  0.17999  Biso   1.000  C
  C48      1.0000 0.12120  0.35143  0.21857  Biso   1.000  C
  C49      1.0000 0.21574  0.35908  0.24144  Biso   1.000  C
  C50      1.0000 0.35170  0.34881  0.22359  Biso   1.000  C
  C51      1.0000 0.38870  0.33298  0.18422  Biso   1.000  C
  C52      1.0000 0.17897  0.37815  0.28311  Biso   1.000  C
  C53      1.0000 0.88640  0.53750  0.88650  Biso   1.000  C
  C54      1.0000 0.00190  0.41830  0.94310  Biso   1.000  C
  C55      1.0000 0.98490  0.36080  0.88240  Biso   1.000  C
  C56      1.0000 0.89450  0.11258  0.78662  Biso   1.000  C
  C57      1.0000 0.76470  0.22150  0.73250  Biso   1.000  C
  C58      1.0000 0.84610  0.29130  0.78010  Biso   1.000  C
  C59      1.0000 0.46140  0.39461  0.61299  Biso   1.000  C
  C60      1.0000 0.40900  0.30601  0.63319  Biso   1.000  C
  C61      1.0000 0.55810  0.36865  0.57575  Biso   1.000  C
  C62      1.0000 0.33520  0.48934  0.60266  Biso   1.000  C
  C63      1.0000 0.54350  0.41545  0.64195  Biso   1.000  C
  C64      1.0000 0.53910  0.14259  0.66961  Biso   1.000  C
  C65      1.0000 0.43240  0.13228  0.69752  Biso   1.000  C
  C66      1.0000 0.46160  0.05251  0.73009  Biso   1.000  C
  C67      1.0000 0.59480  0.98563  0.73477  Biso   1.000  C
  C68      1.0000 0.69980  0.99595  0.70625  Biso   1.000  C
  C69      1.0000 0.67370  0.07359  0.67341  Biso   1.000  C
  C70      1.0000 0.62890  0.90046  0.77054  Biso   1.000  C
  C71      1.0000 0.54410  0.33192  0.51128  Biso   1.000  C
  C72      1.0000 0.68040  0.31929  0.49891  Biso   1.000  C
  C73      1.0000 0.73030  0.29969  0.45971  Biso   1.000  C
  C74      1.0000 0.64340  0.29576  0.43384  Biso   1.000  C
  C75      1.0000 0.50420  0.31009  0.44691  Biso   1.000  C
  C76      1.0000 0.45590  0.32678  0.48542  Biso   1.000  C
  C77      1.0000 0.69450  0.27474  0.39206  Biso   1.000  C
  C78      1.0000 0.48580  0.49505  0.70055  Biso   1.000  C
  C79      1.0000 0.37790  0.54294  0.72726  Biso   1.000  C
  C80      1.0000 0.40345  0.59405  0.75425  Biso   1.000  C
  C81      1.0000 0.53471  0.59808  0.75430  Biso   1.000  C
  C82      1.0000 0.64150  0.54955  0.72745  Biso   1.000  C
  C83      1.0000 0.61670  0.49912  0.70008  Biso   1.000  C
  C84      1.0000 0.56155  0.65517  0.78333  Biso   1.000  C
  C85      1.0000 0.33550  0.75117  0.56303  Biso   1.000  C
  C86      1.0000 0.47410  0.71956  0.53804  Biso   1.000  C
  C87      1.0000 0.23010  0.84153  0.53947  Biso   1.000  C
  C88      1.0000 0.35730  0.77732  0.60128  Biso   1.000  C
  C89      1.0000 0.27760  0.66275  0.57265  Biso   1.000  C
  C90      1.0000 0.55830  0.64900  0.47700  Biso   1.000  C
  C91      1.0000 0.69400  0.64337  0.47823  Biso   1.000  C
  C92      1.0000 0.79500  0.59651  0.44949  Biso   1.000  C
  C93      1.0000 0.76490  0.55375  0.42105  Biso   1.000  C
  C94      1.0000 0.62740  0.55962  0.42078  Biso   1.000  C
  C95      1.0000 0.52640  0.60781  0.44799  Biso   1.000  C
  C96      1.0000 0.87610  0.49953  0.39127  Biso   1.000  C
  C97      1.0000 0.24760  0.00286  0.50074  Biso   1.000  C
  C98      1.0000 0.14790  0.01828  0.47632  Biso   1.000  C
  C99      1.0000 0.12320  0.09937  0.44403  Biso   1.000  C
  C100     1.0000 0.19820  0.16595  0.43785  Biso   1.000  C
  C101     1.0000 0.29580  0.14894  0.46386  Biso   1.000  C
  C102     1.0000 0.32330  0.06706  0.49514  Biso   1.000  C
  C103     1.0000 0.17670  0.25061  0.40319  Biso   1.000  C
  C104     1.0000 0.22080  0.82449  0.66251  Biso   1.000  C
  C105     1.0000 0.32950  0.83201  0.67999  Biso   1.000  C
  C106     1.0000 0.30880  0.85143  0.71857  Biso   1.000  C
  C107     1.0000 0.18374  0.85908  0.74144  Biso   1.000  C
  C108     1.0000 0.07590  0.84881  0.72359  Biso   1.000  C
  C109     1.0000 0.09410  0.83298  0.68422  Biso   1.000  C
  C110     1.0000 0.15977  0.87815  0.78311  Biso   1.000  C
  C111     1.0000 0.68960  0.03750  0.38650  Biso   1.000  C
  C112     1.0000 0.63670  0.91830  0.44310  Biso   1.000  C
  C113     1.0000 0.77190  0.86080  0.38240  Biso   1.000  C
  C114     1.0000 0.20630  0.61258  0.28662  Biso   1.000  C
  C115     1.0000 0.28130  0.72150  0.23250  Biso   1.000  C
  C116     1.0000 0.08250  0.79130  0.28010  Biso   1.000  C
  N1       1.0000 0.95240  0.44467  0.90413  Biso   1.000  N
  N2       1.0000 0.84040  0.20506  0.76694  Biso   1.000  N
  N3       1.0000 0.69880  0.94467  0.40413  Biso   1.000  N
  N4       1.0000 0.18760  0.70506  0.26694  Biso   1.000  N
  O1       1.0000 0.80377  0.96395  0.86391  Biso   1.000  O
  O2       1.0000 0.45434  0.07372  0.08880  Biso   1.000  O
  O3       1.0000 0.99707  0.68732  0.80914  Biso   1.000  O
  O4       1.0000 0.62359  0.71501  0.13601  Biso   1.000  O
  O5       1.0000 0.62061  0.84907  0.04851  Biso   1.000  O
  O6       1.0000 0.42876  0.94606  0.17562  Biso   1.000  O
  O7       1.0000 0.77525  0.39489  0.29681  Biso   1.000  O
  O8       1.0000 0.63423  0.34137  0.27197  Biso   1.000  O
  O9       1.0000 0.55185  0.74439  0.88151  Biso   1.000  O
  O10      1.0000 0.74121  0.78748  0.86870  Biso   1.000  O
  O11      1.0000 0.88013  0.15095  0.28339  Biso   1.000  O
  O12      1.0000 0.03286  0.20224  0.30484  Biso   1.000  O
  O13      1.0000 0.35581  0.19365  0.00233  Biso   1.000  O
  O14      1.0000 0.25878  0.42559  0.03305  Biso   1.000  O
  O15      1.0000 0.34068  0.30954  0.12370  Biso   1.000  O
  O16      1.0000 0.33613  0.95344  0.86950  Biso   1.000  O
  O17      1.0000 0.10943  0.00618  0.89036  Biso   1.000  O
  O18      1.0000 0.26739  0.75598  0.87744  Biso   1.000  O
  O19      1.0000 0.04618  0.81336  0.90168  Biso   1.000  O
  O20      1.0000 0.05363  0.41151  0.29683  Biso   1.000  O
  O21      1.0000 0.27633  0.36559  0.30455  Biso   1.000  O
  O22      1.0000 0.84250  0.56119  0.85421  Biso   1.000  O
  O23      1.0000 0.95657  0.09212  0.81714  Biso   1.000  O
  O24      1.0000 0.36837  0.46395  0.36391  Biso   1.000  O
  O25      1.0000 0.38314  0.57372  0.58880  Biso   1.000  O
  O26      1.0000 0.50647  0.18732  0.30914  Biso   1.000  O
  O27      1.0000 0.52539  0.21501  0.63601  Biso   1.000  O
  O28      1.0000 0.48181  0.34907  0.54851  Biso   1.000  O
  O29      1.0000 0.44956  0.44606  0.67562  Biso   1.000  O
  O30      1.0000 0.53305  0.89489  0.79681  Biso   1.000  O
  O31      1.0000 0.75243  0.84137  0.77197  Biso   1.000  O
  O32      1.0000 0.82225  0.24439  0.38151  Biso   1.000  O
  O33      1.0000 0.60261  0.28748  0.36870  Biso   1.000  O
  O34      1.0000 0.68553  0.65095  0.78339  Biso   1.000  O
  O35      1.0000 0.46006  0.70224  0.80484  Biso   1.000  O
  O36      1.0000 0.44821  0.69365  0.50233  Biso   1.000  O
  O37      1.0000 0.28258  0.92559  0.53305  Biso   1.000  O
  O38      1.0000 0.22608  0.80954  0.62370  Biso   1.000  O
  O39      1.0000 0.84093  0.45344  0.36950  Biso   1.000  O
  O40      1.0000 0.99403  0.50618  0.39036  Biso   1.000  O
  O41      1.0000 0.09919  0.25598  0.37744  Biso   1.000  O
  O42      1.0000 0.23878  0.31336  0.40168  Biso   1.000  O
  O43      1.0000 0.23803  0.91151  0.79683  Biso   1.000  O
  O44      1.0000 0.05353  0.86559  0.80455  Biso   1.000  O
  O45      1.0000 0.74210  0.06119  0.35421  Biso   1.000  O
  O46      1.0000 0.13417  0.59212  0.31714  Biso   1.000  O
