data_image0
_cell_length_a       9.0148
_cell_length_b       9.0148
_cell_length_c       11.4645
_cell_angle_alpha    90
_cell_angle_beta     90
_cell_angle_gamma    120

_symmetry_space_group_name_H-M    P 1
_symmetry_int_tables_number       1

loop_
  _symmetry_equiv_pos_as_xyz
  'x, y, z'

loop_
  _atom_site_label
  _atom_site_occupancy
  _atom_site_fract_x
  _atom_site_fract_y
  _atom_site_fract_z
  _atom_site_thermal_displace_type
  _atom_site_B_iso_or_equiv
  _atom_site_type_symbol
  In1      1.0000 0.50000  0.00000  0.66667  Biso   1.000  In
  In2      1.0000 0.50000  0.50000  0.00000  Biso   1.000  In
  In3      1.0000 1.00000  0.50000  0.33333  Biso   1.000  In
  C1       1.0000 0.79100  0.20900  0.50000  Biso   1.000  C
  C2       1.0000 0.69155  0.30845  0.50000  Biso   1.000  C
  C3       1.0000 0.41800  0.20900  0.83333  Biso   1.000  C
  C4       1.0000 0.61690  0.30845  0.83333  Biso   1.000  C
  C5       1.0000 0.79100  0.58200  0.16667  Biso   1.000  C
  C6       1.0000 0.69155  0.38310  0.16667  Biso   1.000  C
  C7       1.0000 0.20900  0.79100  0.50000  Biso   1.000  C
  C8       1.0000 0.30845  0.69155  0.50000  Biso   1.000  C
  C9       1.0000 0.58200  0.79100  0.83333  Biso   1.000  C
  C10      1.0000 0.38310  0.69155  0.83333  Biso   1.000  C
  C11      1.0000 0.20900  0.41800  0.16667  Biso   1.000  C
  C12      1.0000 0.30845  0.61690  0.16667  Biso   1.000  C
  O1       1.0000 0.73450  0.07520  0.56290  Biso   1.000  O
  O2       1.0000 0.55670  0.24350  0.55690  Biso   1.000  O
  O3       1.0000 0.34070  0.26550  0.89623  Biso   1.000  O
  O4       1.0000 0.68680  0.44330  0.89023  Biso   1.000  O
  O5       1.0000 0.92480  0.65930  0.22957  Biso   1.000  O
  O6       1.0000 0.75650  0.31320  0.22357  Biso   1.000  O
  O7       1.0000 0.26550  0.92480  0.56290  Biso   1.000  O
  O8       1.0000 0.44330  0.75650  0.55690  Biso   1.000  O
  O9       1.0000 0.65930  0.73450  0.89623  Biso   1.000  O
  O10      1.0000 0.31320  0.55670  0.89023  Biso   1.000  O
  O11      1.0000 0.07520  0.34070  0.22957  Biso   1.000  O
  O12      1.0000 0.24350  0.68680  0.22357  Biso   1.000  O
  O13      1.0000 0.65930  0.92480  0.77043  Biso   1.000  O
  O14      1.0000 0.31320  0.75650  0.77643  Biso   1.000  O
  O15      1.0000 0.07520  0.73450  0.43710  Biso   1.000  O
  O16      1.0000 0.24350  0.55670  0.44310  Biso   1.000  O
  O17      1.0000 0.26550  0.34070  0.10377  Biso   1.000  O
  O18      1.0000 0.44330  0.68680  0.10977  Biso   1.000  O
  O19      1.0000 0.34070  0.07520  0.77043  Biso   1.000  O
  O20      1.0000 0.68680  0.24350  0.77643  Biso   1.000  O
  O21      1.0000 0.92480  0.26550  0.43710  Biso   1.000  O
  O22      1.0000 0.75650  0.44330  0.44310  Biso   1.000  O
  O23      1.0000 0.73450  0.65930  0.10377  Biso   1.000  O
  O24      1.0000 0.55670  0.31320  0.10977  Biso   1.000  O
