data_image0
_cell_length_a       11.4284
_cell_length_b       11.4284
_cell_length_c       30.743
_cell_angle_alpha    90
_cell_angle_beta     90
_cell_angle_gamma    120

_symmetry_space_group_name_H-M    P 1
_symmetry_int_tables_number       1

loop_
  _symmetry_equiv_pos_as_xyz
  'x, y, z'

loop_
  _atom_site_label
  _atom_site_occupancy
  _atom_site_fract_x
  _atom_site_fract_y
  _atom_site_fract_z
  _atom_site_thermal_displace_type
  _atom_site_B_iso_or_equiv
  _atom_site_type_symbol
  Co1      1.0000 0.00000  0.93788  0.16667  Biso   1.000  Co
  Co2      1.0000 0.93788  0.00000  0.50000  Biso   1.000  Co
  Co3      1.0000 0.06212  0.06212  0.83333  Biso   1.000  Co
  Co4      1.0000 0.91430  0.00000  0.00000  Biso   1.000  Co
  Co5      1.0000 0.08570  0.08570  0.33333  Biso   1.000  Co
  Co6      1.0000 0.00000  0.91430  0.66667  Biso   1.000  Co
  H1       1.0000 0.44150  0.57220  0.00240  Biso   1.000  H
  H2       1.0000 0.42930  0.20460  0.99930  Biso   1.000  H
  H3       1.0000 0.22160  0.19820  0.99710  Biso   1.000  H
  H4       1.0000 0.59350  0.83610  0.12800  Biso   1.000  H
  H5       1.0000 0.36740  0.73440  0.10850  Biso   1.000  H
  H6       1.0000 0.79310  0.80040  0.21420  Biso   1.000  H
  H7       1.0000 0.90320  0.85550  0.24210  Biso   1.000  H
  H8       1.0000 0.02370  0.36160  0.10150  Biso   1.000  H
  H9       1.0000 0.02330  0.15780  0.10310  Biso   1.000  H
  H10      1.0000 0.96870  0.51160  0.10180  Biso   1.000  H
  H11      1.0000 0.44340  0.87850  0.94720  Biso   1.000  H
  H12      1.0000 0.65020  0.88740  0.94790  Biso   1.000  H
  H13      1.0000 0.96100  0.71060  0.10440  Biso   1.000  H
  H14      1.0000 0.28930  0.60100  0.04560  Biso   1.000  H
  H15      1.0000 0.13070  0.55850  0.33573  Biso   1.000  H
  H16      1.0000 0.77530  0.57070  0.33263  Biso   1.000  H
  H17      1.0000 0.97660  0.77840  0.33043  Biso   1.000  H
  H18      1.0000 0.24260  0.40650  0.46133  Biso   1.000  H
  H19      1.0000 0.36700  0.63260  0.44183  Biso   1.000  H
  H20      1.0000 0.00730  0.20690  0.54753  Biso   1.000  H
  H21      1.0000 0.95230  0.09680  0.57543  Biso   1.000  H
  H22      1.0000 0.33790  0.97630  0.43483  Biso   1.000  H
  H23      1.0000 0.13450  0.97670  0.43643  Biso   1.000  H
  H24      1.0000 0.54290  0.03130  0.43513  Biso   1.000  H
  H25      1.0000 0.43510  0.55660  0.28053  Biso   1.000  H
  H26      1.0000 0.23720  0.34980  0.28123  Biso   1.000  H
  H27      1.0000 0.74960  0.03900  0.43773  Biso   1.000  H
  H28      1.0000 0.31170  0.71070  0.37893  Biso   1.000  H
  H29      1.0000 0.42780  0.86930  0.66907  Biso   1.000  H
  H30      1.0000 0.79540  0.22470  0.66597  Biso   1.000  H
  H31      1.0000 0.80180  0.02340  0.66377  Biso   1.000  H
  H32      1.0000 0.16390  0.75740  0.79467  Biso   1.000  H
  H33      1.0000 0.26560  0.63300  0.77517  Biso   1.000  H
  H34      1.0000 0.19960  0.99270  0.88087  Biso   1.000  H
  H35      1.0000 0.14450  0.04770  0.90877  Biso   1.000  H
  H36      1.0000 0.63840  0.66210  0.76817  Biso   1.000  H
  H37      1.0000 0.84220  0.86550  0.76977  Biso   1.000  H
  H38      1.0000 0.48840  0.45710  0.76847  Biso   1.000  H
  H39      1.0000 0.12150  0.56490  0.61387  Biso   1.000  H
  H40      1.0000 0.11260  0.76280  0.61457  Biso   1.000  H
  H41      1.0000 0.28940  0.25040  0.77107  Biso   1.000  H
  H42      1.0000 0.39900  0.68830  0.71227  Biso   1.000  H
  H43      1.0000 0.86930  0.42780  0.99760  Biso   1.000  H
  H44      1.0000 0.22470  0.79540  0.00070  Biso   1.000  H
  H45      1.0000 0.02340  0.80180  0.00290  Biso   1.000  H
  H46      1.0000 0.75740  0.16390  0.87200  Biso   1.000  H
  H47      1.0000 0.63300  0.26560  0.89150  Biso   1.000  H
  H48      1.0000 0.99270  0.19960  0.78580  Biso   1.000  H
  H49      1.0000 0.04770  0.14450  0.75790  Biso   1.000  H
  H50      1.0000 0.66210  0.63840  0.89850  Biso   1.000  H
  H51      1.0000 0.86550  0.84220  0.89690  Biso   1.000  H
  H52      1.0000 0.45710  0.48840  0.89820  Biso   1.000  H
  H53      1.0000 0.56490  0.12150  0.05280  Biso   1.000  H
  H54      1.0000 0.76280  0.11260  0.05210  Biso   1.000  H
  H55      1.0000 0.25040  0.28940  0.89560  Biso   1.000  H
  H56      1.0000 0.68830  0.39900  0.95440  Biso   1.000  H
  H57      1.0000 0.57220  0.44150  0.66427  Biso   1.000  H
  H58      1.0000 0.20460  0.42930  0.66737  Biso   1.000  H
  H59      1.0000 0.19820  0.22160  0.66957  Biso   1.000  H
  H60      1.0000 0.83610  0.59350  0.53867  Biso   1.000  H
  H61      1.0000 0.73440  0.36740  0.55817  Biso   1.000  H
  H62      1.0000 0.80040  0.79310  0.45247  Biso   1.000  H
  H63      1.0000 0.85550  0.90320  0.42457  Biso   1.000  H
  H64      1.0000 0.36160  0.02370  0.56517  Biso   1.000  H
  H65      1.0000 0.15780  0.02330  0.56357  Biso   1.000  H
  H66      1.0000 0.51160  0.96870  0.56487  Biso   1.000  H
  H67      1.0000 0.87850  0.44340  0.71947  Biso   1.000  H
  H68      1.0000 0.88740  0.65020  0.71877  Biso   1.000  H
  H69      1.0000 0.71060  0.96100  0.56227  Biso   1.000  H
  H70      1.0000 0.60100  0.28930  0.62107  Biso   1.000  H
  H71      1.0000 0.55850  0.13070  0.33093  Biso   1.000  H
  H72      1.0000 0.57070  0.77530  0.33403  Biso   1.000  H
  H73      1.0000 0.77840  0.97660  0.33623  Biso   1.000  H
  H74      1.0000 0.40650  0.24260  0.20533  Biso   1.000  H
  H75      1.0000 0.63260  0.36700  0.22483  Biso   1.000  H
  H76      1.0000 0.20690  0.00730  0.11913  Biso   1.000  H
  H77      1.0000 0.09680  0.95230  0.09123  Biso   1.000  H
  H78      1.0000 0.97630  0.33790  0.23183  Biso   1.000  H
  H79      1.0000 0.97670  0.13450  0.23023  Biso   1.000  H
  H80      1.0000 0.03130  0.54290  0.23153  Biso   1.000  H
  H81      1.0000 0.55660  0.43510  0.38613  Biso   1.000  H
  H82      1.0000 0.34980  0.23720  0.38543  Biso   1.000  H
  H83      1.0000 0.03900  0.74960  0.22893  Biso   1.000  H
  H84      1.0000 0.71070  0.31170  0.28773  Biso   1.000  H
  C1       1.0000 0.47310  0.62870  0.02736  Biso   1.000  C
  C2       1.0000 0.80430  0.85490  0.08966  Biso   1.000  C
  C3       1.0000 0.65720  0.77510  0.07497  Biso   1.000  C
  C4       1.0000 0.34760  0.12020  0.99931  Biso   1.000  C
  C5       1.0000 0.22260  0.11560  0.99862  Biso   1.000  C
  C6       1.0000 0.61130  0.69590  0.03760  Biso   1.000  C
  C7       1.0000 0.56370  0.78550  0.10175  Biso   1.000  C
  C8       1.0000 0.42890  0.72320  0.09057  Biso   1.000  C
  C9       1.0000 0.01390  0.31680  0.12843  Biso   1.000  C
  C10      1.0000 0.01350  0.19440  0.12967  Biso   1.000  C
  C11      1.0000 0.98060  0.55680  0.12878  Biso   1.000  C
  C12      1.0000 0.50830  0.92930  0.96888  Biso   1.000  C
  C13      1.0000 0.63170  0.93410  0.96995  Biso   1.000  C
  C14      1.0000 0.97850  0.67730  0.13042  Biso   1.000  C
  C15      1.0000 0.38220  0.64400  0.05325  Biso   1.000  C
  C16      1.0000 0.15560  0.52690  0.36069  Biso   1.000  C
  C17      1.0000 0.05060  0.19570  0.42299  Biso   1.000  C
  C18      1.0000 0.11790  0.34280  0.40830  Biso   1.000  C
  C19      1.0000 0.77260  0.65240  0.33264  Biso   1.000  C
  C20      1.0000 0.89300  0.77740  0.33195  Biso   1.000  C
  C21      1.0000 0.08460  0.38870  0.37093  Biso   1.000  C
  C22      1.0000 0.22180  0.43630  0.43508  Biso   1.000  C
  C23      1.0000 0.29430  0.57110  0.42390  Biso   1.000  C
  C24      1.0000 0.30290  0.98610  0.46176  Biso   1.000  C
  C25      1.0000 0.18090  0.98650  0.46300  Biso   1.000  C
  C26      1.0000 0.57620  0.01940  0.46211  Biso   1.000  C
  C27      1.0000 0.42100  0.49170  0.30221  Biso   1.000  C
  C28      1.0000 0.30240  0.36830  0.30328  Biso   1.000  C
  C29      1.0000 0.69880  0.02150  0.46375  Biso   1.000  C
  C30      1.0000 0.26180  0.61780  0.38658  Biso   1.000  C
  C31      1.0000 0.37130  0.84440  0.69403  Biso   1.000  C
  C32      1.0000 0.14510  0.94940  0.75633  Biso   1.000  C
  C33      1.0000 0.22490  0.88210  0.74164  Biso   1.000  C
  C34      1.0000 0.87980  0.22740  0.66598  Biso   1.000  C
  C35      1.0000 0.88440  0.10700  0.66529  Biso   1.000  C
  C36      1.0000 0.30410  0.91540  0.70427  Biso   1.000  C
  C37      1.0000 0.21450  0.77820  0.76842  Biso   1.000  C
  C38      1.0000 0.27680  0.70570  0.75724  Biso   1.000  C
  C39      1.0000 0.68320  0.69710  0.79510  Biso   1.000  C
  C40      1.0000 0.80560  0.81910  0.79634  Biso   1.000  C
  C41      1.0000 0.44320  0.42380  0.79545  Biso   1.000  C
  C42      1.0000 0.07070  0.57900  0.63555  Biso   1.000  C
  C43      1.0000 0.06590  0.69760  0.63662  Biso   1.000  C
  C44      1.0000 0.32270  0.30120  0.79709  Biso   1.000  C
  C45      1.0000 0.35600  0.73820  0.71992  Biso   1.000  C
  C46      1.0000 0.84440  0.37130  0.97264  Biso   1.000  C
  C47      1.0000 0.94940  0.14510  0.91034  Biso   1.000  C
  C48      1.0000 0.88210  0.22490  0.92503  Biso   1.000  C
  C49      1.0000 0.22740  0.87980  0.00069  Biso   1.000  C
  C50      1.0000 0.10700  0.88440  0.00138  Biso   1.000  C
  C51      1.0000 0.91540  0.30410  0.96240  Biso   1.000  C
  C52      1.0000 0.77820  0.21450  0.89825  Biso   1.000  C
  C53      1.0000 0.70570  0.27680  0.90943  Biso   1.000  C
  C54      1.0000 0.69710  0.68320  0.87157  Biso   1.000  C
  C55      1.0000 0.81910  0.80560  0.87033  Biso   1.000  C
  C56      1.0000 0.42380  0.44320  0.87122  Biso   1.000  C
  C57      1.0000 0.57900  0.07070  0.03112  Biso   1.000  C
  C58      1.0000 0.69760  0.06590  0.03005  Biso   1.000  C
  C59      1.0000 0.30120  0.32270  0.86958  Biso   1.000  C
  C60      1.0000 0.73820  0.35600  0.94675  Biso   1.000  C
  C61      1.0000 0.62870  0.47310  0.63931  Biso   1.000  C
  C62      1.0000 0.85490  0.80430  0.57701  Biso   1.000  C
  C63      1.0000 0.77510  0.65720  0.59170  Biso   1.000  C
  C64      1.0000 0.12020  0.34760  0.66736  Biso   1.000  C
  C65      1.0000 0.11560  0.22260  0.66805  Biso   1.000  C
  C66      1.0000 0.69590  0.61130  0.62907  Biso   1.000  C
  C67      1.0000 0.78550  0.56370  0.56492  Biso   1.000  C
  C68      1.0000 0.72320  0.42890  0.57610  Biso   1.000  C
  C69      1.0000 0.31680  0.01390  0.53824  Biso   1.000  C
  C70      1.0000 0.19440  0.01350  0.53700  Biso   1.000  C
  C71      1.0000 0.55680  0.98060  0.53789  Biso   1.000  C
  C72      1.0000 0.92930  0.50830  0.69779  Biso   1.000  C
  C73      1.0000 0.93410  0.63170  0.69672  Biso   1.000  C
  C74      1.0000 0.67730  0.97850  0.53625  Biso   1.000  C
  C75      1.0000 0.64400  0.38220  0.61342  Biso   1.000  C
  C76      1.0000 0.52690  0.15560  0.30597  Biso   1.000  C
  C77      1.0000 0.19570  0.05060  0.24367  Biso   1.000  C
  C78      1.0000 0.34280  0.11790  0.25836  Biso   1.000  C
  C79      1.0000 0.65240  0.77260  0.33402  Biso   1.000  C
  C80      1.0000 0.77740  0.89300  0.33471  Biso   1.000  C
  C81      1.0000 0.38870  0.08460  0.29573  Biso   1.000  C
  C82      1.0000 0.43630  0.22180  0.23158  Biso   1.000  C
  C83      1.0000 0.57110  0.29430  0.24276  Biso   1.000  C
  C84      1.0000 0.98610  0.30290  0.20490  Biso   1.000  C
  C85      1.0000 0.98650  0.18090  0.20366  Biso   1.000  C
  C86      1.0000 0.01940  0.57620  0.20455  Biso   1.000  C
  C87      1.0000 0.49170  0.42100  0.36445  Biso   1.000  C
  C88      1.0000 0.36830  0.30240  0.36338  Biso   1.000  C
  C89      1.0000 0.02150  0.69880  0.20291  Biso   1.000  C
  C90      1.0000 0.61780  0.26180  0.28008  Biso   1.000  C
  C91      1.0000 0.00000  0.50260  0.16667  Biso   1.000  C
  C92      1.0000 0.00000  0.37190  0.16667  Biso   1.000  C
  C93      1.0000 0.50260  0.00000  0.50000  Biso   1.000  C
  C94      1.0000 0.37190  0.00000  0.50000  Biso   1.000  C
  C95      1.0000 0.49740  0.49740  0.83333  Biso   1.000  C
  C96      1.0000 0.62810  0.62810  0.83333  Biso   1.000  C
  C97      1.0000 0.48130  0.00000  0.00000  Biso   1.000  C
  C98      1.0000 0.35080  0.00000  0.00000  Biso   1.000  C
  C99      1.0000 0.51870  0.51870  0.33333  Biso   1.000  C
  C100     1.0000 0.64920  0.64920  0.33333  Biso   1.000  C
  C101     1.0000 0.00000  0.48130  0.66667  Biso   1.000  C
  C102     1.0000 0.00000  0.35080  0.66667  Biso   1.000  C
  S1       1.0000 0.72094  0.66746  0.00296  Biso   1.000  S
  S2       1.0000 0.94652  0.27906  0.33629  Biso   1.000  S
  S3       1.0000 0.33254  0.05348  0.66963  Biso   1.000  S
  S4       1.0000 0.05348  0.33254  0.99704  Biso   1.000  S
  S5       1.0000 0.66746  0.72094  0.66371  Biso   1.000  S
  S6       1.0000 0.27906  0.94652  0.33037  Biso   1.000  S
  N1       1.0000 0.00000  0.12620  0.16667  Biso   1.000  N
  N2       1.0000 1.00000  0.74780  0.16667  Biso   1.000  N
  N3       1.0000 0.12620  0.00000  0.50000  Biso   1.000  N
  N4       1.0000 0.74780  0.00000  0.50000  Biso   1.000  N
  N5       1.0000 0.87380  0.87380  0.83333  Biso   1.000  N
  N6       1.0000 0.25220  0.25220  0.83333  Biso   1.000  N
  N7       1.0000 0.10560  0.00000  0.00000  Biso   1.000  N
  N8       1.0000 0.72590  0.00000  0.00000  Biso   1.000  N
  N9       1.0000 0.89440  0.89440  0.33333  Biso   1.000  N
  N10      1.0000 0.27410  0.27410  0.33333  Biso   1.000  N
  N11      1.0000 0.00000  0.10560  0.66667  Biso   1.000  N
  N12      1.0000 0.00000  0.72590  0.66667  Biso   1.000  N
  O1       1.0000 0.89560  0.93200  0.06328  Biso   1.000  O
  O2       1.0000 0.80580  0.79520  0.97903  Biso   1.000  O
  O3       1.0000 0.63230  0.56130  0.97314  Biso   1.000  O
  O4       1.0000 0.82560  0.84380  0.12866  Biso   1.000  O
  O5       1.0000 0.80020  0.63300  0.03148  Biso   1.000  O
  O6       1.0000 0.86590  0.87180  0.22090  Biso   1.000  O
  O7       1.0000 0.03640  0.10440  0.39661  Biso   1.000  O
  O8       1.0000 0.98940  0.19420  0.31236  Biso   1.000  O
  O9       1.0000 0.92900  0.36770  0.30647  Biso   1.000  O
  O10      1.0000 0.01820  0.17440  0.46199  Biso   1.000  O
  O11      1.0000 0.83280  0.19980  0.36481  Biso   1.000  O
  O12      1.0000 0.00590  0.13410  0.55423  Biso   1.000  O
  O13      1.0000 0.06800  0.96360  0.72995  Biso   1.000  O
  O14      1.0000 0.20480  0.01060  0.64570  Biso   1.000  O
  O15      1.0000 0.43870  0.07100  0.63981  Biso   1.000  O
  O16      1.0000 0.15620  0.98180  0.79533  Biso   1.000  O
  O17      1.0000 0.36700  0.16720  0.69815  Biso   1.000  O
  O18      1.0000 0.12820  0.99410  0.88757  Biso   1.000  O
  O19      1.0000 0.96360  0.06800  0.93672  Biso   1.000  O
  O20      1.0000 0.01060  0.20480  0.02097  Biso   1.000  O
  O21      1.0000 0.07100  0.43870  0.02686  Biso   1.000  O
  O22      1.0000 0.98180  0.15620  0.87134  Biso   1.000  O
  O23      1.0000 0.16720  0.36700  0.96852  Biso   1.000  O
  O24      1.0000 0.99410  0.12820  0.77910  Biso   1.000  O
  O25      1.0000 0.93200  0.89560  0.60339  Biso   1.000  O
  O26      1.0000 0.79520  0.80580  0.68764  Biso   1.000  O
  O27      1.0000 0.56130  0.63230  0.69353  Biso   1.000  O
  O28      1.0000 0.84380  0.82560  0.53801  Biso   1.000  O
  O29      1.0000 0.63300  0.80020  0.63519  Biso   1.000  O
  O30      1.0000 0.87180  0.86590  0.44577  Biso   1.000  O
  O31      1.0000 0.10440  0.03640  0.27005  Biso   1.000  O
  O32      1.0000 0.19420  0.98940  0.35430  Biso   1.000  O
  O33      1.0000 0.36770  0.92900  0.36019  Biso   1.000  O
  O34      1.0000 0.17440  0.01820  0.20467  Biso   1.000  O
  O35      1.0000 0.19980  0.83280  0.30185  Biso   1.000  O
  O36      1.0000 0.13410  0.00590  0.11243  Biso   1.000  O
