data_image0
_cell_length_a       12.38
_cell_length_b       16.488
_cell_length_c       21.246
_cell_angle_alpha    90
_cell_angle_beta     90
_cell_angle_gamma    90

_symmetry_space_group_name_H-M    P 1
_symmetry_int_tables_number       1

loop_
  _symmetry_equiv_pos_as_xyz
  'x, y, z'

loop_
  _atom_site_label
  _atom_site_occupancy
  _atom_site_fract_x
  _atom_site_fract_y
  _atom_site_fract_z
  _atom_site_thermal_displace_type
  _atom_site_B_iso_or_equiv
  _atom_site_type_symbol
  Cd1      1.0000 0.48081  0.93969  0.72870  Biso   1.000  Cd
  Cd2      1.0000 0.22644  0.82072  0.68725  Biso   1.000  Cd
  Cd3      1.0000 0.72915  0.79922  0.73160  Biso   1.000  Cd
  Cd4      1.0000 0.48818  0.82997  0.20023  Biso   1.000  Cd
  Cd5      1.0000 0.01919  0.43969  0.77130  Biso   1.000  Cd
  Cd6      1.0000 0.27356  0.32072  0.81275  Biso   1.000  Cd
  Cd7      1.0000 0.77085  0.29922  0.76840  Biso   1.000  Cd
  Cd8      1.0000 0.01182  0.32997  0.29977  Biso   1.000  Cd
  Cd9      1.0000 0.51919  0.06031  0.27130  Biso   1.000  Cd
  Cd10     1.0000 0.77356  0.17928  0.31275  Biso   1.000  Cd
  Cd11     1.0000 0.27085  0.20078  0.26840  Biso   1.000  Cd
  Cd12     1.0000 0.51182  0.17003  0.79977  Biso   1.000  Cd
  Cd13     1.0000 0.98081  0.56031  0.22870  Biso   1.000  Cd
  Cd14     1.0000 0.72644  0.67928  0.18725  Biso   1.000  Cd
  Cd15     1.0000 0.22915  0.70078  0.23160  Biso   1.000  Cd
  Cd16     1.0000 0.98818  0.67003  0.70023  Biso   1.000  Cd
  H1       1.0000 0.72930  0.41530  0.61700  Biso   1.000  H
  H2       1.0000 0.58590  0.45930  0.55940  Biso   1.000  H
  H3       1.0000 0.48820  0.57200  0.59050  Biso   1.000  H
  H4       1.0000 0.70300  0.61090  0.72870  Biso   1.000  H
  H5       1.0000 0.36390  0.87330  0.94580  Biso   1.000  H
  H6       1.0000 0.07100  0.79620  0.99580  Biso   1.000  H
  H7       1.0000 0.00900  0.82230  0.89490  Biso   1.000  H
  H8       1.0000 0.12660  0.87280  0.81960  Biso   1.000  H
  H9       1.0000 0.20030  0.00560  0.73890  Biso   1.000  H
  H10      1.0000 0.94470  0.08200  0.64050  Biso   1.000  H
  H11      1.0000 0.03100  0.20420  0.62240  Biso   1.000  H
  H12      1.0000 0.19380  0.23150  0.66980  Biso   1.000  H
  H13      1.0000 0.69270  0.23480  0.54800  Biso   1.000  H
  H14      1.0000 0.60210  0.18000  0.46560  Biso   1.000  H
  H15      1.0000 0.45980  0.08910  0.48410  Biso   1.000  H
  H16      1.0000 0.52540  0.09870  0.66960  Biso   1.000  H
  H17      1.0000 0.19600  0.71800  0.59000  Biso   1.000  H
  H18      1.0000 0.10200  0.75700  0.58400  Biso   1.000  H
  H19      1.0000 0.77070  0.91530  0.88300  Biso   1.000  H
  H20      1.0000 0.91410  0.95930  0.94060  Biso   1.000  H
  H21      1.0000 0.01180  0.07200  0.90950  Biso   1.000  H
  H22      1.0000 0.79700  0.11090  0.77130  Biso   1.000  H
  H23      1.0000 0.13610  0.37330  0.55420  Biso   1.000  H
  H24      1.0000 0.42900  0.29620  0.50420  Biso   1.000  H
  H25      1.0000 0.49100  0.32230  0.60510  Biso   1.000  H
  H26      1.0000 0.37340  0.37280  0.68040  Biso   1.000  H
  H27      1.0000 0.29970  0.50560  0.76110  Biso   1.000  H
  H28      1.0000 0.55530  0.58200  0.85950  Biso   1.000  H
  H29      1.0000 0.46900  0.70420  0.87760  Biso   1.000  H
  H30      1.0000 0.30620  0.73150  0.83020  Biso   1.000  H
  H31      1.0000 0.80730  0.73480  0.95200  Biso   1.000  H
  H32      1.0000 0.89790  0.68000  0.03440  Biso   1.000  H
  H33      1.0000 0.04020  0.58910  0.01590  Biso   1.000  H
  H34      1.0000 0.97460  0.59870  0.83040  Biso   1.000  H
  H35      1.0000 0.30400  0.21800  0.91000  Biso   1.000  H
  H36      1.0000 0.39800  0.25700  0.91600  Biso   1.000  H
  H37      1.0000 0.27070  0.58470  0.38300  Biso   1.000  H
  H38      1.0000 0.41410  0.54070  0.44060  Biso   1.000  H
  H39      1.0000 0.51180  0.42800  0.40950  Biso   1.000  H
  H40      1.0000 0.29700  0.38910  0.27130  Biso   1.000  H
  H41      1.0000 0.63610  0.12670  0.05420  Biso   1.000  H
  H42      1.0000 0.92900  0.20380  0.00420  Biso   1.000  H
  H43      1.0000 0.99100  0.17770  0.10510  Biso   1.000  H
  H44      1.0000 0.87340  0.12720  0.18040  Biso   1.000  H
  H45      1.0000 0.79970  0.99440  0.26110  Biso   1.000  H
  H46      1.0000 0.05530  0.91800  0.35950  Biso   1.000  H
  H47      1.0000 0.96900  0.79580  0.37760  Biso   1.000  H
  H48      1.0000 0.80620  0.76850  0.33020  Biso   1.000  H
  H49      1.0000 0.30730  0.76520  0.45200  Biso   1.000  H
  H50      1.0000 0.39790  0.82000  0.53440  Biso   1.000  H
  H51      1.0000 0.54020  0.91090  0.51590  Biso   1.000  H
  H52      1.0000 0.47460  0.90130  0.33040  Biso   1.000  H
  H53      1.0000 0.80400  0.28200  0.41000  Biso   1.000  H
  H54      1.0000 0.89800  0.24300  0.41600  Biso   1.000  H
  H55      1.0000 0.22930  0.08470  0.11700  Biso   1.000  H
  H56      1.0000 0.08590  0.04070  0.05940  Biso   1.000  H
  H57      1.0000 0.98820  0.92800  0.09050  Biso   1.000  H
  H58      1.0000 0.20300  0.88910  0.22870  Biso   1.000  H
  H59      1.0000 0.86390  0.62670  0.44580  Biso   1.000  H
  H60      1.0000 0.57100  0.70380  0.49580  Biso   1.000  H
  H61      1.0000 0.50900  0.67770  0.39490  Biso   1.000  H
  H62      1.0000 0.62660  0.62720  0.31960  Biso   1.000  H
  H63      1.0000 0.70030  0.49440  0.23890  Biso   1.000  H
  H64      1.0000 0.44470  0.41800  0.14050  Biso   1.000  H
  H65      1.0000 0.53100  0.29580  0.12240  Biso   1.000  H
  H66      1.0000 0.69380  0.26850  0.16980  Biso   1.000  H
  H67      1.0000 0.19270  0.26520  0.04800  Biso   1.000  H
  H68      1.0000 0.10210  0.32000  0.96560  Biso   1.000  H
  H69      1.0000 0.95980  0.41090  0.98410  Biso   1.000  H
  H70      1.0000 0.02540  0.40130  0.16960  Biso   1.000  H
  H71      1.0000 0.69600  0.78200  0.09000  Biso   1.000  H
  H72      1.0000 0.60200  0.74300  0.08400  Biso   1.000  H
  C1       1.0000 0.83130  0.48300  0.71160  Biso   1.000  C
  C2       1.0000 0.73190  0.51000  0.67740  Biso   1.000  C
  C3       1.0000 0.69460  0.46350  0.62760  Biso   1.000  C
  C4       1.0000 0.60780  0.48840  0.59470  Biso   1.000  C
  C5       1.0000 0.55010  0.55710  0.61250  Biso   1.000  C
  C6       1.0000 0.58500  0.60330  0.66300  Biso   1.000  C
  C7       1.0000 0.52340  0.67680  0.68040  Biso   1.000  C
  C8       1.0000 0.67760  0.57990  0.69530  Biso   1.000  C
  C9       1.0000 0.33470  0.90170  0.82530  Biso   1.000  C
  C10      1.0000 0.25800  0.87600  0.87480  Biso   1.000  C
  C11      1.0000 0.29260  0.86180  0.93530  Biso   1.000  C
  C12      1.0000 0.22550  0.83130  0.98060  Biso   1.000  C
  C13      1.0000 0.26440  0.81310  0.04370  Biso   1.000  C
  C14      1.0000 0.11800  0.81650  0.96550  Biso   1.000  C
  C15      1.0000 0.08090  0.83200  0.90520  Biso   1.000  C
  C16      1.0000 0.15160  0.86210  0.86010  Biso   1.000  C
  C17      1.0000 0.31930  0.13920  0.74000  Biso   1.000  C
  C18      1.0000 0.21390  0.12210  0.70900  Biso   1.000  C
  C19      1.0000 0.16500  0.04590  0.71610  Biso   1.000  C
  C20      1.0000 0.06560  0.03000  0.68990  Biso   1.000  C
  C21      1.0000 0.01240  0.95260  0.69860  Biso   1.000  C
  C22      1.0000 0.01360  0.09090  0.65660  Biso   1.000  C
  C23      1.0000 0.06400  0.16500  0.64730  Biso   1.000  C
  C24      1.0000 0.16210  0.18080  0.67460  Biso   1.000  C
  C25      1.0000 0.67740  0.21000  0.67150  Biso   1.000  C
  C26      1.0000 0.61960  0.17160  0.61640  Biso   1.000  C
  C27      1.0000 0.63980  0.19590  0.55540  Biso   1.000  C
  C28      1.0000 0.58480  0.16480  0.50650  Biso   1.000  C
  C29      1.0000 0.50030  0.10870  0.51770  Biso   1.000  C
  C30      1.0000 0.47730  0.08240  0.57900  Biso   1.000  C
  C31      1.0000 0.39370  0.02250  0.59050  Biso   1.000  C
  C32      1.0000 0.53880  0.11500  0.62840  Biso   1.000  C
  C33      1.0000 0.66870  0.98300  0.78840  Biso   1.000  C
  C34      1.0000 0.76810  0.01000  0.82260  Biso   1.000  C
  C35      1.0000 0.80540  0.96350  0.87240  Biso   1.000  C
  C36      1.0000 0.89220  0.98840  0.90530  Biso   1.000  C
  C37      1.0000 0.94990  0.05710  0.88750  Biso   1.000  C
  C38      1.0000 0.91500  0.10330  0.83700  Biso   1.000  C
  C39      1.0000 0.97660  0.17680  0.81960  Biso   1.000  C
  C40      1.0000 0.82240  0.07990  0.80470  Biso   1.000  C
  C41      1.0000 0.16530  0.40170  0.67470  Biso   1.000  C
  C42      1.0000 0.24200  0.37600  0.62520  Biso   1.000  C
  C43      1.0000 0.20740  0.36180  0.56470  Biso   1.000  C
  C44      1.0000 0.27450  0.33130  0.51940  Biso   1.000  C
  C45      1.0000 0.23560  0.31310  0.45630  Biso   1.000  C
  C46      1.0000 0.38200  0.31650  0.53450  Biso   1.000  C
  C47      1.0000 0.41910  0.33200  0.59480  Biso   1.000  C
  C48      1.0000 0.34840  0.36210  0.63990  Biso   1.000  C
  C49      1.0000 0.18070  0.63920  0.76000  Biso   1.000  C
  C50      1.0000 0.28610  0.62210  0.79100  Biso   1.000  C
  C51      1.0000 0.33500  0.54590  0.78390  Biso   1.000  C
  C52      1.0000 0.43440  0.53000  0.81010  Biso   1.000  C
  C53      1.0000 0.48760  0.45260  0.80140  Biso   1.000  C
  C54      1.0000 0.48640  0.59090  0.84340  Biso   1.000  C
  C55      1.0000 0.43600  0.66500  0.85270  Biso   1.000  C
  C56      1.0000 0.33790  0.68080  0.82540  Biso   1.000  C
  C57      1.0000 0.82260  0.71000  0.82850  Biso   1.000  C
  C58      1.0000 0.88040  0.67160  0.88360  Biso   1.000  C
  C59      1.0000 0.86020  0.69590  0.94460  Biso   1.000  C
  C60      1.0000 0.91520  0.66480  0.99350  Biso   1.000  C
  C61      1.0000 0.99970  0.60870  0.98230  Biso   1.000  C
  C62      1.0000 0.02270  0.58240  0.92100  Biso   1.000  C
  C63      1.0000 0.10630  0.52250  0.90950  Biso   1.000  C
  C64      1.0000 0.96120  0.61500  0.87160  Biso   1.000  C
  C65      1.0000 0.16870  0.51700  0.28840  Biso   1.000  C
  C66      1.0000 0.26810  0.49000  0.32260  Biso   1.000  C
  C67      1.0000 0.30540  0.53650  0.37240  Biso   1.000  C
  C68      1.0000 0.39220  0.51160  0.40530  Biso   1.000  C
  C69      1.0000 0.44990  0.44290  0.38750  Biso   1.000  C
  C70      1.0000 0.41500  0.39670  0.33700  Biso   1.000  C
  C71      1.0000 0.47660  0.32320  0.31960  Biso   1.000  C
  C72      1.0000 0.32240  0.42010  0.30470  Biso   1.000  C
  C73      1.0000 0.66530  0.09830  0.17470  Biso   1.000  C
  C74      1.0000 0.74200  0.12400  0.12520  Biso   1.000  C
  C75      1.0000 0.70740  0.13820  0.06470  Biso   1.000  C
  C76      1.0000 0.77450  0.16870  0.01940  Biso   1.000  C
  C77      1.0000 0.73560  0.18690  0.95630  Biso   1.000  C
  C78      1.0000 0.88200  0.18350  0.03450  Biso   1.000  C
  C79      1.0000 0.91910  0.16800  0.09480  Biso   1.000  C
  C80      1.0000 0.84840  0.13790  0.13990  Biso   1.000  C
  C81      1.0000 0.68070  0.86080  0.26000  Biso   1.000  C
  C82      1.0000 0.78610  0.87790  0.29100  Biso   1.000  C
  C83      1.0000 0.83500  0.95410  0.28390  Biso   1.000  C
  C84      1.0000 0.93440  0.97000  0.31010  Biso   1.000  C
  C85      1.0000 0.98760  0.04740  0.30140  Biso   1.000  C
  C86      1.0000 0.98640  0.90910  0.34340  Biso   1.000  C
  C87      1.0000 0.93600  0.83500  0.35270  Biso   1.000  C
  C88      1.0000 0.83790  0.81920  0.32540  Biso   1.000  C
  C89      1.0000 0.32260  0.79000  0.32850  Biso   1.000  C
  C90      1.0000 0.38040  0.82840  0.38360  Biso   1.000  C
  C91      1.0000 0.36020  0.80410  0.44460  Biso   1.000  C
  C92      1.0000 0.41520  0.83520  0.49350  Biso   1.000  C
  C93      1.0000 0.49970  0.89130  0.48230  Biso   1.000  C
  C94      1.0000 0.52270  0.91760  0.42100  Biso   1.000  C
  C95      1.0000 0.60630  0.97750  0.40950  Biso   1.000  C
  C96      1.0000 0.46120  0.88500  0.37160  Biso   1.000  C
  C97      1.0000 0.33130  0.01700  0.21160  Biso   1.000  C
  C98      1.0000 0.23190  0.99000  0.17740  Biso   1.000  C
  C99      1.0000 0.19460  0.03650  0.12760  Biso   1.000  C
  C100     1.0000 0.10780  0.01160  0.09470  Biso   1.000  C
  C101     1.0000 0.05010  0.94290  0.11250  Biso   1.000  C
  C102     1.0000 0.08500  0.89670  0.16300  Biso   1.000  C
  C103     1.0000 0.02340  0.82320  0.18040  Biso   1.000  C
  C104     1.0000 0.17760  0.92010  0.19530  Biso   1.000  C
  C105     1.0000 0.83470  0.59830  0.32530  Biso   1.000  C
  C106     1.0000 0.75800  0.62400  0.37480  Biso   1.000  C
  C107     1.0000 0.79260  0.63820  0.43530  Biso   1.000  C
  C108     1.0000 0.72550  0.66870  0.48060  Biso   1.000  C
  C109     1.0000 0.76440  0.68690  0.54370  Biso   1.000  C
  C110     1.0000 0.61800  0.68350  0.46550  Biso   1.000  C
  C111     1.0000 0.58090  0.66800  0.40520  Biso   1.000  C
  C112     1.0000 0.65160  0.63790  0.36010  Biso   1.000  C
  C113     1.0000 0.81930  0.36080  0.24000  Biso   1.000  C
  C114     1.0000 0.71390  0.37790  0.20900  Biso   1.000  C
  C115     1.0000 0.66500  0.45410  0.21610  Biso   1.000  C
  C116     1.0000 0.56560  0.47000  0.18990  Biso   1.000  C
  C117     1.0000 0.51240  0.54740  0.19860  Biso   1.000  C
  C118     1.0000 0.51360  0.40910  0.15660  Biso   1.000  C
  C119     1.0000 0.56400  0.33500  0.14730  Biso   1.000  C
  C120     1.0000 0.66210  0.31920  0.17460  Biso   1.000  C
  C121     1.0000 0.17740  0.29000  0.17150  Biso   1.000  C
  C122     1.0000 0.11960  0.32840  0.11640  Biso   1.000  C
  C123     1.0000 0.13980  0.30410  0.05540  Biso   1.000  C
  C124     1.0000 0.08480  0.33520  0.00650  Biso   1.000  C
  C125     1.0000 0.00030  0.39130  0.01770  Biso   1.000  C
  C126     1.0000 0.97730  0.41760  0.07900  Biso   1.000  C
  C127     1.0000 0.89370  0.47750  0.09050  Biso   1.000  C
  C128     1.0000 0.03880  0.38500  0.12840  Biso   1.000  C
  N1       1.0000 0.56260  0.74230  0.70880  Biso   1.000  N
  N2       1.0000 0.47890  0.79510  0.71150  Biso   1.000  N
  N3       1.0000 0.39470  0.76110  0.68560  Biso   1.000  N
  N4       1.0000 0.41980  0.68600  0.66560  Biso   1.000  N
  N5       1.0000 0.35450  0.84340  0.06940  Biso   1.000  N
  N6       1.0000 0.35990  0.81040  0.12700  Biso   1.000  N
  N7       1.0000 0.27640  0.76200  0.13530  Biso   1.000  N
  N8       1.0000 0.21440  0.76240  0.08350  Biso   1.000  N
  N9       1.0000 0.06090  0.87830  0.69940  Biso   1.000  N
  N10      1.0000 0.98030  0.82430  0.70930  Biso   1.000  N
  N11      1.0000 0.88920  0.86430  0.71320  Biso   1.000  N
  N12      1.0000 0.90600  0.94480  0.70600  Biso   1.000  N
  N13      1.0000 0.39160  0.96750  0.63720  Biso   1.000  N
  N14      1.0000 0.29800  0.92670  0.62780  Biso   1.000  N
  N15      1.0000 0.24980  0.95400  0.57820  Biso   1.000  N
  N16      1.0000 0.30790  0.01470  0.55390  Biso   1.000  N
  N17      1.0000 0.93740  0.24230  0.79120  Biso   1.000  N
  N18      1.0000 0.02110  0.29510  0.78850  Biso   1.000  N
  N19      1.0000 0.10530  0.26110  0.81440  Biso   1.000  N
  N20      1.0000 0.08020  0.18600  0.83440  Biso   1.000  N
  N21      1.0000 0.14550  0.34340  0.43060  Biso   1.000  N
  N22      1.0000 0.14010  0.31040  0.37300  Biso   1.000  N
  N23      1.0000 0.22360  0.26200  0.36470  Biso   1.000  N
  N24      1.0000 0.28560  0.26240  0.41650  Biso   1.000  N
  N25      1.0000 0.43910  0.37830  0.80060  Biso   1.000  N
  N26      1.0000 0.51970  0.32430  0.79070  Biso   1.000  N
  N27      1.0000 0.61080  0.36430  0.78680  Biso   1.000  N
  N28      1.0000 0.59400  0.44480  0.79400  Biso   1.000  N
  N29      1.0000 0.10840  0.46750  0.86280  Biso   1.000  N
  N30      1.0000 0.20200  0.42670  0.87220  Biso   1.000  N
  N31      1.0000 0.25020  0.45400  0.92180  Biso   1.000  N
  N32      1.0000 0.19210  0.51470  0.94610  Biso   1.000  N
  N33      1.0000 0.43740  0.25770  0.29120  Biso   1.000  N
  N34      1.0000 0.52110  0.20490  0.28850  Biso   1.000  N
  N35      1.0000 0.60530  0.23890  0.31440  Biso   1.000  N
  N36      1.0000 0.58020  0.31400  0.33440  Biso   1.000  N
  N37      1.0000 0.64550  0.15660  0.93060  Biso   1.000  N
  N38      1.0000 0.64010  0.18960  0.87300  Biso   1.000  N
  N39      1.0000 0.72360  0.23800  0.86470  Biso   1.000  N
  N40      1.0000 0.78560  0.23760  0.91650  Biso   1.000  N
  N41      1.0000 0.93910  0.12170  0.30060  Biso   1.000  N
  N42      1.0000 0.01970  0.17570  0.29070  Biso   1.000  N
  N43      1.0000 0.11080  0.13570  0.28680  Biso   1.000  N
  N44      1.0000 0.09400  0.05520  0.29400  Biso   1.000  N
  N45      1.0000 0.60840  0.03250  0.36280  Biso   1.000  N
  N46      1.0000 0.70200  0.07330  0.37220  Biso   1.000  N
  N47      1.0000 0.75020  0.04600  0.42180  Biso   1.000  N
  N48      1.0000 0.69210  0.98530  0.44610  Biso   1.000  N
  N49      1.0000 0.06260  0.75770  0.20880  Biso   1.000  N
  N50      1.0000 0.97890  0.70490  0.21150  Biso   1.000  N
  N51      1.0000 0.89470  0.73890  0.18560  Biso   1.000  N
  N52      1.0000 0.91980  0.81400  0.16560  Biso   1.000  N
  N53      1.0000 0.85450  0.65660  0.56940  Biso   1.000  N
  N54      1.0000 0.85990  0.68960  0.62700  Biso   1.000  N
  N55      1.0000 0.77640  0.73800  0.63530  Biso   1.000  N
  N56      1.0000 0.71440  0.73760  0.58350  Biso   1.000  N
  N57      1.0000 0.56090  0.62170  0.19940  Biso   1.000  N
  N58      1.0000 0.48030  0.67570  0.20930  Biso   1.000  N
  N59      1.0000 0.38920  0.63570  0.21320  Biso   1.000  N
  N60      1.0000 0.40600  0.55520  0.20600  Biso   1.000  N
  N61      1.0000 0.89160  0.53250  0.13720  Biso   1.000  N
  N62      1.0000 0.79800  0.57330  0.12780  Biso   1.000  N
  N63      1.0000 0.74980  0.54600  0.07820  Biso   1.000  N
  N64      1.0000 0.80790  0.48530  0.05390  Biso   1.000  N
  O1       1.0000 0.89560  0.53340  0.73380  Biso   1.000  O
  O2       1.0000 0.84940  0.40730  0.71790  Biso   1.000  O
  O3       1.0000 0.42860  0.92580  0.83910  Biso   1.000  O
  O4       1.0000 0.30730  0.89570  0.76740  Biso   1.000  O
  O5       1.0000 0.38400  0.08370  0.75370  Biso   1.000  O
  O6       1.0000 0.34460  0.21260  0.75380  Biso   1.000  O
  O7       1.0000 0.64240  0.20000  0.72670  Biso   1.000  O
  O8       1.0000 0.75940  0.25260  0.66270  Biso   1.000  O
  O9       1.0000 0.15210  0.74710  0.60740  Biso   1.000  O
  O10      1.0000 0.60440  0.03340  0.76620  Biso   1.000  O
  O11      1.0000 0.65060  0.90730  0.78210  Biso   1.000  O
  O12      1.0000 0.07140  0.42580  0.66090  Biso   1.000  O
  O13      1.0000 0.19270  0.39570  0.73260  Biso   1.000  O
  O14      1.0000 0.11600  0.58370  0.74630  Biso   1.000  O
  O15      1.0000 0.15540  0.71260  0.74620  Biso   1.000  O
  O16      1.0000 0.85760  0.70000  0.77330  Biso   1.000  O
  O17      1.0000 0.74060  0.75260  0.83730  Biso   1.000  O
  O18      1.0000 0.34790  0.24710  0.89260  Biso   1.000  O
  O19      1.0000 0.10440  0.46660  0.26620  Biso   1.000  O
  O20      1.0000 0.15060  0.59270  0.28210  Biso   1.000  O
  O21      1.0000 0.57140  0.07420  0.16090  Biso   1.000  O
  O22      1.0000 0.69270  0.10430  0.23260  Biso   1.000  O
  O23      1.0000 0.61600  0.91630  0.24630  Biso   1.000  O
  O24      1.0000 0.65540  0.78740  0.24620  Biso   1.000  O
  O25      1.0000 0.35760  0.80000  0.27330  Biso   1.000  O
  O26      1.0000 0.24060  0.74740  0.33730  Biso   1.000  O
  O27      1.0000 0.84790  0.25290  0.39260  Biso   1.000  O
  O28      1.0000 0.39560  0.96660  0.23380  Biso   1.000  O
  O29      1.0000 0.34940  0.09270  0.21790  Biso   1.000  O
  O30      1.0000 0.92860  0.57420  0.33910  Biso   1.000  O
  O31      1.0000 0.80730  0.60430  0.26740  Biso   1.000  O
  O32      1.0000 0.88400  0.41630  0.25370  Biso   1.000  O
  O33      1.0000 0.84460  0.28740  0.25380  Biso   1.000  O
  O34      1.0000 0.14240  0.30000  0.22670  Biso   1.000  O
  O35      1.0000 0.25940  0.24740  0.16270  Biso   1.000  O
  O36      1.0000 0.65210  0.75290  0.10740  Biso   1.000  O
