data_image0
_cell_length_a       13.7633
_cell_length_b       16.6027
_cell_length_c       19.2303
_cell_angle_alpha    115.574
_cell_angle_beta     103.772
_cell_angle_gamma    90

_symmetry_space_group_name_H-M    P 1
_symmetry_int_tables_number       1

loop_
  _symmetry_equiv_pos_as_xyz
  'x, y, z'

loop_
  _atom_site_label
  _atom_site_occupancy
  _atom_site_fract_x
  _atom_site_fract_y
  _atom_site_fract_z
  _atom_site_thermal_displace_type
  _atom_site_B_iso_or_equiv
  _atom_site_type_symbol
  Zn1      1.0000 0.75588  0.08005  0.65112  Biso   1.000  Zn
  Zn2      1.0000 0.81630  0.15855  0.82754  Biso   1.000  Zn
  Zn3      1.0000 0.25588  0.57107  0.65112  Biso   1.000  Zn
  Zn4      1.0000 0.31630  0.66899  0.82754  Biso   1.000  Zn
  H1       1.0000 0.05800  0.00300  0.84340  Biso   1.000  H
  H2       1.0000 0.15590  0.88960  0.84200  Biso   1.000  H
  H3       1.0000 0.06880  0.76780  0.60180  Biso   1.000  H
  H4       1.0000 0.97430  0.88390  0.60300  Biso   1.000  H
  H5       1.0000 0.50940  0.47450  0.87800  Biso   1.000  H
  H6       1.0000 0.41640  0.35110  0.63720  Biso   1.000  H
  H7       1.0000 0.51400  0.23700  0.63540  Biso   1.000  H
  H8       1.0000 0.60850  0.36170  0.87600  Biso   1.000  H
  H9       1.0000 0.87940  0.05630  0.91840  Biso   1.000  H
  H10      1.0000 0.97730  0.07660  0.04120  Biso   1.000  H
  H11      1.0000 0.96410  0.34190  0.12060  Biso   1.000  H
  H12      1.0000 0.86860  0.31320  0.99520  Biso   1.000  H
  H13      1.0000 0.20560  0.18480  0.28380  Biso   1.000  H
  H14      1.0000 0.02960  0.42420  0.37400  Biso   1.000  H
  H15      1.0000 0.08450  0.52900  0.50640  Biso   1.000  H
  H16      1.0000 0.33840  0.42580  0.53340  Biso   1.000  H
  H17      1.0000 0.29200  0.31950  0.40100  Biso   1.000  H
  H18      1.0000 0.55800  0.84040  0.84340  Biso   1.000  H
  H19      1.0000 0.65590  0.95240  0.84200  Biso   1.000  H
  H20      1.0000 0.56880  0.83400  0.60180  Biso   1.000  H
  H21      1.0000 0.47430  0.71910  0.60300  Biso   1.000  H
  H22      1.0000 0.00940  0.40350  0.87800  Biso   1.000  H
  H23      1.0000 0.91640  0.28610  0.63720  Biso   1.000  H
  H24      1.0000 0.01400  0.39840  0.63540  Biso   1.000  H
  H25      1.0000 0.10850  0.51430  0.87600  Biso   1.000  H
  H26      1.0000 0.37940  0.86210  0.91840  Biso   1.000  H
  H27      1.0000 0.47730  0.96460  0.04120  Biso   1.000  H
  H28      1.0000 0.46410  0.77870  0.12060  Biso   1.000  H
  H29      1.0000 0.36860  0.68200  0.99520  Biso   1.000  H
  H30      1.0000 0.70560  0.09900  0.28380  Biso   1.000  H
  H31      1.0000 0.52960  0.94980  0.37400  Biso   1.000  H
  H32      1.0000 0.58450  0.97740  0.50640  Biso   1.000  H
  H33      1.0000 0.83840  0.10760  0.53340  Biso   1.000  H
  H34      1.0000 0.79200  0.08150  0.40100  Biso   1.000  H
  C1       1.0000 0.17860  0.73962  0.72228  Biso   1.000  C
  C2       1.0000 0.93130  0.02168  0.72500  Biso   1.000  C
  C3       1.0000 0.00310  0.95327  0.72320  Biso   1.000  C
  C4       1.0000 0.05950  0.95501  0.79432  Biso   1.000  C
  C5       1.0000 0.11740  0.88734  0.79360  Biso   1.000  C
  C6       1.0000 0.11935  0.81544  0.72156  Biso   1.000  C
  C7       1.0000 0.06620  0.81518  0.65086  Biso   1.000  C
  C8       1.0000 0.00920  0.88414  0.65158  Biso   1.000  C
  C9       1.0000 0.39380  0.50069  0.75784  Biso   1.000  C
  C10      1.0000 0.45446  0.42555  0.75770  Biso   1.000  C
  C11      1.0000 0.51130  0.42706  0.82892  Biso   1.000  C
  C12      1.0000 0.45560  0.35352  0.68556  Biso   1.000  C
  C13      1.0000 0.64233  0.21853  0.75318  Biso   1.000  C
  C14      1.0000 0.57230  0.28804  0.75530  Biso   1.000  C
  C15      1.0000 0.51390  0.28544  0.68446  Biso   1.000  C
  C16      1.0000 0.56980  0.35961  0.82770  Biso   1.000  C
  C17      1.0000 0.89900  0.11509  0.95956  Biso   1.000  C
  C18      1.0000 0.95680  0.12649  0.03292  Biso   1.000  C
  C19      1.0000 0.98400  0.21244  0.09398  Biso   1.000  C
  C20      1.0000 0.94930  0.28271  0.07976  Biso   1.000  C
  C21      1.0000 0.89260  0.26482  0.00458  Biso   1.000  C
  C22      1.0000 0.12340  0.29158  0.29086  Biso   1.000  C
  C23      1.0000 0.15660  0.20828  0.25696  Biso   1.000  C
  C24      1.0000 0.15450  0.35904  0.37366  Biso   1.000  C
  C25      1.0000 0.09280  0.42296  0.40562  Biso   1.000  C
  C26      1.0000 0.12600  0.48484  0.48486  Biso   1.000  C
  C27      1.0000 0.27500  0.42482  0.50084  Biso   1.000  C
  C28      1.0000 0.24770  0.36097  0.42174  Biso   1.000  C
  C29      1.0000 0.67860  0.98266  0.72228  Biso   1.000  C
  C30      1.0000 0.43130  0.70332  0.72500  Biso   1.000  C
  C31      1.0000 0.50310  0.76993  0.72320  Biso   1.000  C
  C32      1.0000 0.55950  0.83931  0.79432  Biso   1.000  C
  C33      1.0000 0.61740  0.90626  0.79360  Biso   1.000  C
  C34      1.0000 0.61935  0.90612  0.72156  Biso   1.000  C
  C35      1.0000 0.56620  0.83568  0.65086  Biso   1.000  C
  C36      1.0000 0.50920  0.76744  0.65158  Biso   1.000  C
  C37      1.0000 0.89380  0.25715  0.75784  Biso   1.000  C
  C38      1.0000 0.95446  0.33215  0.75770  Biso   1.000  C
  C39      1.0000 0.01130  0.40186  0.82892  Biso   1.000  C
  C40      1.0000 0.95560  0.33204  0.68556  Biso   1.000  C
  C41      1.0000 0.14233  0.53465  0.75318  Biso   1.000  C
  C42      1.0000 0.07230  0.46726  0.75530  Biso   1.000  C
  C43      1.0000 0.01390  0.39902  0.68446  Biso   1.000  C
  C44      1.0000 0.06980  0.46809  0.82770  Biso   1.000  C
  C45      1.0000 0.39900  0.84447  0.95956  Biso   1.000  C
  C46      1.0000 0.45680  0.90643  0.03292  Biso   1.000  C
  C47      1.0000 0.48400  0.88154  0.09398  Biso   1.000  C
  C48      1.0000 0.44930  0.79705  0.07976  Biso   1.000  C
  C49      1.0000 0.39260  0.73976  0.00458  Biso   1.000  C
  C50      1.0000 0.62340  0.99928  0.29086  Biso   1.000  C
  C51      1.0000 0.65660  0.04868  0.25696  Biso   1.000  C
  C52      1.0000 0.65450  0.01462  0.37366  Biso   1.000  C
  C53      1.0000 0.59280  0.98266  0.40562  Biso   1.000  C
  C54      1.0000 0.62600  0.00002  0.48486  Biso   1.000  C
  C55      1.0000 0.77500  0.07602  0.50084  Biso   1.000  C
  C56      1.0000 0.74770  0.06077  0.42174  Biso   1.000  C
  N1       1.0000 0.86972  0.18306  0.94440  Biso   1.000  N
  N2       1.0000 0.21426  0.48495  0.53238  Biso   1.000  N
  N3       1.0000 0.04760  0.22715  0.16906  Biso   1.000  N
  N4       1.0000 0.05469  0.30348  0.23558  Biso   1.000  N
  N5       1.0000 0.10700  0.16643  0.17910  Biso   1.000  N
  N6       1.0000 0.36972  0.76134  0.94440  Biso   1.000  N
  N7       1.0000 0.71426  0.04743  0.53238  Biso   1.000  N
  N8       1.0000 0.54760  0.94191  0.16906  Biso   1.000  N
  N9       1.0000 0.55469  0.93210  0.23558  Biso   1.000  N
  N10      1.0000 0.60700  0.01267  0.17910  Biso   1.000  N
  O1       1.0000 0.17603  0.67504  0.65576  Biso   1.000  O
  O2       1.0000 0.22581  0.74657  0.78880  Biso   1.000  O
  O3       1.0000 0.92587  0.07857  0.79224  Biso   1.000  O
  O4       1.0000 0.87967  0.01580  0.65958  Biso   1.000  O
  O5       1.0000 0.39650  0.56481  0.82432  Biso   1.000  O
  O6       1.0000 0.34522  0.49375  0.69146  Biso   1.000  O
  O7       1.0000 0.69608  0.22662  0.81876  Biso   1.000  O
  O8       1.0000 0.64399  0.15893  0.68538  Biso   1.000  O
  O9       1.0000 0.67603  0.98072  0.65576  Biso   1.000  O
  O10      1.0000 0.72581  0.04223  0.78880  Biso   1.000  O
  O11      1.0000 0.42587  0.71367  0.79224  Biso   1.000  O
  O12      1.0000 0.37967  0.64378  0.65958  Biso   1.000  O
  O13      1.0000 0.89650  0.25951  0.82432  Biso   1.000  O
  O14      1.0000 0.84522  0.19771  0.69146  Biso   1.000  O
  O15      1.0000 0.19608  0.59214  0.81876  Biso   1.000  O
  O16      1.0000 0.14399  0.52645  0.68538  Biso   1.000  O
  Zn5      1.0000 0.74412  0.42893  0.34888  Biso   1.000  Zn
  Zn6      1.0000 0.68370  0.33101  0.17246  Biso   1.000  Zn
  Zn7      1.0000 0.24412  0.91995  0.34888  Biso   1.000  Zn
  Zn8      1.0000 0.18370  0.84145  0.17246  Biso   1.000  Zn
  H35      1.0000 0.44200  0.15960  0.15660  Biso   1.000  H
  H36      1.0000 0.34410  0.04760  0.15800  Biso   1.000  H
  H37      1.0000 0.43120  0.16600  0.39820  Biso   1.000  H
  H38      1.0000 0.52570  0.28090  0.39700  Biso   1.000  H
  H39      1.0000 0.99060  0.59650  0.12200  Biso   1.000  H
  H40      1.0000 0.08360  0.71390  0.36280  Biso   1.000  H
  H41      1.0000 0.98600  0.60160  0.36460  Biso   1.000  H
  H42      1.0000 0.89150  0.48570  0.12400  Biso   1.000  H
  H43      1.0000 0.62060  0.13790  0.08160  Biso   1.000  H
  H44      1.0000 0.52270  0.03540  0.95880  Biso   1.000  H
  H45      1.0000 0.53590  0.22130  0.87940  Biso   1.000  H
  H46      1.0000 0.63140  0.31800  0.00480  Biso   1.000  H
  H47      1.0000 0.29440  0.90100  0.71620  Biso   1.000  H
  H48      1.0000 0.47040  0.05020  0.62600  Biso   1.000  H
  H49      1.0000 0.41550  0.02260  0.49360  Biso   1.000  H
  H50      1.0000 0.16160  0.89240  0.46660  Biso   1.000  H
  H51      1.0000 0.20800  0.91850  0.59900  Biso   1.000  H
  H52      1.0000 0.94200  0.99700  0.15660  Biso   1.000  H
  H53      1.0000 0.84410  0.11040  0.15800  Biso   1.000  H
  H54      1.0000 0.93120  0.23220  0.39820  Biso   1.000  H
  H55      1.0000 0.02570  0.11610  0.39700  Biso   1.000  H
  H56      1.0000 0.49060  0.52550  0.12200  Biso   1.000  H
  H57      1.0000 0.58360  0.64890  0.36280  Biso   1.000  H
  H58      1.0000 0.48600  0.76300  0.36460  Biso   1.000  H
  H59      1.0000 0.39150  0.63830  0.12400  Biso   1.000  H
  H60      1.0000 0.12060  0.94370  0.08160  Biso   1.000  H
  H61      1.0000 0.02270  0.92340  0.95880  Biso   1.000  H
  H62      1.0000 0.03590  0.65810  0.87940  Biso   1.000  H
  H63      1.0000 0.13140  0.68680  0.00480  Biso   1.000  H
  H64      1.0000 0.79440  0.81520  0.71620  Biso   1.000  H
  H65      1.0000 0.97040  0.57580  0.62600  Biso   1.000  H
  H66      1.0000 0.91550  0.47100  0.49360  Biso   1.000  H
  H67      1.0000 0.66160  0.57420  0.46660  Biso   1.000  H
  H68      1.0000 0.70800  0.68050  0.59900  Biso   1.000  H
  C57      1.0000 0.32140  0.01734  0.27772  Biso   1.000  C
  C58      1.0000 0.56870  0.29668  0.27500  Biso   1.000  C
  C59      1.0000 0.49690  0.23007  0.27680  Biso   1.000  C
  C60      1.0000 0.44050  0.16069  0.20568  Biso   1.000  C
  C61      1.0000 0.38260  0.09374  0.20640  Biso   1.000  C
  C62      1.0000 0.38065  0.09388  0.27844  Biso   1.000  C
  C63      1.0000 0.43380  0.16432  0.34914  Biso   1.000  C
  C64      1.0000 0.49080  0.23256  0.34842  Biso   1.000  C
  C65      1.0000 0.10620  0.74285  0.24216  Biso   1.000  C
  C66      1.0000 0.04554  0.66785  0.24230  Biso   1.000  C
  C67      1.0000 0.98870  0.59814  0.17108  Biso   1.000  C
  C68      1.0000 0.04440  0.66796  0.31444  Biso   1.000  C
  C69      1.0000 0.85767  0.46535  0.24682  Biso   1.000  C
  C70      1.0000 0.92770  0.53274  0.24470  Biso   1.000  C
  C71      1.0000 0.98610  0.60098  0.31554  Biso   1.000  C
  C72      1.0000 0.93020  0.53191  0.17230  Biso   1.000  C
  C73      1.0000 0.60100  0.15553  0.04044  Biso   1.000  C
  C74      1.0000 0.54320  0.09357  0.96708  Biso   1.000  C
  C75      1.0000 0.51600  0.11846  0.90602  Biso   1.000  C
  C76      1.0000 0.55070  0.20295  0.92024  Biso   1.000  C
  C77      1.0000 0.60740  0.26024  0.99542  Biso   1.000  C
  C78      1.0000 0.37660  0.00072  0.70914  Biso   1.000  C
  C79      1.0000 0.34340  0.95132  0.74304  Biso   1.000  C
  C80      1.0000 0.34550  0.98538  0.62634  Biso   1.000  C
  C81      1.0000 0.40720  0.01734  0.59438  Biso   1.000  C
  C82      1.0000 0.37400  0.99998  0.51514  Biso   1.000  C
  C83      1.0000 0.22500  0.92398  0.49916  Biso   1.000  C
  C84      1.0000 0.25230  0.93923  0.57826  Biso   1.000  C
  C85      1.0000 0.82140  0.26038  0.27772  Biso   1.000  C
  C86      1.0000 0.06870  0.97832  0.27500  Biso   1.000  C
  C87      1.0000 0.99690  0.04673  0.27680  Biso   1.000  C
  C88      1.0000 0.94050  0.04499  0.20568  Biso   1.000  C
  C89      1.0000 0.88260  0.11266  0.20640  Biso   1.000  C
  C90      1.0000 0.88065  0.18456  0.27844  Biso   1.000  C
  C91      1.0000 0.93380  0.18482  0.34914  Biso   1.000  C
  C92      1.0000 0.99080  0.11586  0.34842  Biso   1.000  C
  C93      1.0000 0.60620  0.49931  0.24216  Biso   1.000  C
  C94      1.0000 0.54554  0.57445  0.24230  Biso   1.000  C
  C95      1.0000 0.48870  0.57294  0.17108  Biso   1.000  C
  C96      1.0000 0.54440  0.64648  0.31444  Biso   1.000  C
  C97      1.0000 0.35767  0.78147  0.24682  Biso   1.000  C
  C98      1.0000 0.42770  0.71196  0.24470  Biso   1.000  C
  C99      1.0000 0.48610  0.71456  0.31554  Biso   1.000  C
  C100     1.0000 0.43020  0.64039  0.17230  Biso   1.000  C
  C101     1.0000 0.10100  0.88491  0.04044  Biso   1.000  C
  C102     1.0000 0.04320  0.87351  0.96708  Biso   1.000  C
  C103     1.0000 0.01600  0.78756  0.90602  Biso   1.000  C
  C104     1.0000 0.05070  0.71729  0.92024  Biso   1.000  C
  C105     1.0000 0.10740  0.73518  0.99542  Biso   1.000  C
  C106     1.0000 0.87660  0.70842  0.70914  Biso   1.000  C
  C107     1.0000 0.84340  0.79172  0.74304  Biso   1.000  C
  C108     1.0000 0.84550  0.64096  0.62634  Biso   1.000  C
  C109     1.0000 0.90720  0.57704  0.59438  Biso   1.000  C
  C110     1.0000 0.87400  0.51516  0.51514  Biso   1.000  C
  C111     1.0000 0.72500  0.57518  0.49916  Biso   1.000  C
  C112     1.0000 0.75230  0.63903  0.57826  Biso   1.000  C
  N11      1.0000 0.63028  0.23866  0.05560  Biso   1.000  N
  N12      1.0000 0.28574  0.95257  0.46762  Biso   1.000  N
  N13      1.0000 0.45240  0.05809  0.83094  Biso   1.000  N
  N14      1.0000 0.44531  0.06790  0.76442  Biso   1.000  N
  N15      1.0000 0.39300  0.98733  0.82090  Biso   1.000  N
  N16      1.0000 0.13028  0.81694  0.05560  Biso   1.000  N
  N17      1.0000 0.78574  0.51505  0.46762  Biso   1.000  N
  N18      1.0000 0.95240  0.77285  0.83094  Biso   1.000  N
  N19      1.0000 0.94531  0.69652  0.76442  Biso   1.000  N
  N20      1.0000 0.89300  0.83357  0.82090  Biso   1.000  N
  O17      1.0000 0.32397  0.01928  0.34424  Biso   1.000  O
  O18      1.0000 0.27419  0.95777  0.21120  Biso   1.000  O
  O19      1.0000 0.57413  0.28633  0.20776  Biso   1.000  O
  O20      1.0000 0.62033  0.35622  0.34042  Biso   1.000  O
  O21      1.0000 0.10350  0.74049  0.17568  Biso   1.000  O
  O22      1.0000 0.15478  0.80229  0.30854  Biso   1.000  O
  O23      1.0000 0.80392  0.40786  0.18124  Biso   1.000  O
  O24      1.0000 0.85601  0.47355  0.31462  Biso   1.000  O
  O25      1.0000 0.82397  0.32496  0.34424  Biso   1.000  O
  O26      1.0000 0.77419  0.25343  0.21120  Biso   1.000  O
  O27      1.0000 0.07413  0.92143  0.20776  Biso   1.000  O
  O28      1.0000 0.12033  0.98420  0.34042  Biso   1.000  O
  O29      1.0000 0.60350  0.43519  0.17568  Biso   1.000  O
  O30      1.0000 0.65478  0.50625  0.30854  Biso   1.000  O
  O31      1.0000 0.30392  0.77338  0.18124  Biso   1.000  O
  O32      1.0000 0.35601  0.84107  0.31462  Biso   1.000  O
