data_image0
_cell_length_a       14.4401
_cell_length_b       19.6977
_cell_length_c       19.6977
_cell_angle_alpha    82.2787
_cell_angle_beta     68.4975
_cell_angle_gamma    68.4974

_symmetry_space_group_name_H-M    P 1
_symmetry_int_tables_number       1

loop_
  _symmetry_equiv_pos_as_xyz
  'x, y, z'

loop_
  _atom_site_label
  _atom_site_occupancy
  _atom_site_fract_x
  _atom_site_fract_y
  _atom_site_fract_z
  _atom_site_thermal_displace_type
  _atom_site_B_iso_or_equiv
  _atom_site_type_symbol
  Co1      1.0000 0.16931  0.80950  0.17798  Biso   1.000  Co
  Co2      1.0000 0.15679  0.19050  0.82203  Biso   1.000  Co
  Co3      1.0000 0.65271  0.17797  0.19051  Biso   1.000  Co
  Co4      1.0000 0.02118  0.82203  0.80950  Biso   1.000  Co
  Co5      1.0000 0.09322  0.67797  0.30949  Biso   1.000  Co
  Co6      1.0000 0.08068  0.32203  0.69050  Biso   1.000  Co
  Co7      1.0000 0.22882  0.69050  0.67797  Biso   1.000  Co
  Co8      1.0000 0.59729  0.30950  0.32202  Biso   1.000  Co
  H1       1.0000 0.76760  0.78520  0.33340  Biso   1.000  H
  H2       1.0000 0.86580  0.95030  0.22950  Biso   1.000  H
  H3       1.0000 0.55270  0.97480  0.29800  Biso   1.000  H
  H4       1.0000 0.88620  0.21480  0.66660  Biso   1.000  H
  H5       1.0000 0.04560  0.04970  0.77050  Biso   1.000  H
  H6       1.0000 0.82550  0.02520  0.70200  Biso   1.000  H
  H7       1.0000 0.89900  0.33340  0.21480  Biso   1.000  H
  H8       1.0000 0.90470  0.22950  0.04970  Biso   1.000  H
  H9       1.0000 0.14930  0.29800  0.02520  Biso   1.000  H
  H10      1.0000 0.44720  0.66660  0.78520  Biso   1.000  H
  H11      1.0000 0.18390  0.77050  0.95030  Biso   1.000  H
  H12      1.0000 0.47250  0.70200  0.97480  Biso   1.000  H
  H13      1.0000 0.36380  0.83340  0.28520  Biso   1.000  H
  H14      1.0000 0.20440  0.72950  0.45030  Biso   1.000  H
  H15      1.0000 0.42450  0.79800  0.47480  Biso   1.000  H
  H16      1.0000 0.48240  0.16660  0.71480  Biso   1.000  H
  H17      1.0000 0.38420  0.27050  0.54970  Biso   1.000  H
  H18      1.0000 0.69730  0.20200  0.52520  Biso   1.000  H
  H19      1.0000 0.80280  0.71480  0.83340  Biso   1.000  H
  H20      1.0000 0.06610  0.54970  0.72950  Biso   1.000  H
  H21      1.0000 0.77750  0.52520  0.79800  Biso   1.000  H
  H22      1.0000 0.35100  0.28520  0.16660  Biso   1.000  H
  H23      1.0000 0.34530  0.45030  0.27050  Biso   1.000  H
  H24      1.0000 0.10070  0.47480  0.20200  Biso   1.000  H
  C1       1.0000 0.94279  0.81530  0.27452  Biso   1.000  C
  C2       1.0000 0.64704  0.87659  0.32393  Biso   1.000  C
  C3       1.0000 0.75182  0.83385  0.31551  Biso   1.000  C
  C4       1.0000 0.81033  0.93102  0.25292  Biso   1.000  C
  C5       1.0000 0.68520  0.05000  0.22840  Biso   1.000  C
  C6       1.0000 0.83162  0.86101  0.28195  Biso   1.000  C
  C7       1.0000 0.62347  0.94605  0.29421  Biso   1.000  C
  C8       1.0000 0.70630  0.97246  0.25874  Biso   1.000  C
  C9       1.0000 0.56300  0.84585  0.36035  Biso   1.000  C
  C10      1.0000 0.03261  0.18470  0.72548  Biso   1.000  C
  C11      1.0000 0.84756  0.12341  0.67607  Biso   1.000  C
  C12      1.0000 0.90118  0.16615  0.68449  Biso   1.000  C
  C13      1.0000 0.99427  0.06898  0.74708  Biso   1.000  C
  C14      1.0000 0.96360  0.95000  0.77160  Biso   1.000  C
  C15      1.0000 0.97458  0.13899  0.71805  Biso   1.000  C
  C16      1.0000 0.86373  0.05395  0.70579  Biso   1.000  C
  C17      1.0000 0.93750  0.02754  0.74126  Biso   1.000  C
  C18      1.0000 0.76920  0.15415  0.63965  Biso   1.000  C
  C19      1.0000 0.78269  0.27452  0.18470  Biso   1.000  C
  C20      1.0000 0.02903  0.32393  0.12341  Biso   1.000  C
  C21      1.0000 0.93267  0.31551  0.16615  Biso   1.000  C
  C22      1.0000 0.93675  0.25292  0.06898  Biso   1.000  C
  C23      1.0000 0.08640  0.22840  0.95000  Biso   1.000  C
  C24      1.0000 0.88643  0.28195  0.13899  Biso   1.000  C
  C25      1.0000 0.08232  0.29421  0.05395  Biso   1.000  C
  C26      1.0000 0.03496  0.25874  0.02754  Biso   1.000  C
  C27      1.0000 0.07665  0.36035  0.15415  Biso   1.000  C
  C28      1.0000 0.24191  0.72548  0.81530  Biso   1.000  C
  C29      1.0000 0.47637  0.67607  0.87659  Biso   1.000  C
  C30      1.0000 0.41433  0.68449  0.83385  Biso   1.000  C
  C31      1.0000 0.25865  0.74708  0.93102  Biso   1.000  C
  C32      1.0000 0.26480  0.77160  0.05000  Biso   1.000  C
  C33      1.0000 0.30737  0.71805  0.86101  Biso   1.000  C
  C34      1.0000 0.43048  0.70579  0.94605  Biso   1.000  C
  C35      1.0000 0.32124  0.74126  0.97246  Biso   1.000  C
  C36      1.0000 0.59115  0.63965  0.84585  Biso   1.000  C
  C37      1.0000 0.21739  0.77452  0.31530  Biso   1.000  C
  C38      1.0000 0.40244  0.82393  0.37659  Biso   1.000  C
  C39      1.0000 0.34882  0.81551  0.33385  Biso   1.000  C
  C40      1.0000 0.25573  0.75292  0.43102  Biso   1.000  C
  C41      1.0000 0.28640  0.72840  0.55000  Biso   1.000  C
  C42      1.0000 0.27542  0.78195  0.36101  Biso   1.000  C
  C43      1.0000 0.38627  0.79421  0.44605  Biso   1.000  C
  C44      1.0000 0.31250  0.75874  0.47246  Biso   1.000  C
  C45      1.0000 0.48080  0.86035  0.34585  Biso   1.000  C
  C46      1.0000 0.30721  0.22548  0.68470  Biso   1.000  C
  C47      1.0000 0.60296  0.17607  0.62341  Biso   1.000  C
  C48      1.0000 0.49818  0.18449  0.66615  Biso   1.000  C
  C49      1.0000 0.43967  0.24708  0.56898  Biso   1.000  C
  C50      1.0000 0.56480  0.27160  0.45000  Biso   1.000  C
  C51      1.0000 0.41838  0.21805  0.63899  Biso   1.000  C
  C52      1.0000 0.62653  0.20579  0.55395  Biso   1.000  C
  C53      1.0000 0.54370  0.24126  0.52754  Biso   1.000  C
  C54      1.0000 0.68700  0.13965  0.65415  Biso   1.000  C
  C55      1.0000 0.00809  0.68470  0.77452  Biso   1.000  C
  C56      1.0000 0.77363  0.62341  0.82393  Biso   1.000  C
  C57      1.0000 0.83567  0.66615  0.81551  Biso   1.000  C
  C58      1.0000 0.99135  0.56898  0.75292  Biso   1.000  C
  C59      1.0000 0.98520  0.45000  0.72840  Biso   1.000  C
  C60      1.0000 0.94263  0.63899  0.78195  Biso   1.000  C
  C61      1.0000 0.81952  0.55395  0.79421  Biso   1.000  C
  C62      1.0000 0.92876  0.52754  0.75874  Biso   1.000  C
  C63      1.0000 0.65885  0.65415  0.86035  Biso   1.000  C
  C64      1.0000 0.46731  0.31530  0.22548  Biso   1.000  C
  C65      1.0000 0.22097  0.37659  0.17607  Biso   1.000  C
  C66      1.0000 0.31733  0.33385  0.18449  Biso   1.000  C
  C67      1.0000 0.31325  0.43102  0.24708  Biso   1.000  C
  C68      1.0000 0.16360  0.55000  0.27160  Biso   1.000  C
  C69      1.0000 0.36357  0.36101  0.21805  Biso   1.000  C
  C70      1.0000 0.16768  0.44605  0.20579  Biso   1.000  C
  C71      1.0000 0.21504  0.47246  0.24126  Biso   1.000  C
  C72      1.0000 0.17335  0.34585  0.13965  Biso   1.000  C
  O1       1.0000 0.01358  0.84345  0.23909  Biso   1.000  O
  O2       1.0000 0.75944  0.07451  0.20315  Biso   1.000  O
  O3       1.0000 0.95849  0.75366  0.30386  Biso   1.000  O
  O4       1.0000 0.59492  0.08688  0.22816  Biso   1.000  O
  O5       1.0000 0.60100  0.77770  0.40010  Biso   1.000  O
  O6       1.0000 0.09612  0.15655  0.76091  Biso   1.000  O
  O7       1.0000 0.03710  0.92549  0.79685  Biso   1.000  O
  O8       1.0000 0.01601  0.24634  0.69614  Biso   1.000  O
  O9       1.0000 0.90996  0.91312  0.77184  Biso   1.000  O
  O10      1.0000 0.77880  0.22230  0.59990  Biso   1.000  O
  O11      1.0000 0.74733  0.23909  0.15655  Biso   1.000  O
  O12      1.0000 0.03741  0.20315  0.92549  Biso   1.000  O
  O13      1.0000 0.73765  0.30386  0.24634  Biso   1.000  O
  O14      1.0000 0.17692  0.22816  0.91312  Biso   1.000  O
  O15      1.0000 0.99890  0.40010  0.22230  Biso   1.000  O
  O16      1.0000 0.14297  0.76091  0.84345  Biso   1.000  O
  O17      1.0000 0.16605  0.79685  0.07451  Biso   1.000  O
  O18      1.0000 0.28785  0.69614  0.75366  Biso   1.000  O
  O19      1.0000 0.31820  0.77184  0.08688  Biso   1.000  O
  O20      1.0000 0.62130  0.59990  0.77770  Biso   1.000  O
  O21      1.0000 0.15388  0.73909  0.34345  Biso   1.000  O
  O22      1.0000 0.21290  0.70315  0.57451  Biso   1.000  O
  O23      1.0000 0.23399  0.80386  0.25366  Biso   1.000  O
  O24      1.0000 0.34004  0.72816  0.58688  Biso   1.000  O
  O25      1.0000 0.47120  0.90010  0.27770  Biso   1.000  O
  O26      1.0000 0.23642  0.26091  0.65655  Biso   1.000  O
  O27      1.0000 0.49056  0.29685  0.42549  Biso   1.000  O
  O28      1.0000 0.29151  0.19614  0.74634  Biso   1.000  O
  O29      1.0000 0.65508  0.27184  0.41312  Biso   1.000  O
  O30      1.0000 0.64900  0.09990  0.72230  Biso   1.000  O
  O31      1.0000 0.10703  0.65655  0.73909  Biso   1.000  O
  O32      1.0000 0.08395  0.42549  0.70315  Biso   1.000  O
  O33      1.0000 0.96215  0.74634  0.80386  Biso   1.000  O
  O34      1.0000 0.93180  0.41312  0.72816  Biso   1.000  O
  O35      1.0000 0.62870  0.72230  0.90010  Biso   1.000  O
  O36      1.0000 0.50267  0.34345  0.26091  Biso   1.000  O
  O37      1.0000 0.21259  0.57451  0.29685  Biso   1.000  O
  O38      1.0000 0.51235  0.25366  0.19614  Biso   1.000  O
  O39      1.0000 0.07308  0.58688  0.27184  Biso   1.000  O
  O40      1.0000 0.25110  0.27770  0.09990  Biso   1.000  O
