data_image0
_cell_length_a       18.6178
_cell_length_b       19.754
_cell_length_c       23.1423
_cell_angle_alpha    66.0857
_cell_angle_beta     66.2813
_cell_angle_gamma    61.8852

_symmetry_space_group_name_H-M    P 1
_symmetry_int_tables_number       1

loop_
  _symmetry_equiv_pos_as_xyz
  'x, y, z'

loop_
  _atom_site_label
  _atom_site_occupancy
  _atom_site_fract_x
  _atom_site_fract_y
  _atom_site_fract_z
  _atom_site_thermal_displace_type
  _atom_site_B_iso_or_equiv
  _atom_site_type_symbol
  Cd1      1.0000 0.33217  0.88532  0.69552  Biso   1.000  Cd
  Cd2      1.0000 0.46125  0.68077  0.67747  Biso   1.000  Cd
  Cd3      1.0000 0.73979  0.69001  0.95887  Biso   1.000  Cd
  Cd4      1.0000 0.91301  0.61468  0.80448  Biso   1.000  Cd
  Cd5      1.0000 0.81949  0.81923  0.82253  Biso   1.000  Cd
  Cd6      1.0000 0.38867  0.80999  0.54113  Biso   1.000  Cd
  Cd7      1.0000 0.66783  0.11468  0.30448  Biso   1.000  Cd
  Cd8      1.0000 0.53875  0.31923  0.32253  Biso   1.000  Cd
  Cd9      1.0000 0.26021  0.30999  0.04113  Biso   1.000  Cd
  Cd10     1.0000 0.08699  0.38532  0.19552  Biso   1.000  Cd
  Cd11     1.0000 0.18051  0.18077  0.17747  Biso   1.000  Cd
  Cd12     1.0000 0.61133  0.19001  0.45887  Biso   1.000  Cd
  H1       1.0000 0.65590  0.68870  0.75210  Biso   1.000  H
  H2       1.0000 0.42370  0.84030  0.81690  Biso   1.000  H
  H3       1.0000 0.62250  0.82640  0.85660  Biso   1.000  H
  H4       1.0000 0.35950  0.92460  0.98580  Biso   1.000  H
  H5       1.0000 0.49840  0.05930  0.88790  Biso   1.000  H
  H6       1.0000 0.28510  0.99780  0.06160  Biso   1.000  H
  H7       1.0000 0.42320  0.13190  0.96590  Biso   1.000  H
  H8       1.0000 0.44550  0.03600  0.45080  Biso   1.000  H
  H9       1.0000 0.24380  0.09270  0.60030  Biso   1.000  H
  H10      1.0000 0.36820  0.24260  0.49240  Biso   1.000  H
  H11      1.0000 0.11450  0.27660  0.68080  Biso   1.000  H
  H12      1.0000 0.23810  0.41970  0.57410  Biso   1.000  H
  H13      1.0000 0.02030  0.36790  0.74210  Biso   1.000  H
  H14      1.0000 0.14470  0.51250  0.63230  Biso   1.000  H
  H15      1.0000 0.65660  0.71270  0.20430  Biso   1.000  H
  H16      1.0000 0.73660  0.71510  0.20970  Biso   1.000  H
  H17      1.0000 0.70550  0.76390  0.14590  Biso   1.000  H
  H18      1.0000 0.87190  0.56190  0.16330  Biso   1.000  H
  H19      1.0000 0.83950  0.61800  0.20800  Biso   1.000  H
  H20      1.0000 0.79760  0.55670  0.22670  Biso   1.000  H
  H21      1.0000 0.81500  0.61290  0.07810  Biso   1.000  H
  H22      1.0000 0.09670  0.81130  0.74790  Biso   1.000  H
  H23      1.0000 0.08090  0.65970  0.68310  Biso   1.000  H
  H24      1.0000 0.30550  0.67360  0.64340  Biso   1.000  H
  H25      1.0000 0.26990  0.57540  0.51420  Biso   1.000  H
  H26      1.0000 0.44560  0.44070  0.61210  Biso   1.000  H
  H27      1.0000 0.34450  0.50220  0.43840  Biso   1.000  H
  H28      1.0000 0.52100  0.36810  0.53410  Biso   1.000  H
  H29      1.0000 0.93230  0.46400  0.04920  Biso   1.000  H
  H30      1.0000 0.93680  0.40730  0.89970  Biso   1.000  H
  H31      1.0000 0.10320  0.25740  0.00760  Biso   1.000  H
  H32      1.0000 0.07190  0.22340  0.81920  Biso   1.000  H
  H33      1.0000 0.23190  0.08030  0.92590  Biso   1.000  H
  H34      1.0000 0.13030  0.13210  0.75790  Biso   1.000  H
  H35      1.0000 0.28950  0.98750  0.86770  Biso   1.000  H
  H36      1.0000 0.57360  0.78730  0.29570  Biso   1.000  H
  H37      1.0000 0.66140  0.78490  0.29030  Biso   1.000  H
  H38      1.0000 0.61530  0.73610  0.35410  Biso   1.000  H
  H39      1.0000 0.59710  0.93810  0.33670  Biso   1.000  H
  H40      1.0000 0.66550  0.88200  0.29200  Biso   1.000  H
  H41      1.0000 0.58100  0.94330  0.27330  Biso   1.000  H
  H42      1.0000 0.50600  0.88710  0.42190  Biso   1.000  H
  H43      1.0000 0.34410  0.31130  0.24790  Biso   1.000  H
  H44      1.0000 0.57630  0.15970  0.18310  Biso   1.000  H
  H45      1.0000 0.37750  0.17360  0.14340  Biso   1.000  H
  H46      1.0000 0.64050  0.07540  0.01420  Biso   1.000  H
  H47      1.0000 0.50160  0.94070  0.11210  Biso   1.000  H
  H48      1.0000 0.71490  0.00220  0.93840  Biso   1.000  H
  H49      1.0000 0.57680  0.86810  0.03410  Biso   1.000  H
  H50      1.0000 0.55450  0.96400  0.54920  Biso   1.000  H
  H51      1.0000 0.75620  0.90730  0.39970  Biso   1.000  H
  H52      1.0000 0.63180  0.75740  0.50760  Biso   1.000  H
  H53      1.0000 0.88550  0.72340  0.31920  Biso   1.000  H
  H54      1.0000 0.76190  0.58030  0.42590  Biso   1.000  H
  H55      1.0000 0.97970  0.63210  0.25790  Biso   1.000  H
  H56      1.0000 0.85530  0.48750  0.36770  Biso   1.000  H
  H57      1.0000 0.34340  0.28730  0.79570  Biso   1.000  H
  H58      1.0000 0.26340  0.28490  0.79030  Biso   1.000  H
  H59      1.0000 0.29450  0.23610  0.85410  Biso   1.000  H
  H60      1.0000 0.12810  0.43810  0.83670  Biso   1.000  H
  H61      1.0000 0.16050  0.38200  0.79200  Biso   1.000  H
  H62      1.0000 0.20240  0.44330  0.77330  Biso   1.000  H
  H63      1.0000 0.18500  0.38710  0.92190  Biso   1.000  H
  H64      1.0000 0.90330  0.18870  0.25210  Biso   1.000  H
  H65      1.0000 0.91910  0.34030  0.31690  Biso   1.000  H
  H66      1.0000 0.69450  0.32640  0.35660  Biso   1.000  H
  H67      1.0000 0.73010  0.42460  0.48580  Biso   1.000  H
  H68      1.0000 0.55440  0.55930  0.38790  Biso   1.000  H
  H69      1.0000 0.65550  0.49780  0.56160  Biso   1.000  H
  H70      1.0000 0.47900  0.63190  0.46590  Biso   1.000  H
  H71      1.0000 0.06770  0.53600  0.95080  Biso   1.000  H
  H72      1.0000 0.06320  0.59270  0.10030  Biso   1.000  H
  H73      1.0000 0.89680  0.74260  0.99240  Biso   1.000  H
  H74      1.0000 0.92810  0.77660  0.18080  Biso   1.000  H
  H75      1.0000 0.76810  0.91970  0.07410  Biso   1.000  H
  H76      1.0000 0.86970  0.86790  0.24210  Biso   1.000  H
  H77      1.0000 0.71050  0.01250  0.13230  Biso   1.000  H
  H78      1.0000 0.42640  0.21270  0.70430  Biso   1.000  H
  H79      1.0000 0.33860  0.21510  0.70970  Biso   1.000  H
  H80      1.0000 0.38470  0.26390  0.64590  Biso   1.000  H
  H81      1.0000 0.40290  0.06190  0.66330  Biso   1.000  H
  H82      1.0000 0.33450  0.11800  0.70800  Biso   1.000  H
  H83      1.0000 0.41900  0.05670  0.72670  Biso   1.000  H
  H84      1.0000 0.49400  0.11290  0.57810  Biso   1.000  H
  C1       1.0000 0.62020  0.72750  0.77470  Biso   1.000  C
  C2       1.0000 0.50060  0.73260  0.74800  Biso   1.000  C
  C3       1.0000 0.53469  0.76072  0.77890  Biso   1.000  C
  C4       1.0000 0.65315  0.75190  0.80420  Biso   1.000  C
  C5       1.0000 0.74377  0.71126  0.80360  Biso   1.000  C
  C6       1.0000 0.48130  0.81850  0.81310  Biso   1.000  C
  C7       1.0000 0.60070  0.80980  0.83720  Biso   1.000  C
  C8       1.0000 0.51450  0.84330  0.84110  Biso   1.000  C
  C9       1.0000 0.43490  0.98600  0.92880  Biso   1.000  C
  C10      1.0000 0.37200  0.96730  0.98090  Biso   1.000  C
  C11      1.0000 0.45490  0.04700  0.92260  Biso   1.000  C
  C12      1.0000 0.32740  0.01100  0.02600  Biso   1.000  C
  C13      1.0000 0.40890  0.09090  0.96950  Biso   1.000  C
  C14      1.0000 0.34630  0.07550  0.01810  Biso   1.000  C
  C15      1.0000 0.29820  0.11950  0.07030  Biso   1.000  C
  C16      1.0000 0.40859  0.07092  0.47670  Biso   1.000  C
  C17      1.0000 0.33640  0.97460  0.54320  Biso   1.000  C
  C18      1.0000 0.34382  0.05206  0.52830  Biso   1.000  C
  C19      1.0000 0.41884  0.14142  0.46330  Biso   1.000  C
  C20      1.0000 0.49362  0.15816  0.41140  Biso   1.000  C
  C21      1.0000 0.28750  0.10480  0.56580  Biso   1.000  C
  C22      1.0000 0.36206  0.19498  0.50110  Biso   1.000  C
  C23      1.0000 0.29662  0.17646  0.55150  Biso   1.000  C
  C24      1.0000 0.17980  0.34330  0.61770  Biso   1.000  C
  C25      1.0000 0.11960  0.32530  0.66950  Biso   1.000  C
  C26      1.0000 0.19170  0.41030  0.60670  Biso   1.000  C
  C27      1.0000 0.06360  0.38020  0.70700  Biso   1.000  C
  C28      1.0000 0.13710  0.46530  0.64250  Biso   1.000  C
  C29      1.0000 0.07150  0.44920  0.69320  Biso   1.000  C
  C30      1.0000 0.01240  0.50770  0.73450  Biso   1.000  C
  C31      1.0000 0.71130  0.71560  0.18060  Biso   1.000  C
  C32      1.0000 0.82300  0.59190  0.19110  Biso   1.000  C
  C33      1.0000 0.76850  0.65310  0.09510  Biso   1.000  C
  C34      1.0000 0.12240  0.77250  0.72530  Biso   1.000  C
  C35      1.0000 0.98120  0.76740  0.75200  Biso   1.000  C
  C36      1.0000 0.07431  0.73928  0.72110  Biso   1.000  C
  C37      1.0000 0.20925  0.74810  0.69580  Biso   1.000  C
  C38      1.0000 0.25863  0.78874  0.69640  Biso   1.000  C
  C39      1.0000 0.11290  0.68150  0.68690  Biso   1.000  C
  C40      1.0000 0.24770  0.69020  0.66280  Biso   1.000  C
  C41      1.0000 0.19890  0.65670  0.65890  Biso   1.000  C
  C42      1.0000 0.34970  0.51400  0.57120  Biso   1.000  C
  C43      1.0000 0.32020  0.53270  0.51910  Biso   1.000  C
  C44      1.0000 0.42450  0.45300  0.57740  Biso   1.000  C
  C45      1.0000 0.36440  0.48900  0.47400  Biso   1.000  C
  C46      1.0000 0.46930  0.40910  0.53050  Biso   1.000  C
  C47      1.0000 0.43990  0.42450  0.48190  Biso   1.000  C
  C48      1.0000 0.48800  0.38050  0.42970  Biso   1.000  C
  C49      1.0000 0.95621  0.42908  0.02330  Biso   1.000  C
  C50      1.0000 0.85420  0.52540  0.95680  Biso   1.000  C
  C51      1.0000 0.92418  0.44794  0.97170  Biso   1.000  C
  C52      1.0000 0.02356  0.35858  0.03670  Biso   1.000  C
  C53      1.0000 0.06318  0.34184  0.08860  Biso   1.000  C
  C54      1.0000 0.95810  0.39520  0.93420  Biso   1.000  C
  C55      1.0000 0.05814  0.30502  0.99890  Biso   1.000  C
  C56      1.0000 0.02458  0.32354  0.94850  Biso   1.000  C
  C57      1.0000 0.14080  0.15670  0.88230  Biso   1.000  C
  C58      1.0000 0.11440  0.17470  0.83050  Biso   1.000  C
  C59      1.0000 0.20870  0.08970  0.89330  Biso   1.000  C
  C60      1.0000 0.15080  0.11980  0.79300  Biso   1.000  C
  C61      1.0000 0.24490  0.03470  0.85750  Biso   1.000  C
  C62      1.0000 0.21390  0.05080  0.80680  Biso   1.000  C
  C63      1.0000 0.25460  0.99230  0.76550  Biso   1.000  C
  C64      1.0000 0.60750  0.78440  0.31940  Biso   1.000  C
  C65      1.0000 0.60600  0.90810  0.30890  Biso   1.000  C
  C66      1.0000 0.51670  0.84690  0.40490  Biso   1.000  C
  C67      1.0000 0.37980  0.27250  0.22530  Biso   1.000  C
  C68      1.0000 0.49940  0.26740  0.25200  Biso   1.000  C
  C69      1.0000 0.46531  0.23928  0.22110  Biso   1.000  C
  C70      1.0000 0.34685  0.24810  0.19580  Biso   1.000  C
  C71      1.0000 0.25623  0.28874  0.19640  Biso   1.000  C
  C72      1.0000 0.51870  0.18150  0.18690  Biso   1.000  C
  C73      1.0000 0.39930  0.19020  0.16280  Biso   1.000  C
  C74      1.0000 0.48550  0.15670  0.15890  Biso   1.000  C
  C75      1.0000 0.56510  0.01400  0.07120  Biso   1.000  C
  C76      1.0000 0.62800  0.03270  0.01910  Biso   1.000  C
  C77      1.0000 0.54510  0.95300  0.07740  Biso   1.000  C
  C78      1.0000 0.67260  0.98900  0.97400  Biso   1.000  C
  C79      1.0000 0.59110  0.90910  0.03050  Biso   1.000  C
  C80      1.0000 0.65370  0.92450  0.98190  Biso   1.000  C
  C81      1.0000 0.70180  0.88050  0.92970  Biso   1.000  C
  C82      1.0000 0.59141  0.92908  0.52330  Biso   1.000  C
  C83      1.0000 0.66360  0.02540  0.45680  Biso   1.000  C
  C84      1.0000 0.65618  0.94794  0.47170  Biso   1.000  C
  C85      1.0000 0.58116  0.85858  0.53670  Biso   1.000  C
  C86      1.0000 0.50638  0.84184  0.58860  Biso   1.000  C
  C87      1.0000 0.71250  0.89520  0.43420  Biso   1.000  C
  C88      1.0000 0.63794  0.80502  0.49890  Biso   1.000  C
  C89      1.0000 0.70338  0.82354  0.44850  Biso   1.000  C
  C90      1.0000 0.82020  0.65670  0.38230  Biso   1.000  C
  C91      1.0000 0.88040  0.67470  0.33050  Biso   1.000  C
  C92      1.0000 0.80830  0.58970  0.39330  Biso   1.000  C
  C93      1.0000 0.93640  0.61980  0.29300  Biso   1.000  C
  C94      1.0000 0.86290  0.53470  0.35750  Biso   1.000  C
  C95      1.0000 0.92850  0.55080  0.30680  Biso   1.000  C
  C96      1.0000 0.98760  0.49230  0.26550  Biso   1.000  C
  C97      1.0000 0.28870  0.28440  0.81940  Biso   1.000  C
  C98      1.0000 0.17700  0.40810  0.80890  Biso   1.000  C
  C99      1.0000 0.23150  0.34690  0.90490  Biso   1.000  C
  C100     1.0000 0.87760  0.22750  0.27470  Biso   1.000  C
  C101     1.0000 0.01880  0.23260  0.24800  Biso   1.000  C
  C102     1.0000 0.92569  0.26072  0.27890  Biso   1.000  C
  C103     1.0000 0.79075  0.25190  0.30420  Biso   1.000  C
  C104     1.0000 0.74137  0.21126  0.30360  Biso   1.000  C
  C105     1.0000 0.88710  0.31850  0.31310  Biso   1.000  C
  C106     1.0000 0.75230  0.30980  0.33720  Biso   1.000  C
  C107     1.0000 0.80110  0.34330  0.34110  Biso   1.000  C
  C108     1.0000 0.65030  0.48600  0.42880  Biso   1.000  C
  C109     1.0000 0.67980  0.46730  0.48090  Biso   1.000  C
  C110     1.0000 0.57550  0.54700  0.42260  Biso   1.000  C
  C111     1.0000 0.63560  0.51100  0.52600  Biso   1.000  C
  C112     1.0000 0.53070  0.59090  0.46950  Biso   1.000  C
  C113     1.0000 0.56010  0.57550  0.51810  Biso   1.000  C
  C114     1.0000 0.51200  0.61950  0.57030  Biso   1.000  C
  C115     1.0000 0.04379  0.57092  0.97670  Biso   1.000  C
  C116     1.0000 0.14580  0.47460  0.04320  Biso   1.000  C
  C117     1.0000 0.07582  0.55206  0.02830  Biso   1.000  C
  C118     1.0000 0.97644  0.64142  0.96330  Biso   1.000  C
  C119     1.0000 0.93682  0.65816  0.91140  Biso   1.000  C
  C120     1.0000 0.04190  0.60480  0.06580  Biso   1.000  C
  C121     1.0000 0.94186  0.69498  0.00110  Biso   1.000  C
  C122     1.0000 0.97542  0.67646  0.05150  Biso   1.000  C
  C123     1.0000 0.85920  0.84330  0.11770  Biso   1.000  C
  C124     1.0000 0.88560  0.82530  0.16950  Biso   1.000  C
  C125     1.0000 0.79130  0.91030  0.10670  Biso   1.000  C
  C126     1.0000 0.84920  0.88020  0.20700  Biso   1.000  C
  C127     1.0000 0.75510  0.96530  0.14250  Biso   1.000  C
  C128     1.0000 0.78610  0.94920  0.19320  Biso   1.000  C
  C129     1.0000 0.74540  0.00770  0.23450  Biso   1.000  C
  C130     1.0000 0.39250  0.21560  0.68060  Biso   1.000  C
  C131     1.0000 0.39400  0.09190  0.69110  Biso   1.000  C
  C132     1.0000 0.48330  0.15310  0.59510  Biso   1.000  C
  N1       1.0000 0.45643  0.89844  0.87930  Biso   1.000  N
  N2       1.0000 0.48821  0.93838  0.88360  Biso   1.000  N
  N3       1.0000 0.23443  0.22704  0.59290  Biso   1.000  N
  N4       1.0000 0.24120  0.29180  0.57660  Biso   1.000  N
  N5       1.0000 0.76190  0.65220  0.15300  Biso   1.000  N
  N6       1.0000 0.23417  0.60156  0.62070  Biso   1.000  N
  N7       1.0000 0.31019  0.56162  0.61640  Biso   1.000  N
  N8       1.0000 0.05437  0.27296  0.90710  Biso   1.000  N
  N9       1.0000 0.10960  0.20820  0.92340  Biso   1.000  N
  N10      1.0000 0.56710  0.84780  0.34700  Biso   1.000  N
  N11      1.0000 0.54357  0.10156  0.12070  Biso   1.000  N
  N12      1.0000 0.51179  0.06162  0.11640  Biso   1.000  N
  N13      1.0000 0.76557  0.77296  0.40710  Biso   1.000  N
  N14      1.0000 0.75880  0.70820  0.42340  Biso   1.000  N
  N15      1.0000 0.23810  0.34780  0.84700  Biso   1.000  N
  N16      1.0000 0.76583  0.39844  0.37930  Biso   1.000  N
  N17      1.0000 0.68981  0.43838  0.38360  Biso   1.000  N
  N18      1.0000 0.94563  0.72704  0.09290  Biso   1.000  N
  N19      1.0000 0.89040  0.79180  0.07660  Biso   1.000  N
  N20      1.0000 0.43290  0.15220  0.65300  Biso   1.000  N
  O1       1.0000 0.42312  0.76356  0.75060  Biso   1.000  O
  O2       1.0000 0.55117  0.67936  0.72010  Biso   1.000  O
  O3       1.0000 0.76808  0.72304  0.84200  Biso   1.000  O
  O4       1.0000 0.79401  0.66788  0.76690  Biso   1.000  O
  O5       1.0000 0.31737  0.17456  0.06470  Biso   1.000  O
  O6       1.0000 0.24260  0.09860  0.11640  Biso   1.000  O
  O7       1.0000 0.29058  0.94914  0.59750  Biso   1.000  O
  O8       1.0000 0.38068  0.93544  0.50120  Biso   1.000  O
  O9       1.0000 0.53874  0.11432  0.37360  Biso   1.000  O
  O10      1.0000 0.50807  0.21486  0.41120  Biso   1.000  O
  O11      1.0000 0.02460  0.56130  0.72910  Biso   1.000  O
  O12      1.0000 0.94560  0.49420  0.77620  Biso   1.000  O
  O13      1.0000 0.38580  0.61020  0.75880  Biso   1.000  O
  O14      1.0000 0.61800  0.67680  0.97920  Biso   1.000  O
  O15      1.0000 0.72080  0.70030  0.05930  Biso   1.000  O
  O16      1.0000 0.93728  0.73644  0.74940  Biso   1.000  O
  O17      1.0000 0.95063  0.82064  0.77990  Biso   1.000  O
  O18      1.0000 0.33312  0.77696  0.65800  Biso   1.000  O
  O19      1.0000 0.22879  0.83212  0.73310  Biso   1.000  O
  O20      1.0000 0.55663  0.32544  0.43530  Biso   1.000  O
  O21      1.0000 0.45760  0.40140  0.38360  Biso   1.000  O
  O22      1.0000 0.83722  0.55086  0.90250  Biso   1.000  O
  O23      1.0000 0.81732  0.56456  0.99880  Biso   1.000  O
  O24      1.0000 0.02666  0.38568  0.12640  Biso   1.000  O
  O25      1.0000 0.13413  0.28514  0.08880  Biso   1.000  O
  O26      1.0000 0.31500  0.93870  0.77090  Biso   1.000  O
  O27      1.0000 0.21600  0.00580  0.72380  Biso   1.000  O
  O28      1.0000 0.75480  0.88980  0.74120  Biso   1.000  O
  O29      1.0000 0.27400  0.82320  0.52080  Biso   1.000  O
  O30      1.0000 0.48040  0.79970  0.44070  Biso   1.000  O
  O31      1.0000 0.57688  0.23644  0.24940  Biso   1.000  O
  O32      1.0000 0.44883  0.32064  0.27990  Biso   1.000  O
  O33      1.0000 0.23192  0.27696  0.15800  Biso   1.000  O
  O34      1.0000 0.20599  0.33212  0.23310  Biso   1.000  O
  O35      1.0000 0.68263  0.82544  0.93530  Biso   1.000  O
  O36      1.0000 0.75740  0.90140  0.88360  Biso   1.000  O
  O37      1.0000 0.70942  0.05086  0.40250  Biso   1.000  O
  O38      1.0000 0.61932  0.06456  0.49880  Biso   1.000  O
  O39      1.0000 0.46126  0.88568  0.62640  Biso   1.000  O
  O40      1.0000 0.49193  0.78514  0.58880  Biso   1.000  O
  O41      1.0000 0.97540  0.43870  0.27090  Biso   1.000  O
  O42      1.0000 0.05440  0.50580  0.22380  Biso   1.000  O
  O43      1.0000 0.61420  0.38980  0.24120  Biso   1.000  O
  O44      1.0000 0.38200  0.32320  0.02080  Biso   1.000  O
  O45      1.0000 0.27920  0.29970  0.94070  Biso   1.000  O
  O46      1.0000 0.06272  0.26356  0.25060  Biso   1.000  O
  O47      1.0000 0.04937  0.17936  0.22010  Biso   1.000  O
  O48      1.0000 0.66688  0.22304  0.34200  Biso   1.000  O
  O49      1.0000 0.77121  0.16788  0.26690  Biso   1.000  O
  O50      1.0000 0.44337  0.67456  0.56470  Biso   1.000  O
  O51      1.0000 0.54240  0.59860  0.61640  Biso   1.000  O
  O52      1.0000 0.16278  0.44914  0.09750  Biso   1.000  O
  O53      1.0000 0.18268  0.43544  0.00120  Biso   1.000  O
  O54      1.0000 0.97334  0.61432  0.87360  Biso   1.000  O
  O55      1.0000 0.86587  0.71486  0.91120  Biso   1.000  O
  O56      1.0000 0.68500  0.06130  0.22910  Biso   1.000  O
  O57      1.0000 0.78400  0.99420  0.27620  Biso   1.000  O
  O58      1.0000 0.24520  0.11020  0.25880  Biso   1.000  O
  O59      1.0000 0.72600  0.17680  0.47920  Biso   1.000  O
  O60      1.0000 0.51960  0.20030  0.55930  Biso   1.000  O
