data_image0
_cell_length_a       10.1034
_cell_length_b       25.155
_cell_length_c       9.104
_cell_angle_alpha    90
_cell_angle_beta     90
_cell_angle_gamma    90

_symmetry_space_group_name_H-M    "P 1"
_symmetry_int_tables_number       1

loop_
  _symmetry_equiv_pos_as_xyz
  'x, y, z'

loop_
  _atom_site_label
  _atom_site_occupancy
  _atom_site_fract_x
  _atom_site_fract_y
  _atom_site_fract_z
  _atom_site_thermal_displace_type
  _atom_site_B_iso_or_equiv
  _atom_site_type_symbol
  Zn1      1.0000 0.15762  0.55301  0.12094  Biso   1.000  Zn
  P1       1.0000 0.10956  0.68070  0.09736  Biso   1.000  P
  H1       1.0000 0.00050  0.68790  0.03650  Biso   1.000  H
  P2       1.0000 0.43152  0.52763  0.28455  Biso   1.000  P
  H2       1.0000 0.50150  0.57100  0.29030  Biso   1.000  H
  O1       1.0000 0.10960  0.72294  0.21670  Biso   1.000  O
  O2       1.0000 0.19820  0.69087  0.96770  Biso   1.000  O
  O3       1.0000 0.12140  0.62590  0.15910  Biso   1.000  O
  O4       1.0000 0.33870  0.53275  0.15550  Biso   1.000  O
  O5       1.0000 0.52890  0.48252  0.25080  Biso   1.000  O
  O6       1.0000 0.36210  0.52068  0.42970  Biso   1.000  O
  Zn2      1.0000 0.34238  0.94699  0.12094  Biso   1.000  Zn
  P3       1.0000 0.39044  0.81930  0.09736  Biso   1.000  P
  H3       1.0000 0.49950  0.81210  0.03650  Biso   1.000  H
  P4       1.0000 0.06848  0.97237  0.28455  Biso   1.000  P
  H4       1.0000 0.99850  0.92900  0.29030  Biso   1.000  H
  O7       1.0000 0.39040  0.77706  0.21670  Biso   1.000  O
  O8       1.0000 0.30180  0.80913  0.96770  Biso   1.000  O
  O9       1.0000 0.37860  0.87410  0.15910  Biso   1.000  O
  O10      1.0000 0.16130  0.96725  0.15550  Biso   1.000  O
  O11      1.0000 0.97110  0.01748  0.25080  Biso   1.000  O
  O12      1.0000 0.13790  0.97932  0.42970  Biso   1.000  O
  Zn3      1.0000 0.84238  0.05301  0.37906  Biso   1.000  Zn
  P5       1.0000 0.89044  0.18070  0.40264  Biso   1.000  P
  H5       1.0000 0.99950  0.18790  0.46350  Biso   1.000  H
  P6       1.0000 0.56848  0.02763  0.21545  Biso   1.000  P
  H6       1.0000 0.49850  0.07100  0.20970  Biso   1.000  H
  O13      1.0000 0.89040  0.22294  0.28330  Biso   1.000  O
  O14      1.0000 0.80180  0.19087  0.53230  Biso   1.000  O
  O15      1.0000 0.87860  0.12590  0.34090  Biso   1.000  O
  O16      1.0000 0.66130  0.03275  0.34450  Biso   1.000  O
  O17      1.0000 0.47110  0.98252  0.24920  Biso   1.000  O
  O18      1.0000 0.63790  0.02068  0.07030  Biso   1.000  O
  Zn4      1.0000 0.65762  0.44699  0.37906  Biso   1.000  Zn
  P7       1.0000 0.60956  0.31930  0.40264  Biso   1.000  P
  H7       1.0000 0.50050  0.31210  0.46350  Biso   1.000  H
  P8       1.0000 0.93152  0.47237  0.21545  Biso   1.000  P
  H8       1.0000 0.00150  0.42900  0.20970  Biso   1.000  H
  O19      1.0000 0.60960  0.27706  0.28330  Biso   1.000  O
  O20      1.0000 0.69820  0.30913  0.53230  Biso   1.000  O
  O21      1.0000 0.62140  0.37410  0.34090  Biso   1.000  O
  O22      1.0000 0.83870  0.46725  0.34450  Biso   1.000  O
  O23      1.0000 0.02890  0.51748  0.24920  Biso   1.000  O
  O24      1.0000 0.86210  0.47932  0.07030  Biso   1.000  O
  Zn5      1.0000 0.84238  0.44699  0.87906  Biso   1.000  Zn
  P9       1.0000 0.89044  0.31930  0.90264  Biso   1.000  P
  H9       1.0000 0.99950  0.31210  0.96350  Biso   1.000  H
  P10      1.0000 0.56848  0.47237  0.71545  Biso   1.000  P
  H10      1.0000 0.49850  0.42900  0.70970  Biso   1.000  H
  O25      1.0000 0.89040  0.27706  0.78330  Biso   1.000  O
  O26      1.0000 0.80180  0.30913  0.03230  Biso   1.000  O
  O27      1.0000 0.87860  0.37410  0.84090  Biso   1.000  O
  O28      1.0000 0.66130  0.46725  0.84450  Biso   1.000  O
  O29      1.0000 0.47110  0.51748  0.74920  Biso   1.000  O
  O30      1.0000 0.63790  0.47932  0.57030  Biso   1.000  O
  Zn6      1.0000 0.65762  0.05301  0.87906  Biso   1.000  Zn
  P11      1.0000 0.60956  0.18070  0.90264  Biso   1.000  P
  H11      1.0000 0.50050  0.18790  0.96350  Biso   1.000  H
  P12      1.0000 0.93152  0.02763  0.71545  Biso   1.000  P
  H12      1.0000 0.00150  0.07100  0.70970  Biso   1.000  H
  O31      1.0000 0.60960  0.22294  0.78330  Biso   1.000  O
  O32      1.0000 0.69820  0.19087  0.03230  Biso   1.000  O
  O33      1.0000 0.62140  0.12590  0.84090  Biso   1.000  O
  O34      1.0000 0.83870  0.03275  0.84450  Biso   1.000  O
  O35      1.0000 0.02890  0.98252  0.74920  Biso   1.000  O
  O36      1.0000 0.86210  0.02068  0.57030  Biso   1.000  O
  Zn7      1.0000 0.15762  0.94699  0.62094  Biso   1.000  Zn
  P13      1.0000 0.10956  0.81930  0.59736  Biso   1.000  P
  H13      1.0000 0.00050  0.81210  0.53650  Biso   1.000  H
  P14      1.0000 0.43152  0.97237  0.78455  Biso   1.000  P
  H14      1.0000 0.50150  0.92900  0.79030  Biso   1.000  H
  O37      1.0000 0.10960  0.77706  0.71670  Biso   1.000  O
  O38      1.0000 0.19820  0.80913  0.46770  Biso   1.000  O
  O39      1.0000 0.12140  0.87410  0.65910  Biso   1.000  O
  O40      1.0000 0.33870  0.96725  0.65550  Biso   1.000  O
  O41      1.0000 0.52890  0.01748  0.75080  Biso   1.000  O
  O42      1.0000 0.36210  0.97932  0.92970  Biso   1.000  O
  Zn8      1.0000 0.34238  0.55301  0.62094  Biso   1.000  Zn
  P15      1.0000 0.39044  0.68070  0.59736  Biso   1.000  P
  H15      1.0000 0.49950  0.68790  0.53650  Biso   1.000  H
  P16      1.0000 0.06848  0.52763  0.78455  Biso   1.000  P
  H16      1.0000 0.99850  0.57100  0.79030  Biso   1.000  H
  O43      1.0000 0.39040  0.72294  0.71670  Biso   1.000  O
  O44      1.0000 0.30180  0.69087  0.46770  Biso   1.000  O
  O45      1.0000 0.37860  0.62590  0.65910  Biso   1.000  O
  O46      1.0000 0.16130  0.53275  0.65550  Biso   1.000  O
  O47      1.0000 0.97110  0.48252  0.75080  Biso   1.000  O
  O48      1.0000 0.13790  0.52068  0.92970  Biso   1.000  O
  Zn9      1.0000 0.25000  0.75000  0.34437  Biso   1.000  Zn
  Zn10     1.0000 0.75000  0.25000  0.15563  Biso   1.000  Zn
  Zn11     1.0000 0.75000  0.25000  0.65563  Biso   1.000  Zn
  Zn12     1.0000 0.25000  0.75000  0.84437  Biso   1.000  Zn
