data_image0
_cell_length_a       8.459
_cell_length_b       9.622
_cell_length_c       24.389
_cell_angle_alpha    90
_cell_angle_beta     90
_cell_angle_gamma    90

_symmetry_space_group_name_H-M    P 1
_symmetry_int_tables_number       1

loop_
  _symmetry_equiv_pos_as_xyz
  'x, y, z'

loop_
  _atom_site_label
  _atom_site_occupancy
  _atom_site_fract_x
  _atom_site_fract_y
  _atom_site_fract_z
  _atom_site_thermal_displace_type
  _atom_site_B_iso_or_equiv
  _atom_site_type_symbol
  Zn1      1.0000 0.77341  0.59552  0.53507  Biso   1.000  Zn
  Zn2      1.0000 0.77341  0.90448  0.96493  Biso   1.000  Zn
  Zn3      1.0000 0.72659  0.40448  0.03507  Biso   1.000  Zn
  Zn4      1.0000 0.72659  0.09552  0.46493  Biso   1.000  Zn
  Zn5      1.0000 0.22659  0.40448  0.46493  Biso   1.000  Zn
  Zn6      1.0000 0.22659  0.09552  0.03507  Biso   1.000  Zn
  Zn7      1.0000 0.27341  0.59552  0.96493  Biso   1.000  Zn
  Zn8      1.0000 0.27341  0.90448  0.53507  Biso   1.000  Zn
  P1       1.0000 0.86554  0.39795  0.43763  Biso   1.000  P
  P2       1.0000 0.86554  0.10205  0.06237  Biso   1.000  P
  P3       1.0000 0.63446  0.60205  0.93763  Biso   1.000  P
  P4       1.0000 0.63446  0.89795  0.56237  Biso   1.000  P
  P5       1.0000 0.13446  0.60205  0.56237  Biso   1.000  P
  P6       1.0000 0.13446  0.89795  0.93763  Biso   1.000  P
  P7       1.0000 0.36554  0.39795  0.06237  Biso   1.000  P
  P8       1.0000 0.36554  0.10205  0.43763  Biso   1.000  P
  H1       1.0000 0.77930  0.38670  0.39370  Biso   1.000  H
  H2       1.0000 0.41790  0.20880  0.60250  Biso   1.000  H
  H3       1.0000 0.58790  0.31550  0.54160  Biso   1.000  H
  H4       1.0000 0.62240  0.64390  0.63780  Biso   1.000  H
  H5       1.0000 0.45300  0.54500  0.70070  Biso   1.000  H
  H6       1.0000 0.22920  0.36980  0.71370  Biso   1.000  H
  H7       1.0000 0.25000  0.22130  0.68480  Biso   1.000  H
  H8       1.0000 0.47400  0.17320  0.73760  Biso   1.000  H
  H9       1.0000 0.77930  0.11330  0.10630  Biso   1.000  H
  H10      1.0000 0.41790  0.29120  0.89750  Biso   1.000  H
  H11      1.0000 0.58790  0.18450  0.95840  Biso   1.000  H
  H12      1.0000 0.62240  0.85610  0.86220  Biso   1.000  H
  H13      1.0000 0.45300  0.95500  0.79930  Biso   1.000  H
  H14      1.0000 0.22920  0.13020  0.78630  Biso   1.000  H
  H15      1.0000 0.25000  0.27870  0.81520  Biso   1.000  H
  H16      1.0000 0.47400  0.32680  0.76240  Biso   1.000  H
  H17      1.0000 0.72070  0.61330  0.89370  Biso   1.000  H
  H18      1.0000 0.08210  0.79120  0.10250  Biso   1.000  H
  H19      1.0000 0.91210  0.68450  0.04160  Biso   1.000  H
  H20      1.0000 0.87760  0.35610  0.13780  Biso   1.000  H
  H21      1.0000 0.04700  0.45500  0.20070  Biso   1.000  H
  H22      1.0000 0.27080  0.63020  0.21370  Biso   1.000  H
  H23      1.0000 0.25000  0.77870  0.18480  Biso   1.000  H
  H24      1.0000 0.02600  0.82680  0.23760  Biso   1.000  H
  H25      1.0000 0.72070  0.88670  0.60630  Biso   1.000  H
  H26      1.0000 0.08210  0.70880  0.39750  Biso   1.000  H
  H27      1.0000 0.91210  0.81550  0.45840  Biso   1.000  H
  H28      1.0000 0.87760  0.14390  0.36220  Biso   1.000  H
  H29      1.0000 0.04700  0.04500  0.29930  Biso   1.000  H
  H30      1.0000 0.27080  0.86980  0.28630  Biso   1.000  H
  H31      1.0000 0.25000  0.72130  0.31520  Biso   1.000  H
  H32      1.0000 0.02600  0.67320  0.26240  Biso   1.000  H
  H33      1.0000 0.22070  0.61330  0.60630  Biso   1.000  H
  H34      1.0000 0.58210  0.79120  0.39750  Biso   1.000  H
  H35      1.0000 0.41210  0.68450  0.45840  Biso   1.000  H
  H36      1.0000 0.37760  0.35610  0.36220  Biso   1.000  H
  H37      1.0000 0.54700  0.45500  0.29930  Biso   1.000  H
  H38      1.0000 0.77080  0.63020  0.28630  Biso   1.000  H
  H39      1.0000 0.75000  0.77870  0.31520  Biso   1.000  H
  H40      1.0000 0.52600  0.82680  0.26240  Biso   1.000  H
  H41      1.0000 0.22070  0.88670  0.89370  Biso   1.000  H
  H42      1.0000 0.58210  0.70880  0.10250  Biso   1.000  H
  H43      1.0000 0.41210  0.81550  0.04160  Biso   1.000  H
  H44      1.0000 0.37760  0.14390  0.13780  Biso   1.000  H
  H45      1.0000 0.54700  0.04500  0.20070  Biso   1.000  H
  H46      1.0000 0.77080  0.86980  0.21370  Biso   1.000  H
  H47      1.0000 0.75000  0.72130  0.18480  Biso   1.000  H
  H48      1.0000 0.52600  0.67320  0.23760  Biso   1.000  H
  H49      1.0000 0.27930  0.38670  0.10630  Biso   1.000  H
  H50      1.0000 0.91790  0.20880  0.89750  Biso   1.000  H
  H51      1.0000 0.08790  0.31550  0.95840  Biso   1.000  H
  H52      1.0000 0.12240  0.64390  0.86220  Biso   1.000  H
  H53      1.0000 0.95300  0.54500  0.79930  Biso   1.000  H
  H54      1.0000 0.72920  0.36980  0.78630  Biso   1.000  H
  H55      1.0000 0.75000  0.22130  0.81520  Biso   1.000  H
  H56      1.0000 0.97400  0.17320  0.76240  Biso   1.000  H
  H57      1.0000 0.27930  0.11330  0.39370  Biso   1.000  H
  H58      1.0000 0.91790  0.29120  0.60250  Biso   1.000  H
  H59      1.0000 0.08790  0.18450  0.54160  Biso   1.000  H
  H60      1.0000 0.12240  0.85610  0.63780  Biso   1.000  H
  H61      1.0000 0.95300  0.95500  0.70070  Biso   1.000  H
  H62      1.0000 0.72920  0.13020  0.71370  Biso   1.000  H
  H63      1.0000 0.75000  0.27870  0.68480  Biso   1.000  H
  H64      1.0000 0.97400  0.32680  0.73760  Biso   1.000  H
  C1       1.0000 0.45810  0.29870  0.61058  Biso   1.000  C
  C2       1.0000 0.55990  0.36260  0.57445  Biso   1.000  C
  C3       1.0000 0.58010  0.55430  0.63053  Biso   1.000  C
  C4       1.0000 0.47880  0.49580  0.66811  Biso   1.000  C
  C5       1.0000 0.41370  0.36490  0.65878  Biso   1.000  C
  C6       1.0000 0.30780  0.30050  0.70114  Biso   1.000  C
  C7       1.0000 0.45810  0.20130  0.88942  Biso   1.000  C
  C8       1.0000 0.55990  0.13740  0.92555  Biso   1.000  C
  C9       1.0000 0.58010  0.94570  0.86947  Biso   1.000  C
  C10      1.0000 0.47880  0.00420  0.83189  Biso   1.000  C
  C11      1.0000 0.41370  0.13510  0.84122  Biso   1.000  C
  C12      1.0000 0.30780  0.19950  0.79886  Biso   1.000  C
  C13      1.0000 0.04190  0.70130  0.11058  Biso   1.000  C
  C14      1.0000 0.94010  0.63740  0.07445  Biso   1.000  C
  C15      1.0000 0.91990  0.44570  0.13053  Biso   1.000  C
  C16      1.0000 0.02120  0.50420  0.16811  Biso   1.000  C
  C17      1.0000 0.08630  0.63510  0.15878  Biso   1.000  C
  C18      1.0000 0.19220  0.69950  0.20114  Biso   1.000  C
  C19      1.0000 0.04190  0.79870  0.38942  Biso   1.000  C
  C20      1.0000 0.94010  0.86260  0.42555  Biso   1.000  C
  C21      1.0000 0.91990  0.05430  0.36947  Biso   1.000  C
  C22      1.0000 0.02120  0.99580  0.33189  Biso   1.000  C
  C23      1.0000 0.08630  0.86490  0.34122  Biso   1.000  C
  C24      1.0000 0.19220  0.80050  0.29886  Biso   1.000  C
  C25      1.0000 0.54190  0.70130  0.38942  Biso   1.000  C
  C26      1.0000 0.44010  0.63740  0.42555  Biso   1.000  C
  C27      1.0000 0.41990  0.44570  0.36947  Biso   1.000  C
  C28      1.0000 0.52120  0.50420  0.33189  Biso   1.000  C
  C29      1.0000 0.58630  0.63510  0.34122  Biso   1.000  C
  C30      1.0000 0.69220  0.69950  0.29886  Biso   1.000  C
  C31      1.0000 0.54190  0.79870  0.11058  Biso   1.000  C
  C32      1.0000 0.44010  0.86260  0.07445  Biso   1.000  C
  C33      1.0000 0.41990  0.05430  0.13053  Biso   1.000  C
  C34      1.0000 0.52120  0.99580  0.16811  Biso   1.000  C
  C35      1.0000 0.58630  0.86490  0.15878  Biso   1.000  C
  C36      1.0000 0.69220  0.80050  0.20114  Biso   1.000  C
  C37      1.0000 0.95810  0.29870  0.88942  Biso   1.000  C
  C38      1.0000 0.05990  0.36260  0.92555  Biso   1.000  C
  C39      1.0000 0.08010  0.55430  0.86947  Biso   1.000  C
  C40      1.0000 0.97880  0.49580  0.83189  Biso   1.000  C
  C41      1.0000 0.91370  0.36490  0.84122  Biso   1.000  C
  C42      1.0000 0.80780  0.30050  0.79886  Biso   1.000  C
  C43      1.0000 0.95810  0.20130  0.61058  Biso   1.000  C
  C44      1.0000 0.05990  0.13740  0.57445  Biso   1.000  C
  C45      1.0000 0.08010  0.94570  0.63053  Biso   1.000  C
  C46      1.0000 0.97880  0.00420  0.66811  Biso   1.000  C
  C47      1.0000 0.91370  0.13510  0.65878  Biso   1.000  C
  C48      1.0000 0.80780  0.19950  0.70114  Biso   1.000  C
  C49      1.0000 0.40480  0.25000  0.75000  Biso   1.000  C
  C50      1.0000 0.09520  0.75000  0.25000  Biso   1.000  C
  C51      1.0000 0.59520  0.75000  0.25000  Biso   1.000  C
  C52      1.0000 0.90480  0.25000  0.75000  Biso   1.000  C
  N1       1.0000 0.62130  0.48920  0.58391  Biso   1.000  N
  N2       1.0000 0.62130  0.01080  0.91609  Biso   1.000  N
  N3       1.0000 0.87870  0.51080  0.08391  Biso   1.000  N
  N4       1.0000 0.87870  0.98920  0.41609  Biso   1.000  N
  N5       1.0000 0.37870  0.51080  0.41609  Biso   1.000  N
  N6       1.0000 0.37870  0.98920  0.08391  Biso   1.000  N
  N7       1.0000 0.12130  0.48920  0.91609  Biso   1.000  N
  N8       1.0000 0.12130  0.01080  0.58391  Biso   1.000  N
  O1       1.0000 0.82390  0.53674  0.46277  Biso   1.000  O
  O2       1.0000 0.82010  0.27745  0.47405  Biso   1.000  O
  O3       1.0000 0.03790  0.39137  0.41836  Biso   1.000  O
  O4       1.0000 0.82390  0.96326  0.03723  Biso   1.000  O
  O5       1.0000 0.82010  0.22255  0.02595  Biso   1.000  O
  O6       1.0000 0.03790  0.10863  0.08164  Biso   1.000  O
  O7       1.0000 0.67610  0.46326  0.96277  Biso   1.000  O
  O8       1.0000 0.67990  0.72255  0.97405  Biso   1.000  O
  O9       1.0000 0.46210  0.60863  0.91836  Biso   1.000  O
  O10      1.0000 0.67610  0.03674  0.53723  Biso   1.000  O
  O11      1.0000 0.67990  0.77745  0.52595  Biso   1.000  O
  O12      1.0000 0.46210  0.89137  0.58164  Biso   1.000  O
  O13      1.0000 0.17610  0.46326  0.53723  Biso   1.000  O
  O14      1.0000 0.17990  0.72255  0.52595  Biso   1.000  O
  O15      1.0000 0.96210  0.60863  0.58164  Biso   1.000  O
  O16      1.0000 0.17610  0.03674  0.96277  Biso   1.000  O
  O17      1.0000 0.17990  0.77745  0.97405  Biso   1.000  O
  O18      1.0000 0.96210  0.89137  0.91836  Biso   1.000  O
  O19      1.0000 0.32390  0.53674  0.03723  Biso   1.000  O
  O20      1.0000 0.32010  0.27745  0.02595  Biso   1.000  O
  O21      1.0000 0.53790  0.39137  0.08164  Biso   1.000  O
  O22      1.0000 0.32390  0.96326  0.46277  Biso   1.000  O
  O23      1.0000 0.32010  0.22255  0.47405  Biso   1.000  O
  O24      1.0000 0.53790  0.10863  0.41836  Biso   1.000  O
