data_image0
_cell_length_a       9.5533
_cell_length_b       9.9947
_cell_length_c       23.8866
_cell_angle_alpha    90
_cell_angle_beta     90
_cell_angle_gamma    90

_symmetry_space_group_name_H-M    P 1
_symmetry_int_tables_number       1

loop_
  _symmetry_equiv_pos_as_xyz
  'x, y, z'

loop_
  _atom_site_label
  _atom_site_occupancy
  _atom_site_fract_x
  _atom_site_fract_y
  _atom_site_fract_z
  _atom_site_thermal_displace_type
  _atom_site_B_iso_or_equiv
  _atom_site_type_symbol
  Zn1      1.0000 0.82528  0.62551  0.48806  Biso   1.000  Zn
  Zn2      1.0000 0.32528  0.87449  0.51194  Biso   1.000  Zn
  Zn3      1.0000 0.17472  0.37449  0.98806  Biso   1.000  Zn
  Zn4      1.0000 0.67472  0.12551  0.01194  Biso   1.000  Zn
  Zn5      1.0000 0.17472  0.37449  0.51194  Biso   1.000  Zn
  Zn6      1.0000 0.67472  0.12551  0.48806  Biso   1.000  Zn
  Zn7      1.0000 0.82528  0.62551  0.01194  Biso   1.000  Zn
  Zn8      1.0000 0.32528  0.87449  0.98806  Biso   1.000  Zn
  P1       1.0000 0.11269  0.65418  0.56129  Biso   1.000  P
  P2       1.0000 0.61269  0.84582  0.43871  Biso   1.000  P
  P3       1.0000 0.88731  0.34582  0.06129  Biso   1.000  P
  P4       1.0000 0.38731  0.15418  0.93871  Biso   1.000  P
  P5       1.0000 0.88731  0.34582  0.43871  Biso   1.000  P
  P6       1.0000 0.38731  0.15418  0.56129  Biso   1.000  P
  P7       1.0000 0.11269  0.65418  0.93871  Biso   1.000  P
  P8       1.0000 0.61269  0.84582  0.06129  Biso   1.000  P
  H1       1.0000 0.06860  0.70280  0.60860  Biso   1.000  H
  H2       1.0000 0.53180  0.62460  0.53960  Biso   1.000  H
  H3       1.0000 0.41970  0.53170  0.61620  Biso   1.000  H
  H4       1.0000 0.77660  0.33400  0.65310  Biso   1.000  H
  H5       1.0000 0.87870  0.42940  0.57550  Biso   1.000  H
  H6       1.0000 0.41950  0.38640  0.69660  Biso   1.000  H
  H7       1.0000 0.53560  0.27100  0.69820  Biso   1.000  H
  H8       1.0000 0.56860  0.79720  0.39140  Biso   1.000  H
  H9       1.0000 0.03180  0.87540  0.46040  Biso   1.000  H
  H10      1.0000 0.91970  0.96830  0.38380  Biso   1.000  H
  H11      1.0000 0.27660  0.16600  0.34690  Biso   1.000  H
  H12      1.0000 0.37870  0.07060  0.42450  Biso   1.000  H
  H13      1.0000 0.91950  0.11360  0.30340  Biso   1.000  H
  H14      1.0000 0.03560  0.22900  0.30180  Biso   1.000  H
  H15      1.0000 0.93140  0.29720  0.10860  Biso   1.000  H
  H16      1.0000 0.46820  0.37540  0.03960  Biso   1.000  H
  H17      1.0000 0.58030  0.46830  0.11620  Biso   1.000  H
  H18      1.0000 0.22340  0.66600  0.15310  Biso   1.000  H
  H19      1.0000 0.12130  0.57060  0.07550  Biso   1.000  H
  H20      1.0000 0.58050  0.61360  0.19660  Biso   1.000  H
  H21      1.0000 0.46440  0.72900  0.19820  Biso   1.000  H
  H22      1.0000 0.43140  0.20280  0.89140  Biso   1.000  H
  H23      1.0000 0.96820  0.12460  0.96040  Biso   1.000  H
  H24      1.0000 0.08030  0.03170  0.88380  Biso   1.000  H
  H25      1.0000 0.72340  0.83400  0.84690  Biso   1.000  H
  H26      1.0000 0.62130  0.92940  0.92450  Biso   1.000  H
  H27      1.0000 0.08050  0.88640  0.80340  Biso   1.000  H
  H28      1.0000 0.96440  0.77100  0.80180  Biso   1.000  H
  H29      1.0000 0.93140  0.29720  0.39140  Biso   1.000  H
  H30      1.0000 0.46820  0.37540  0.46040  Biso   1.000  H
  H31      1.0000 0.58030  0.46830  0.38380  Biso   1.000  H
  H32      1.0000 0.22340  0.66600  0.34690  Biso   1.000  H
  H33      1.0000 0.12130  0.57060  0.42450  Biso   1.000  H
  H34      1.0000 0.58050  0.61360  0.30340  Biso   1.000  H
  H35      1.0000 0.46440  0.72900  0.30180  Biso   1.000  H
  H36      1.0000 0.43140  0.20280  0.60860  Biso   1.000  H
  H37      1.0000 0.96820  0.12460  0.53960  Biso   1.000  H
  H38      1.0000 0.08030  0.03170  0.61620  Biso   1.000  H
  H39      1.0000 0.72340  0.83400  0.65310  Biso   1.000  H
  H40      1.0000 0.62130  0.92940  0.57550  Biso   1.000  H
  H41      1.0000 0.08050  0.88640  0.69660  Biso   1.000  H
  H42      1.0000 0.96440  0.77100  0.69820  Biso   1.000  H
  H43      1.0000 0.06860  0.70280  0.89140  Biso   1.000  H
  H44      1.0000 0.53180  0.62460  0.96040  Biso   1.000  H
  H45      1.0000 0.41970  0.53170  0.88380  Biso   1.000  H
  H46      1.0000 0.77660  0.33400  0.84690  Biso   1.000  H
  H47      1.0000 0.87870  0.42940  0.92450  Biso   1.000  H
  H48      1.0000 0.41950  0.38640  0.80340  Biso   1.000  H
  H49      1.0000 0.53560  0.27100  0.80180  Biso   1.000  H
  H50      1.0000 0.56860  0.79720  0.10860  Biso   1.000  H
  H51      1.0000 0.03180  0.87540  0.03960  Biso   1.000  H
  H52      1.0000 0.91970  0.96830  0.11620  Biso   1.000  H
  H53      1.0000 0.27660  0.16600  0.15310  Biso   1.000  H
  H54      1.0000 0.37870  0.07060  0.07550  Biso   1.000  H
  H55      1.0000 0.91950  0.11360  0.19660  Biso   1.000  H
  H56      1.0000 0.03560  0.22900  0.19820  Biso   1.000  H
  H57      1.0000 0.68720  0.41720  0.75000  Biso   1.000  H
  H58      1.0000 0.56680  0.52880  0.75000  Biso   1.000  H
  H59      1.0000 0.18720  0.08280  0.25000  Biso   1.000  H
  H60      1.0000 0.06680  0.97120  0.25000  Biso   1.000  H
  H61      1.0000 0.31280  0.58280  0.25000  Biso   1.000  H
  H62      1.0000 0.43320  0.47120  0.25000  Biso   1.000  H
  H63      1.0000 0.81280  0.91720  0.75000  Biso   1.000  H
  H64      1.0000 0.93320  0.02880  0.75000  Biso   1.000  H
  C1       1.0000 0.58240  0.56570  0.56340  Biso   1.000  C
  C2       1.0000 0.51500  0.51060  0.60913  Biso   1.000  C
  C3       1.0000 0.58630  0.42460  0.64484  Biso   1.000  C
  C4       1.0000 0.72420  0.39460  0.63067  Biso   1.000  C
  C5       1.0000 0.78480  0.45210  0.58444  Biso   1.000  C
  C6       1.0000 0.52150  0.36910  0.69723  Biso   1.000  C
  C7       1.0000 0.08240  0.93430  0.43660  Biso   1.000  C
  C8       1.0000 0.01500  0.98940  0.39087  Biso   1.000  C
  C9       1.0000 0.08630  0.07540  0.35516  Biso   1.000  C
  C10      1.0000 0.22420  0.10540  0.36933  Biso   1.000  C
  C11      1.0000 0.28480  0.04790  0.41556  Biso   1.000  C
  C12      1.0000 0.02150  0.13090  0.30277  Biso   1.000  C
  C13      1.0000 0.41760  0.43430  0.06340  Biso   1.000  C
  C14      1.0000 0.48500  0.48940  0.10913  Biso   1.000  C
  C15      1.0000 0.41370  0.57540  0.14484  Biso   1.000  C
  C16      1.0000 0.27580  0.60540  0.13067  Biso   1.000  C
  C17      1.0000 0.21520  0.54790  0.08444  Biso   1.000  C
  C18      1.0000 0.47850  0.63090  0.19723  Biso   1.000  C
  C19      1.0000 0.91760  0.06570  0.93660  Biso   1.000  C
  C20      1.0000 0.98500  0.01060  0.89087  Biso   1.000  C
  C21      1.0000 0.91370  0.92460  0.85516  Biso   1.000  C
  C22      1.0000 0.77580  0.89460  0.86933  Biso   1.000  C
  C23      1.0000 0.71520  0.95210  0.91556  Biso   1.000  C
  C24      1.0000 0.97850  0.86910  0.80277  Biso   1.000  C
  C25      1.0000 0.41760  0.43430  0.43660  Biso   1.000  C
  C26      1.0000 0.48500  0.48940  0.39087  Biso   1.000  C
  C27      1.0000 0.41370  0.57540  0.35516  Biso   1.000  C
  C28      1.0000 0.27580  0.60540  0.36933  Biso   1.000  C
  C29      1.0000 0.21520  0.54790  0.41556  Biso   1.000  C
  C30      1.0000 0.47850  0.63090  0.30277  Biso   1.000  C
  C31      1.0000 0.91760  0.06570  0.56340  Biso   1.000  C
  C32      1.0000 0.98500  0.01060  0.60913  Biso   1.000  C
  C33      1.0000 0.91370  0.92460  0.64484  Biso   1.000  C
  C34      1.0000 0.77580  0.89460  0.63067  Biso   1.000  C
  C35      1.0000 0.71520  0.95210  0.58444  Biso   1.000  C
  C36      1.0000 0.97850  0.86910  0.69723  Biso   1.000  C
  C37      1.0000 0.58240  0.56570  0.93660  Biso   1.000  C
  C38      1.0000 0.51500  0.51060  0.89087  Biso   1.000  C
  C39      1.0000 0.58630  0.42460  0.85516  Biso   1.000  C
  C40      1.0000 0.72420  0.39460  0.86933  Biso   1.000  C
  C41      1.0000 0.78480  0.45210  0.91556  Biso   1.000  C
  C42      1.0000 0.52150  0.36910  0.80277  Biso   1.000  C
  C43      1.0000 0.08240  0.93430  0.06340  Biso   1.000  C
  C44      1.0000 0.01500  0.98940  0.10913  Biso   1.000  C
  C45      1.0000 0.08630  0.07540  0.14484  Biso   1.000  C
  C46      1.0000 0.22420  0.10540  0.13067  Biso   1.000  C
  C47      1.0000 0.28480  0.04790  0.08444  Biso   1.000  C
  C48      1.0000 0.02150  0.13090  0.19723  Biso   1.000  C
  C49      1.0000 0.58460  0.43120  0.75000  Biso   1.000  C
  C50      1.0000 0.08460  0.06880  0.25000  Biso   1.000  C
  C51      1.0000 0.41540  0.56880  0.25000  Biso   1.000  C
  C52      1.0000 0.91540  0.93120  0.75000  Biso   1.000  C
  N1       1.0000 0.71710  0.53880  0.55138  Biso   1.000  N
  N2       1.0000 0.21710  0.96120  0.44862  Biso   1.000  N
  N3       1.0000 0.28290  0.46120  0.05138  Biso   1.000  N
  N4       1.0000 0.78290  0.03880  0.94862  Biso   1.000  N
  N5       1.0000 0.28290  0.46120  0.44862  Biso   1.000  N
  N6       1.0000 0.78290  0.03880  0.55138  Biso   1.000  N
  N7       1.0000 0.71710  0.53880  0.94862  Biso   1.000  N
  N8       1.0000 0.21710  0.96120  0.05138  Biso   1.000  N
  O1       1.0000 0.00231  0.68751  0.51839  Biso   1.000  O
  O2       1.0000 0.13170  0.50450  0.57040  Biso   1.000  O
  O3       1.0000 0.24980  0.72219  0.54910  Biso   1.000  O
  O4       1.0000 0.50231  0.81249  0.48161  Biso   1.000  O
  O5       1.0000 0.63170  0.99550  0.42960  Biso   1.000  O
  O6       1.0000 0.74980  0.77781  0.45090  Biso   1.000  O
  O7       1.0000 0.99769  0.31249  0.01839  Biso   1.000  O
  O8       1.0000 0.86830  0.49550  0.07040  Biso   1.000  O
  O9       1.0000 0.75020  0.27781  0.04910  Biso   1.000  O
  O10      1.0000 0.49769  0.18751  0.98161  Biso   1.000  O
  O11      1.0000 0.36830  0.00450  0.92960  Biso   1.000  O
  O12      1.0000 0.25020  0.22219  0.95090  Biso   1.000  O
  O13      1.0000 0.99769  0.31249  0.48161  Biso   1.000  O
  O14      1.0000 0.86830  0.49550  0.42960  Biso   1.000  O
  O15      1.0000 0.75020  0.27781  0.45090  Biso   1.000  O
  O16      1.0000 0.49769  0.18751  0.51839  Biso   1.000  O
  O17      1.0000 0.36830  0.00450  0.57040  Biso   1.000  O
  O18      1.0000 0.25020  0.22219  0.54910  Biso   1.000  O
  O19      1.0000 0.00231  0.68751  0.98161  Biso   1.000  O
  O20      1.0000 0.13170  0.50450  0.92960  Biso   1.000  O
  O21      1.0000 0.24980  0.72219  0.95090  Biso   1.000  O
  O22      1.0000 0.50231  0.81249  0.01839  Biso   1.000  O
  O23      1.0000 0.63170  0.99550  0.07040  Biso   1.000  O
  O24      1.0000 0.74980  0.77781  0.04910  Biso   1.000  O
