data_image0
_cell_length_a       19.727
_cell_length_b       28.3842
_cell_length_c       28.3842
_cell_angle_alpha    61.4853
_cell_angle_beta     69.6655
_cell_angle_gamma    69.6655

_symmetry_space_group_name_H-M    P 1
_symmetry_int_tables_number       1

loop_
  _symmetry_equiv_pos_as_xyz
  'x, y, z'

loop_
  _atom_site_label
  _atom_site_occupancy
  _atom_site_fract_x
  _atom_site_fract_y
  _atom_site_fract_z
  _atom_site_thermal_displace_type
  _atom_site_B_iso_or_equiv
  _atom_site_type_symbol
  Zn1      1.0000 0.65742  0.52065  0.01443  Biso   1.000  Zn
  Zn2      1.0000 0.87351  0.44990  0.31938  Biso   1.000  Zn
  Zn3      1.0000 0.64709  0.69766  0.55642  Biso   1.000  Zn
  Zn4      1.0000 0.34258  0.98557  0.47935  Biso   1.000  Zn
  Zn5      1.0000 0.12649  0.68062  0.55010  Biso   1.000  Zn
  Zn6      1.0000 0.35291  0.44358  0.30234  Biso   1.000  Zn
  Zn7      1.0000 0.19250  0.97935  0.48557  Biso   1.000  Zn
  Zn8      1.0000 0.64279  0.05010  0.18062  Biso   1.000  Zn
  Zn9      1.0000 0.90117  0.80234  0.94358  Biso   1.000  Zn
  Zn10     1.0000 0.80750  0.51443  0.02065  Biso   1.000  Zn
  Zn11     1.0000 0.35721  0.81938  0.94990  Biso   1.000  Zn
  Zn12     1.0000 0.09883  0.05642  0.19766  Biso   1.000  Zn
  Zn13     1.0000 0.34258  0.47935  0.98557  Biso   1.000  Zn
  Zn14     1.0000 0.12649  0.55010  0.68062  Biso   1.000  Zn
  Zn15     1.0000 0.35291  0.30234  0.44358  Biso   1.000  Zn
  Zn16     1.0000 0.65742  0.01443  0.52065  Biso   1.000  Zn
  Zn17     1.0000 0.87351  0.31938  0.44990  Biso   1.000  Zn
  Zn18     1.0000 0.64709  0.55642  0.69766  Biso   1.000  Zn
  Zn19     1.0000 0.80750  0.02065  0.51443  Biso   1.000  Zn
  Zn20     1.0000 0.35721  0.94990  0.81938  Biso   1.000  Zn
  Zn21     1.0000 0.09883  0.19766  0.05642  Biso   1.000  Zn
  Zn22     1.0000 0.19250  0.48557  0.97935  Biso   1.000  Zn
  Zn23     1.0000 0.64279  0.18062  0.05010  Biso   1.000  Zn
  Zn24     1.0000 0.90117  0.94358  0.80234  Biso   1.000  Zn
  Zn25     1.0000 0.73645  0.42438  0.42438  Biso   1.000  Zn
  Zn26     1.0000 0.26355  0.57562  0.57562  Biso   1.000  Zn
  Zn27     1.0000 0.58521  0.07562  0.07562  Biso   1.000  Zn
  Zn28     1.0000 0.41479  0.92438  0.92438  Biso   1.000  Zn
  Zn29     1.0000 0.75908  0.60435  0.60435  Biso   1.000  Zn
  Zn30     1.0000 0.60806  0.59320  0.59320  Biso   1.000  Zn
  Zn31     1.0000 0.24092  0.39565  0.39565  Biso   1.000  Zn
  Zn32     1.0000 0.39194  0.40680  0.40680  Biso   1.000  Zn
  Zn33     1.0000 0.96778  0.89565  0.89565  Biso   1.000  Zn
  Zn34     1.0000 0.79446  0.90680  0.90680  Biso   1.000  Zn
  Zn35     1.0000 0.03222  0.10435  0.10435  Biso   1.000  Zn
  Zn36     1.0000 0.20554  0.09320  0.09320  Biso   1.000  Zn
  Zn37     1.0000 0.03293  0.71707  0.21707  Biso   1.000  Zn
  Zn38     1.0000 0.96707  0.78293  0.28293  Biso   1.000  Zn
  Zn39     1.0000 0.96707  0.28293  0.78293  Biso   1.000  Zn
  Zn40     1.0000 0.03293  0.21707  0.71707  Biso   1.000  Zn
  H1       1.0000 0.72340  0.56110  0.44950  Biso   1.000  H
  H2       1.0000 0.80800  0.68970  0.40350  Biso   1.000  H
  H3       1.0000 0.88300  0.60310  0.31270  Biso   1.000  H
  H4       1.0000 0.56630  0.47250  0.18930  Biso   1.000  H
  H5       1.0000 0.60170  0.44150  0.33250  Biso   1.000  H
  H6       1.0000 0.76280  0.47910  0.19470  Biso   1.000  H
  H7       1.0000 0.71180  0.55840  0.83360  Biso   1.000  H
  H8       1.0000 0.90880  0.54170  0.85670  Biso   1.000  H
  H9       1.0000 0.89050  0.57500  0.70820  Biso   1.000  H
  H10      1.0000 0.53000  0.60200  0.95300  Biso   1.000  H
  H11      1.0000 0.44770  0.59930  0.96370  Biso   1.000  H
  H12      1.0000 0.46730  0.62700  0.99220  Biso   1.000  H
  H13      1.0000 0.36060  0.59440  0.04020  Biso   1.000  H
  H14      1.0000 0.33170  0.53980  0.07380  Biso   1.000  H
  H15      1.0000 0.34430  0.56860  0.10460  Biso   1.000  H
  H16      1.0000 0.50600  0.45520  0.11240  Biso   1.000  H
  H17      1.0000 0.43860  0.47700  0.15180  Biso   1.000  H
  H18      1.0000 0.42630  0.44940  0.12000  Biso   1.000  H
  H19      1.0000 0.27660  0.55050  0.43890  Biso   1.000  H
  H20      1.0000 0.19200  0.59650  0.31030  Biso   1.000  H
  H21      1.0000 0.11700  0.68730  0.39690  Biso   1.000  H
  H22      1.0000 0.43370  0.81070  0.52750  Biso   1.000  H
  H23      1.0000 0.39830  0.66750  0.55850  Biso   1.000  H
  H24      1.0000 0.23720  0.80530  0.52090  Biso   1.000  H
  H25      1.0000 0.28820  0.16640  0.44160  Biso   1.000  H
  H26      1.0000 0.09120  0.14330  0.45830  Biso   1.000  H
  H27      1.0000 0.10950  0.29180  0.42500  Biso   1.000  H
  H28      1.0000 0.47000  0.04700  0.39800  Biso   1.000  H
  H29      1.0000 0.55230  0.03630  0.40070  Biso   1.000  H
  H30      1.0000 0.53270  0.00780  0.37300  Biso   1.000  H
  H31      1.0000 0.63940  0.95980  0.40560  Biso   1.000  H
  H32      1.0000 0.66830  0.92620  0.46020  Biso   1.000  H
  H33      1.0000 0.65570  0.89540  0.43140  Biso   1.000  H
  H34      1.0000 0.49400  0.88760  0.54480  Biso   1.000  H
  H35      1.0000 0.56140  0.84820  0.52300  Biso   1.000  H
  H36      1.0000 0.57370  0.88000  0.55060  Biso   1.000  H
  H37      1.0000 0.73400  0.93890  0.05050  Biso   1.000  H
  H38      1.0000 0.90120  0.81030  0.09650  Biso   1.000  H
  H39      1.0000 0.79880  0.89690  0.18730  Biso   1.000  H
  H40      1.0000 0.22810  0.02750  0.31070  Biso   1.000  H
  H41      1.0000 0.37570  0.05850  0.16750  Biso   1.000  H
  H42      1.0000 0.43660  0.02090  0.30530  Biso   1.000  H
  H43      1.0000 0.10380  0.94160  0.66640  Biso   1.000  H
  H44      1.0000 0.30720  0.95830  0.64330  Biso   1.000  H
  H45      1.0000 0.17370  0.92500  0.79180  Biso   1.000  H
  H46      1.0000 0.08500  0.89800  0.54700  Biso   1.000  H
  H47      1.0000 0.01070  0.90070  0.53630  Biso   1.000  H
  H48      1.0000 0.08650  0.87300  0.50780  Biso   1.000  H
  H49      1.0000 0.99520  0.90560  0.45980  Biso   1.000  H
  H50      1.0000 0.94530  0.96020  0.42620  Biso   1.000  H
  H51      1.0000 0.01750  0.93140  0.39540  Biso   1.000  H
  H52      1.0000 0.07360  0.04480  0.38760  Biso   1.000  H
  H53      1.0000 0.06740  0.02300  0.34820  Biso   1.000  H
  H54      1.0000 0.99570  0.05060  0.38000  Biso   1.000  H
  H55      1.0000 0.26600  0.94950  0.06110  Biso   1.000  H
  H56      1.0000 0.09880  0.90350  0.18970  Biso   1.000  H
  H57      1.0000 0.20120  0.81270  0.10310  Biso   1.000  H
  H58      1.0000 0.77190  0.68930  0.97250  Biso   1.000  H
  H59      1.0000 0.62430  0.83250  0.94150  Biso   1.000  H
  H60      1.0000 0.56340  0.69470  0.97910  Biso   1.000  H
  H61      1.0000 0.89620  0.33360  0.05840  Biso   1.000  H
  H62      1.0000 0.69280  0.35670  0.04170  Biso   1.000  H
  H63      1.0000 0.82630  0.20820  0.07500  Biso   1.000  H
  H64      1.0000 0.91500  0.45300  0.10200  Biso   1.000  H
  H65      1.0000 0.98930  0.46370  0.09930  Biso   1.000  H
  H66      1.0000 0.91350  0.49220  0.12700  Biso   1.000  H
  H67      1.0000 0.00480  0.54020  0.09440  Biso   1.000  H
  H68      1.0000 0.05470  0.57380  0.03980  Biso   1.000  H
  H69      1.0000 0.98250  0.60460  0.06860  Biso   1.000  H
  H70      1.0000 0.92640  0.61240  0.95520  Biso   1.000  H
  H71      1.0000 0.93260  0.65180  0.97700  Biso   1.000  H
  H72      1.0000 0.00430  0.62000  0.94940  Biso   1.000  H
  H73      1.0000 0.27660  0.43890  0.55050  Biso   1.000  H
  H74      1.0000 0.19200  0.31030  0.59650  Biso   1.000  H
  H75      1.0000 0.11700  0.39690  0.68730  Biso   1.000  H
  H76      1.0000 0.43370  0.52750  0.81070  Biso   1.000  H
  H77      1.0000 0.39830  0.55850  0.66750  Biso   1.000  H
  H78      1.0000 0.23720  0.52090  0.80530  Biso   1.000  H
  H79      1.0000 0.28820  0.44160  0.16640  Biso   1.000  H
  H80      1.0000 0.09120  0.45830  0.14330  Biso   1.000  H
  H81      1.0000 0.10950  0.42500  0.29180  Biso   1.000  H
  H82      1.0000 0.47000  0.39800  0.04700  Biso   1.000  H
  H83      1.0000 0.55230  0.40070  0.03630  Biso   1.000  H
  H84      1.0000 0.53270  0.37300  0.00780  Biso   1.000  H
  H85      1.0000 0.63940  0.40560  0.95980  Biso   1.000  H
  H86      1.0000 0.66830  0.46020  0.92620  Biso   1.000  H
  H87      1.0000 0.65570  0.43140  0.89540  Biso   1.000  H
  H88      1.0000 0.49400  0.54480  0.88760  Biso   1.000  H
  H89      1.0000 0.56140  0.52300  0.84820  Biso   1.000  H
  H90      1.0000 0.57370  0.55060  0.88000  Biso   1.000  H
  H91      1.0000 0.72340  0.44950  0.56110  Biso   1.000  H
  H92      1.0000 0.80800  0.40350  0.68970  Biso   1.000  H
  H93      1.0000 0.88300  0.31270  0.60310  Biso   1.000  H
  H94      1.0000 0.56630  0.18930  0.47250  Biso   1.000  H
  H95      1.0000 0.60170  0.33250  0.44150  Biso   1.000  H
  H96      1.0000 0.76280  0.19470  0.47910  Biso   1.000  H
  H97      1.0000 0.71180  0.83360  0.55840  Biso   1.000  H
  H98      1.0000 0.90880  0.85670  0.54170  Biso   1.000  H
  H99      1.0000 0.89050  0.70820  0.57500  Biso   1.000  H
  H100     1.0000 0.53000  0.95300  0.60200  Biso   1.000  H
  H101     1.0000 0.44770  0.96370  0.59930  Biso   1.000  H
  H102     1.0000 0.46730  0.99220  0.62700  Biso   1.000  H
  H103     1.0000 0.36060  0.04020  0.59440  Biso   1.000  H
  H104     1.0000 0.33170  0.07380  0.53980  Biso   1.000  H
  H105     1.0000 0.34430  0.10460  0.56860  Biso   1.000  H
  H106     1.0000 0.50600  0.11240  0.45520  Biso   1.000  H
  H107     1.0000 0.43860  0.15180  0.47700  Biso   1.000  H
  H108     1.0000 0.42630  0.12000  0.44940  Biso   1.000  H
  H109     1.0000 0.26600  0.06110  0.94950  Biso   1.000  H
  H110     1.0000 0.09880  0.18970  0.90350  Biso   1.000  H
  H111     1.0000 0.20120  0.10310  0.81270  Biso   1.000  H
  H112     1.0000 0.77190  0.97250  0.68930  Biso   1.000  H
  H113     1.0000 0.62430  0.94150  0.83250  Biso   1.000  H
  H114     1.0000 0.56340  0.97910  0.69470  Biso   1.000  H
  H115     1.0000 0.89620  0.05840  0.33360  Biso   1.000  H
  H116     1.0000 0.69280  0.04170  0.35670  Biso   1.000  H
  H117     1.0000 0.82630  0.07500  0.20820  Biso   1.000  H
  H118     1.0000 0.91500  0.10200  0.45300  Biso   1.000  H
  H119     1.0000 0.98930  0.09930  0.46370  Biso   1.000  H
  H120     1.0000 0.91350  0.12700  0.49220  Biso   1.000  H
  H121     1.0000 0.00480  0.09440  0.54020  Biso   1.000  H
  H122     1.0000 0.05470  0.03980  0.57380  Biso   1.000  H
  H123     1.0000 0.98250  0.06860  0.60460  Biso   1.000  H
  H124     1.0000 0.92640  0.95520  0.61240  Biso   1.000  H
  H125     1.0000 0.93260  0.97700  0.65180  Biso   1.000  H
  H126     1.0000 0.00430  0.94940  0.62000  Biso   1.000  H
  H127     1.0000 0.73400  0.05050  0.93890  Biso   1.000  H
  H128     1.0000 0.90120  0.09650  0.81030  Biso   1.000  H
  H129     1.0000 0.79880  0.18730  0.89690  Biso   1.000  H
  H130     1.0000 0.22810  0.31070  0.02750  Biso   1.000  H
  H131     1.0000 0.37570  0.16750  0.05850  Biso   1.000  H
  H132     1.0000 0.43660  0.30530  0.02090  Biso   1.000  H
  H133     1.0000 0.10380  0.66640  0.94160  Biso   1.000  H
  H134     1.0000 0.30720  0.64330  0.95830  Biso   1.000  H
  H135     1.0000 0.17370  0.79180  0.92500  Biso   1.000  H
  H136     1.0000 0.08500  0.54700  0.89800  Biso   1.000  H
  H137     1.0000 0.01070  0.53630  0.90070  Biso   1.000  H
  H138     1.0000 0.08650  0.50780  0.87300  Biso   1.000  H
  H139     1.0000 0.99520  0.45980  0.90560  Biso   1.000  H
  H140     1.0000 0.94530  0.42620  0.96020  Biso   1.000  H
  H141     1.0000 0.01750  0.39540  0.93140  Biso   1.000  H
  H142     1.0000 0.07360  0.38760  0.04480  Biso   1.000  H
  H143     1.0000 0.06740  0.34820  0.02300  Biso   1.000  H
  H144     1.0000 0.99570  0.38000  0.05060  Biso   1.000  H
  C1       1.0000 0.80253  0.57507  0.37947  Biso   1.000  C
  C2       1.0000 0.75651  0.58359  0.42559  Biso   1.000  C
  C3       1.0000 0.75952  0.62568  0.43628  Biso   1.000  C
  C4       1.0000 0.80773  0.65997  0.39817  Biso   1.000  C
  C5       1.0000 0.85493  0.65097  0.35297  Biso   1.000  C
  C6       1.0000 0.85184  0.60906  0.34346  Biso   1.000  C
  C7       1.0000 0.80242  0.52678  0.37098  Biso   1.000  C
  C8       1.0000 0.71464  0.63126  0.48686  Biso   1.000  C
  C9       1.0000 0.90589  0.68851  0.31431  Biso   1.000  C
  C10      1.0000 0.66880  0.47910  0.18250  Biso   1.000  C
  C11      1.0000 0.59739  0.46921  0.20941  Biso   1.000  C
  C12      1.0000 0.57242  0.45458  0.26578  Biso   1.000  C
  C13      1.0000 0.61818  0.45042  0.29502  Biso   1.000  C
  C14      1.0000 0.69012  0.45978  0.26838  Biso   1.000  C
  C15      1.0000 0.71496  0.47354  0.21214  Biso   1.000  C
  C16      1.0000 0.69476  0.49444  0.12184  Biso   1.000  C
  C17      1.0000 0.49671  0.44309  0.29509  Biso   1.000  C
  C18      1.0000 0.73966  0.45294  0.30314  Biso   1.000  C
  C19      1.0000 0.79350  0.56730  0.76550  Biso   1.000  C
  C20      1.0000 0.76198  0.55862  0.82002  Biso   1.000  C
  C21      1.0000 0.80405  0.55035  0.85435  Biso   1.000  C
  C22      1.0000 0.87973  0.54867  0.83347  Biso   1.000  C
  C23      1.0000 0.91203  0.55697  0.78017  Biso   1.000  C
  C24      1.0000 0.86917  0.56763  0.74523  Biso   1.000  C
  C25      1.0000 0.74995  0.57495  0.72735  Biso   1.000  C
  C26      1.0000 0.77148  0.53922  0.91342  Biso   1.000  C
  C27      1.0000 0.99520  0.55200  0.75860  Biso   1.000  C
  C28      1.0000 0.49631  0.54159  0.02959  Biso   1.000  C
  C29      1.0000 0.48420  0.59780  0.97980  Biso   1.000  C
  C30      1.0000 0.36230  0.56050  0.07250  Biso   1.000  C
  C31      1.0000 0.45410  0.47230  0.11810  Biso   1.000  C
  C32      1.0000 0.19747  0.62053  0.42493  Biso   1.000  C
  C33      1.0000 0.24349  0.57441  0.41641  Biso   1.000  C
  C34      1.0000 0.24048  0.56372  0.37432  Biso   1.000  C
  C35      1.0000 0.19227  0.60183  0.34003  Biso   1.000  C
  C36      1.0000 0.14507  0.64703  0.34903  Biso   1.000  C
  C37      1.0000 0.14816  0.65654  0.39094  Biso   1.000  C
  C38      1.0000 0.19758  0.62902  0.47322  Biso   1.000  C
  C39      1.0000 0.28536  0.51314  0.36874  Biso   1.000  C
  C40      1.0000 0.09411  0.68569  0.31149  Biso   1.000  C
  C41      1.0000 0.33120  0.81750  0.52090  Biso   1.000  C
  C42      1.0000 0.40261  0.79059  0.53079  Biso   1.000  C
  C43      1.0000 0.42758  0.73422  0.54542  Biso   1.000  C
  C44      1.0000 0.38182  0.70498  0.54958  Biso   1.000  C
  C45      1.0000 0.30988  0.73162  0.54022  Biso   1.000  C
  C46      1.0000 0.28504  0.78786  0.52646  Biso   1.000  C
  C47      1.0000 0.30524  0.87816  0.50556  Biso   1.000  C
  C48      1.0000 0.50329  0.70491  0.55691  Biso   1.000  C
  C49      1.0000 0.26034  0.69686  0.54706  Biso   1.000  C
  C50      1.0000 0.20650  0.23450  0.43270  Biso   1.000  C
  C51      1.0000 0.23802  0.17998  0.44138  Biso   1.000  C
  C52      1.0000 0.19595  0.14565  0.44965  Biso   1.000  C
  C53      1.0000 0.12027  0.16653  0.45133  Biso   1.000  C
  C54      1.0000 0.08797  0.21983  0.44303  Biso   1.000  C
  C55      1.0000 0.13083  0.25477  0.43237  Biso   1.000  C
  C56      1.0000 0.25005  0.27265  0.42505  Biso   1.000  C
  C57      1.0000 0.22852  0.08658  0.46078  Biso   1.000  C
  C58      1.0000 0.00480  0.24140  0.44800  Biso   1.000  C
  C59      1.0000 0.50369  0.97041  0.45841  Biso   1.000  C
  C60      1.0000 0.51580  0.02020  0.40220  Biso   1.000  C
  C61      1.0000 0.63770  0.92750  0.43950  Biso   1.000  C
  C62      1.0000 0.54590  0.88190  0.52770  Biso   1.000  C
  C63      1.0000 0.75707  0.92493  0.12053  Biso   1.000  C
  C64      1.0000 0.76569  0.91641  0.07441  Biso   1.000  C
  C65      1.0000 0.82148  0.87432  0.06372  Biso   1.000  C
  C66      1.0000 0.86587  0.84003  0.10183  Biso   1.000  C
  C67      1.0000 0.85887  0.84903  0.14703  Biso   1.000  C
  C68      1.0000 0.80436  0.89094  0.15654  Biso   1.000  C
  C69      1.0000 0.70018  0.97322  0.12902  Biso   1.000  C
  C70      1.0000 0.83276  0.86874  0.01314  Biso   1.000  C
  C71      1.0000 0.90871  0.81149  0.18569  Biso   1.000  C
  C72      1.0000 0.33040  0.02090  0.31750  Biso   1.000  C
  C73      1.0000 0.27601  0.03079  0.29059  Biso   1.000  C
  C74      1.0000 0.29278  0.04542  0.23422  Biso   1.000  C
  C75      1.0000 0.36362  0.04958  0.20498  Biso   1.000  C
  C76      1.0000 0.41828  0.04022  0.23162  Biso   1.000  C
  C77      1.0000 0.40064  0.02646  0.28786  Biso   1.000  C
  C78      1.0000 0.31104  0.00556  0.37816  Biso   1.000  C
  C79      1.0000 0.23489  0.05691  0.20491  Biso   1.000  C
  C80      1.0000 0.49574  0.04706  0.19686  Biso   1.000  C
  C81      1.0000 0.12630  0.93270  0.73450  Biso   1.000  C
  C82      1.0000 0.14062  0.94138  0.67998  Biso   1.000  C
  C83      1.0000 0.20875  0.94965  0.64565  Biso   1.000  C
  C84      1.0000 0.26187  0.95133  0.66653  Biso   1.000  C
  C85      1.0000 0.24917  0.94303  0.71983  Biso   1.000  C
  C86      1.0000 0.18203  0.93237  0.75477  Biso   1.000  C
  C87      1.0000 0.05225  0.92505  0.77265  Biso   1.000  C
  C88      1.0000 0.22412  0.96078  0.58658  Biso   1.000  C
  C89      1.0000 0.30580  0.94800  0.74140  Biso   1.000  C
  C90      1.0000 0.06749  0.95841  0.47041  Biso   1.000  C
  C91      1.0000 0.06180  0.90220  0.52020  Biso   1.000  C
  C92      1.0000 0.99530  0.93950  0.42750  Biso   1.000  C
  C93      1.0000 0.04450  0.02770  0.38190  Biso   1.000  C
  C94      1.0000 0.24293  0.87947  0.07507  Biso   1.000  C
  C95      1.0000 0.23431  0.92559  0.08359  Biso   1.000  C
  C96      1.0000 0.17852  0.93628  0.12568  Biso   1.000  C
  C97      1.0000 0.13413  0.89817  0.15997  Biso   1.000  C
  C98      1.0000 0.14113  0.85297  0.15097  Biso   1.000  C
  C99      1.0000 0.19564  0.84346  0.10906  Biso   1.000  C
  C100     1.0000 0.29982  0.87098  0.02678  Biso   1.000  C
  C101     1.0000 0.16724  0.98686  0.13126  Biso   1.000  C
  C102     1.0000 0.09129  0.81431  0.18851  Biso   1.000  C
  C103     1.0000 0.66960  0.68250  0.97910  Biso   1.000  C
  C104     1.0000 0.72399  0.70941  0.96921  Biso   1.000  C
  C105     1.0000 0.70722  0.76578  0.95458  Biso   1.000  C
  C106     1.0000 0.63638  0.79502  0.95042  Biso   1.000  C
  C107     1.0000 0.58172  0.76838  0.95978  Biso   1.000  C
  C108     1.0000 0.59936  0.71214  0.97354  Biso   1.000  C
  C109     1.0000 0.68896  0.62184  0.99444  Biso   1.000  C
  C110     1.0000 0.76511  0.79509  0.94309  Biso   1.000  C
  C111     1.0000 0.50426  0.80314  0.95294  Biso   1.000  C
  C112     1.0000 0.87370  0.26550  0.06730  Biso   1.000  C
  C113     1.0000 0.85938  0.32002  0.05862  Biso   1.000  C
  C114     1.0000 0.79125  0.35435  0.05035  Biso   1.000  C
  C115     1.0000 0.73813  0.33347  0.04867  Biso   1.000  C
  C116     1.0000 0.75083  0.28017  0.05697  Biso   1.000  C
  C117     1.0000 0.81797  0.24523  0.06763  Biso   1.000  C
  C118     1.0000 0.94775  0.22735  0.07495  Biso   1.000  C
  C119     1.0000 0.77588  0.41342  0.03922  Biso   1.000  C
  C120     1.0000 0.69420  0.25860  0.05200  Biso   1.000  C
  C121     1.0000 0.93251  0.52959  0.04159  Biso   1.000  C
  C122     1.0000 0.93820  0.47980  0.09780  Biso   1.000  C
  C123     1.0000 0.00470  0.57250  0.06050  Biso   1.000  C
  C124     1.0000 0.95550  0.61810  0.97230  Biso   1.000  C
  C125     1.0000 0.19747  0.42493  0.62053  Biso   1.000  C
  C126     1.0000 0.24349  0.41641  0.57441  Biso   1.000  C
  C127     1.0000 0.24048  0.37432  0.56372  Biso   1.000  C
  C128     1.0000 0.19227  0.34003  0.60183  Biso   1.000  C
  C129     1.0000 0.14507  0.34903  0.64703  Biso   1.000  C
  C130     1.0000 0.14816  0.39094  0.65654  Biso   1.000  C
  C131     1.0000 0.19758  0.47322  0.62902  Biso   1.000  C
  C132     1.0000 0.28536  0.36874  0.51314  Biso   1.000  C
  C133     1.0000 0.09411  0.31149  0.68569  Biso   1.000  C
  C134     1.0000 0.33120  0.52090  0.81750  Biso   1.000  C
  C135     1.0000 0.40261  0.53079  0.79059  Biso   1.000  C
  C136     1.0000 0.42758  0.54542  0.73422  Biso   1.000  C
  C137     1.0000 0.38182  0.54958  0.70498  Biso   1.000  C
  C138     1.0000 0.30988  0.54022  0.73162  Biso   1.000  C
  C139     1.0000 0.28504  0.52646  0.78786  Biso   1.000  C
  C140     1.0000 0.30524  0.50556  0.87816  Biso   1.000  C
  C141     1.0000 0.50329  0.55691  0.70491  Biso   1.000  C
  C142     1.0000 0.26034  0.54706  0.69686  Biso   1.000  C
  C143     1.0000 0.20650  0.43270  0.23450  Biso   1.000  C
  C144     1.0000 0.23802  0.44138  0.17998  Biso   1.000  C
  C145     1.0000 0.19595  0.44965  0.14565  Biso   1.000  C
  C146     1.0000 0.12027  0.45133  0.16653  Biso   1.000  C
  C147     1.0000 0.08797  0.44303  0.21983  Biso   1.000  C
  C148     1.0000 0.13083  0.43237  0.25477  Biso   1.000  C
  C149     1.0000 0.25005  0.42505  0.27265  Biso   1.000  C
  C150     1.0000 0.22852  0.46078  0.08658  Biso   1.000  C
  C151     1.0000 0.00480  0.44800  0.24140  Biso   1.000  C
  C152     1.0000 0.50369  0.45841  0.97041  Biso   1.000  C
  C153     1.0000 0.51580  0.40220  0.02020  Biso   1.000  C
  C154     1.0000 0.63770  0.43950  0.92750  Biso   1.000  C
  C155     1.0000 0.54590  0.52770  0.88190  Biso   1.000  C
  C156     1.0000 0.80253  0.37947  0.57507  Biso   1.000  C
  C157     1.0000 0.75651  0.42559  0.58359  Biso   1.000  C
  C158     1.0000 0.75952  0.43628  0.62568  Biso   1.000  C
  C159     1.0000 0.80773  0.39817  0.65997  Biso   1.000  C
  C160     1.0000 0.85493  0.35297  0.65097  Biso   1.000  C
  C161     1.0000 0.85184  0.34346  0.60906  Biso   1.000  C
  C162     1.0000 0.80242  0.37098  0.52678  Biso   1.000  C
  C163     1.0000 0.71464  0.48686  0.63126  Biso   1.000  C
  C164     1.0000 0.90589  0.31431  0.68851  Biso   1.000  C
  C165     1.0000 0.66880  0.18250  0.47910  Biso   1.000  C
  C166     1.0000 0.59739  0.20941  0.46921  Biso   1.000  C
  C167     1.0000 0.57242  0.26578  0.45458  Biso   1.000  C
  C168     1.0000 0.61818  0.29502  0.45042  Biso   1.000  C
  C169     1.0000 0.69012  0.26838  0.45978  Biso   1.000  C
  C170     1.0000 0.71496  0.21214  0.47354  Biso   1.000  C
  C171     1.0000 0.69476  0.12184  0.49444  Biso   1.000  C
  C172     1.0000 0.49671  0.29509  0.44309  Biso   1.000  C
  C173     1.0000 0.73966  0.30314  0.45294  Biso   1.000  C
  C174     1.0000 0.79350  0.76550  0.56730  Biso   1.000  C
  C175     1.0000 0.76198  0.82002  0.55862  Biso   1.000  C
  C176     1.0000 0.80405  0.85435  0.55035  Biso   1.000  C
  C177     1.0000 0.87973  0.83347  0.54867  Biso   1.000  C
  C178     1.0000 0.91203  0.78017  0.55697  Biso   1.000  C
  C179     1.0000 0.86917  0.74523  0.56763  Biso   1.000  C
  C180     1.0000 0.74995  0.72735  0.57495  Biso   1.000  C
  C181     1.0000 0.77148  0.91342  0.53922  Biso   1.000  C
  C182     1.0000 0.99520  0.75860  0.55200  Biso   1.000  C
  C183     1.0000 0.49631  0.02959  0.54159  Biso   1.000  C
  C184     1.0000 0.48420  0.97980  0.59780  Biso   1.000  C
  C185     1.0000 0.36230  0.07250  0.56050  Biso   1.000  C
  C186     1.0000 0.45410  0.11810  0.47230  Biso   1.000  C
  C187     1.0000 0.24293  0.07507  0.87947  Biso   1.000  C
  C188     1.0000 0.23431  0.08359  0.92559  Biso   1.000  C
  C189     1.0000 0.17852  0.12568  0.93628  Biso   1.000  C
  C190     1.0000 0.13413  0.15997  0.89817  Biso   1.000  C
  C191     1.0000 0.14113  0.15097  0.85297  Biso   1.000  C
  C192     1.0000 0.19564  0.10906  0.84346  Biso   1.000  C
  C193     1.0000 0.29982  0.02678  0.87098  Biso   1.000  C
  C194     1.0000 0.16724  0.13126  0.98686  Biso   1.000  C
  C195     1.0000 0.09129  0.18851  0.81431  Biso   1.000  C
  C196     1.0000 0.66960  0.97910  0.68250  Biso   1.000  C
  C197     1.0000 0.72399  0.96921  0.70941  Biso   1.000  C
  C198     1.0000 0.70722  0.95458  0.76578  Biso   1.000  C
  C199     1.0000 0.63638  0.95042  0.79502  Biso   1.000  C
  C200     1.0000 0.58172  0.95978  0.76838  Biso   1.000  C
  C201     1.0000 0.59936  0.97354  0.71214  Biso   1.000  C
  C202     1.0000 0.68896  0.99444  0.62184  Biso   1.000  C
  C203     1.0000 0.76511  0.94309  0.79509  Biso   1.000  C
  C204     1.0000 0.50426  0.95294  0.80314  Biso   1.000  C
  C205     1.0000 0.87370  0.06730  0.26550  Biso   1.000  C
  C206     1.0000 0.85938  0.05862  0.32002  Biso   1.000  C
  C207     1.0000 0.79125  0.05035  0.35435  Biso   1.000  C
  C208     1.0000 0.73813  0.04867  0.33347  Biso   1.000  C
  C209     1.0000 0.75083  0.05697  0.28017  Biso   1.000  C
  C210     1.0000 0.81797  0.06763  0.24523  Biso   1.000  C
  C211     1.0000 0.94775  0.07495  0.22735  Biso   1.000  C
  C212     1.0000 0.77588  0.03922  0.41342  Biso   1.000  C
  C213     1.0000 0.69420  0.05200  0.25860  Biso   1.000  C
  C214     1.0000 0.93251  0.04159  0.52959  Biso   1.000  C
  C215     1.0000 0.93820  0.09780  0.47980  Biso   1.000  C
  C216     1.0000 0.00470  0.06050  0.57250  Biso   1.000  C
  C217     1.0000 0.95550  0.97230  0.61810  Biso   1.000  C
  C218     1.0000 0.75707  0.12053  0.92493  Biso   1.000  C
  C219     1.0000 0.76569  0.07441  0.91641  Biso   1.000  C
  C220     1.0000 0.82148  0.06372  0.87432  Biso   1.000  C
  C221     1.0000 0.86587  0.10183  0.84003  Biso   1.000  C
  C222     1.0000 0.85887  0.14703  0.84903  Biso   1.000  C
  C223     1.0000 0.80436  0.15654  0.89094  Biso   1.000  C
  C224     1.0000 0.70018  0.12902  0.97322  Biso   1.000  C
  C225     1.0000 0.83276  0.01314  0.86874  Biso   1.000  C
  C226     1.0000 0.90871  0.18569  0.81149  Biso   1.000  C
  C227     1.0000 0.33040  0.31750  0.02090  Biso   1.000  C
  C228     1.0000 0.27601  0.29059  0.03079  Biso   1.000  C
  C229     1.0000 0.29278  0.23422  0.04542  Biso   1.000  C
  C230     1.0000 0.36362  0.20498  0.04958  Biso   1.000  C
  C231     1.0000 0.41828  0.23162  0.04022  Biso   1.000  C
  C232     1.0000 0.40064  0.28786  0.02646  Biso   1.000  C
  C233     1.0000 0.31104  0.37816  0.00556  Biso   1.000  C
  C234     1.0000 0.23489  0.20491  0.05691  Biso   1.000  C
  C235     1.0000 0.49574  0.19686  0.04706  Biso   1.000  C
  C236     1.0000 0.12630  0.73450  0.93270  Biso   1.000  C
  C237     1.0000 0.14062  0.67998  0.94138  Biso   1.000  C
  C238     1.0000 0.20875  0.64565  0.94965  Biso   1.000  C
  C239     1.0000 0.26187  0.66653  0.95133  Biso   1.000  C
  C240     1.0000 0.24917  0.71983  0.94303  Biso   1.000  C
  C241     1.0000 0.18203  0.75477  0.93237  Biso   1.000  C
  C242     1.0000 0.05225  0.77265  0.92505  Biso   1.000  C
  C243     1.0000 0.22412  0.58658  0.96078  Biso   1.000  C
  C244     1.0000 0.30580  0.74140  0.94800  Biso   1.000  C
  C245     1.0000 0.06749  0.47041  0.95841  Biso   1.000  C
  C246     1.0000 0.06180  0.52020  0.90220  Biso   1.000  C
  C247     1.0000 0.99530  0.42750  0.93950  Biso   1.000  C
  C248     1.0000 0.04450  0.38190  0.02770  Biso   1.000  C
  N1       1.0000 0.44090  0.52760  0.07080  Biso   1.000  N
  N2       1.0000 0.55910  0.92920  0.47240  Biso   1.000  N
  N3       1.0000 0.03930  0.97240  0.42920  Biso   1.000  N
  N4       1.0000 0.96070  0.57080  0.02760  Biso   1.000  N
  N5       1.0000 0.55910  0.47240  0.92920  Biso   1.000  N
  N6       1.0000 0.44090  0.07080  0.52760  Biso   1.000  N
  N7       1.0000 0.96070  0.02760  0.57080  Biso   1.000  N
  N8       1.0000 0.03930  0.42920  0.97240  Biso   1.000  N
  O1       1.0000 0.85264  0.51697  0.33115  Biso   1.000  O
  O2       1.0000 0.75476  0.50060  0.40168  Biso   1.000  O
  O3       1.0000 0.66560  0.60754  0.51386  Biso   1.000  O
  O4       1.0000 0.94885  0.67835  0.27395  Biso   1.000  O
  O5       1.0000 0.90497  0.72623  0.32503  Biso   1.000  O
  O6       1.0000 0.76077  0.49866  0.10000  Biso   1.000  O
  O7       1.0000 0.64871  0.50131  0.09607  Biso   1.000  O
  O8       1.0000 0.46114  0.43986  0.26886  Biso   1.000  O
  O9       1.0000 0.47558  0.43717  0.34247  Biso   1.000  O
  O10      1.0000 0.71151  0.44773  0.34985  Biso   1.000  O
  O11      1.0000 0.80684  0.45454  0.27958  Biso   1.000  O
  O12      1.0000 0.78216  0.58079  0.68089  Biso   1.000  O
  O13      1.0000 0.68491  0.57059  0.74619  Biso   1.000  O
  O14      1.0000 0.70292  0.54052  0.93144  Biso   1.000  O
  O15      1.0000 0.81623  0.52888  0.94206  Biso   1.000  O
  O16      1.0000 0.02151  0.56465  0.70973  Biso   1.000  O
  O17      1.0000 0.55850  0.51090  0.02670  Biso   1.000  O
  O18      1.0000 0.03650  0.51870  0.79350  Biso   1.000  O
  O19      1.0000 0.75270  0.64220  0.51140  Biso   1.000  O
  O20      1.0000 0.14736  0.66885  0.48303  Biso   1.000  O
  O21      1.0000 0.24524  0.59832  0.49940  Biso   1.000  O
  O22      1.0000 0.33440  0.48614  0.39246  Biso   1.000  O
  O23      1.0000 0.05115  0.72605  0.32165  Biso   1.000  O
  O24      1.0000 0.09503  0.67497  0.27377  Biso   1.000  O
  O25      1.0000 0.23923  0.90000  0.50134  Biso   1.000  O
  O26      1.0000 0.35129  0.90393  0.49869  Biso   1.000  O
  O27      1.0000 0.53886  0.73114  0.56014  Biso   1.000  O
  O28      1.0000 0.52442  0.65753  0.56283  Biso   1.000  O
  O29      1.0000 0.28849  0.65015  0.55227  Biso   1.000  O
  O30      1.0000 0.19316  0.72042  0.54546  Biso   1.000  O
  O31      1.0000 0.21784  0.31911  0.41921  Biso   1.000  O
  O32      1.0000 0.31509  0.25381  0.42941  Biso   1.000  O
  O33      1.0000 0.29708  0.06856  0.45948  Biso   1.000  O
  O34      1.0000 0.18377  0.05794  0.47112  Biso   1.000  O
  O35      1.0000 0.97849  0.29027  0.43535  Biso   1.000  O
  O36      1.0000 0.44150  0.97330  0.48910  Biso   1.000  O
  O37      1.0000 0.96350  0.20650  0.48130  Biso   1.000  O
  O38      1.0000 0.24730  0.48860  0.35780  Biso   1.000  O
  O39      1.0000 0.70076  0.98303  0.16885  Biso   1.000  O
  O40      1.0000 0.65704  0.99940  0.09832  Biso   1.000  O
  O41      1.0000 0.78700  0.89246  0.98614  Biso   1.000  O
  O42      1.0000 0.90115  0.82165  0.22605  Biso   1.000  O
  O43      1.0000 0.95623  0.77377  0.17497  Biso   1.000  O
  O44      1.0000 0.35943  0.00134  0.40000  Biso   1.000  O
  O45      1.0000 0.24609  0.99869  0.40393  Biso   1.000  O
  O46      1.0000 0.16986  0.06014  0.23114  Biso   1.000  O
  O47      1.0000 0.25522  0.06283  0.15753  Biso   1.000  O
  O48      1.0000 0.50909  0.05227  0.15015  Biso   1.000  O
  O49      1.0000 0.54096  0.04546  0.22042  Biso   1.000  O
  O50      1.0000 0.04384  0.91921  0.81911  Biso   1.000  O
  O51      1.0000 0.00169  0.92941  0.75381  Biso   1.000  O
  O52      1.0000 0.17488  0.95948  0.56856  Biso   1.000  O
  O53      1.0000 0.28717  0.97112  0.55794  Biso   1.000  O
  O54      1.0000 0.29589  0.93535  0.79027  Biso   1.000  O
  O55      1.0000 0.09610  0.98910  0.47330  Biso   1.000  O
  O56      1.0000 0.34870  0.98130  0.70650  Biso   1.000  O
  O57      1.0000 0.90630  0.85780  0.98860  Biso   1.000  O
  O58      1.0000 0.29924  0.83115  0.01697  Biso   1.000  O
  O59      1.0000 0.34296  0.90168  0.00060  Biso   1.000  O
  O60      1.0000 0.21300  0.01386  0.10754  Biso   1.000  O
  O61      1.0000 0.09885  0.77395  0.17835  Biso   1.000  O
  O62      1.0000 0.04377  0.82503  0.22623  Biso   1.000  O
  O63      1.0000 0.64057  0.60000  0.99866  Biso   1.000  O
  O64      1.0000 0.75391  0.59607  0.00131  Biso   1.000  O
  O65      1.0000 0.83014  0.76886  0.93986  Biso   1.000  O
  O66      1.0000 0.74478  0.84247  0.93717  Biso   1.000  O
  O67      1.0000 0.49091  0.84985  0.94773  Biso   1.000  O
  O68      1.0000 0.45904  0.77958  0.95454  Biso   1.000  O
  O69      1.0000 0.95616  0.18089  0.08079  Biso   1.000  O
  O70      1.0000 0.99831  0.24619  0.07059  Biso   1.000  O
  O71      1.0000 0.82512  0.43144  0.04052  Biso   1.000  O
  O72      1.0000 0.71283  0.44206  0.02888  Biso   1.000  O
  O73      1.0000 0.70411  0.20973  0.06465  Biso   1.000  O
  O74      1.0000 0.90390  0.52670  0.01090  Biso   1.000  O
  O75      1.0000 0.65130  0.29350  0.01870  Biso   1.000  O
  O76      1.0000 0.09370  0.01140  0.14220  Biso   1.000  O
  O77      1.0000 0.14736  0.48303  0.66885  Biso   1.000  O
  O78      1.0000 0.24524  0.49940  0.59832  Biso   1.000  O
  O79      1.0000 0.33440  0.39246  0.48614  Biso   1.000  O
  O80      1.0000 0.05115  0.32165  0.72605  Biso   1.000  O
  O81      1.0000 0.09503  0.27377  0.67497  Biso   1.000  O
  O82      1.0000 0.23923  0.50134  0.90000  Biso   1.000  O
  O83      1.0000 0.35129  0.49869  0.90393  Biso   1.000  O
  O84      1.0000 0.53886  0.56014  0.73114  Biso   1.000  O
  O85      1.0000 0.52442  0.56283  0.65753  Biso   1.000  O
  O86      1.0000 0.28849  0.55227  0.65015  Biso   1.000  O
  O87      1.0000 0.19316  0.54546  0.72042  Biso   1.000  O
  O88      1.0000 0.21784  0.41921  0.31911  Biso   1.000  O
  O89      1.0000 0.31509  0.42941  0.25381  Biso   1.000  O
  O90      1.0000 0.29708  0.45948  0.06856  Biso   1.000  O
  O91      1.0000 0.18377  0.47112  0.05794  Biso   1.000  O
  O92      1.0000 0.97849  0.43535  0.29027  Biso   1.000  O
  O93      1.0000 0.44150  0.48910  0.97330  Biso   1.000  O
  O94      1.0000 0.96350  0.48130  0.20650  Biso   1.000  O
  O95      1.0000 0.24730  0.35780  0.48860  Biso   1.000  O
  O96      1.0000 0.85264  0.33115  0.51697  Biso   1.000  O
  O97      1.0000 0.75476  0.40168  0.50060  Biso   1.000  O
  O98      1.0000 0.66560  0.51386  0.60754  Biso   1.000  O
  O99      1.0000 0.94885  0.27395  0.67835  Biso   1.000  O
  O100     1.0000 0.90497  0.32503  0.72623  Biso   1.000  O
  O101     1.0000 0.76077  0.10000  0.49866  Biso   1.000  O
  O102     1.0000 0.64871  0.09607  0.50131  Biso   1.000  O
  O103     1.0000 0.46114  0.26886  0.43986  Biso   1.000  O
  O104     1.0000 0.47558  0.34247  0.43717  Biso   1.000  O
  O105     1.0000 0.71151  0.34985  0.44773  Biso   1.000  O
  O106     1.0000 0.80684  0.27958  0.45454  Biso   1.000  O
  O107     1.0000 0.78216  0.68089  0.58079  Biso   1.000  O
  O108     1.0000 0.68491  0.74619  0.57059  Biso   1.000  O
  O109     1.0000 0.70292  0.93144  0.54052  Biso   1.000  O
  O110     1.0000 0.81623  0.94206  0.52888  Biso   1.000  O
  O111     1.0000 0.02151  0.70973  0.56465  Biso   1.000  O
  O112     1.0000 0.55850  0.02670  0.51090  Biso   1.000  O
  O113     1.0000 0.03650  0.79350  0.51870  Biso   1.000  O
  O114     1.0000 0.75270  0.51140  0.64220  Biso   1.000  O
  O115     1.0000 0.29924  0.01697  0.83115  Biso   1.000  O
  O116     1.0000 0.34296  0.00060  0.90168  Biso   1.000  O
  O117     1.0000 0.21300  0.10754  0.01386  Biso   1.000  O
  O118     1.0000 0.09885  0.17835  0.77395  Biso   1.000  O
  O119     1.0000 0.04377  0.22623  0.82503  Biso   1.000  O
  O120     1.0000 0.64057  0.99866  0.60000  Biso   1.000  O
  O121     1.0000 0.75391  0.00131  0.59607  Biso   1.000  O
  O122     1.0000 0.83014  0.93986  0.76886  Biso   1.000  O
  O123     1.0000 0.74478  0.93717  0.84247  Biso   1.000  O
  O124     1.0000 0.49091  0.94773  0.84985  Biso   1.000  O
  O125     1.0000 0.45904  0.95454  0.77958  Biso   1.000  O
  O126     1.0000 0.95616  0.08079  0.18089  Biso   1.000  O
  O127     1.0000 0.99831  0.07059  0.24619  Biso   1.000  O
  O128     1.0000 0.82512  0.04052  0.43144  Biso   1.000  O
  O129     1.0000 0.71283  0.02888  0.44206  Biso   1.000  O
  O130     1.0000 0.70411  0.06465  0.20973  Biso   1.000  O
  O131     1.0000 0.90390  0.01090  0.52670  Biso   1.000  O
  O132     1.0000 0.65130  0.01870  0.29350  Biso   1.000  O
  O133     1.0000 0.09370  0.14220  0.01140  Biso   1.000  O
  O134     1.0000 0.70076  0.16885  0.98303  Biso   1.000  O
  O135     1.0000 0.65704  0.09832  0.99940  Biso   1.000  O
  O136     1.0000 0.78700  0.98614  0.89246  Biso   1.000  O
  O137     1.0000 0.90115  0.22605  0.82165  Biso   1.000  O
  O138     1.0000 0.95623  0.17497  0.77377  Biso   1.000  O
  O139     1.0000 0.35943  0.40000  0.00134  Biso   1.000  O
  O140     1.0000 0.24609  0.40393  0.99869  Biso   1.000  O
  O141     1.0000 0.16986  0.23114  0.06014  Biso   1.000  O
  O142     1.0000 0.25522  0.15753  0.06283  Biso   1.000  O
  O143     1.0000 0.50909  0.15015  0.05227  Biso   1.000  O
  O144     1.0000 0.54096  0.22042  0.04546  Biso   1.000  O
  O145     1.0000 0.04384  0.81911  0.91921  Biso   1.000  O
  O146     1.0000 0.00169  0.75381  0.92941  Biso   1.000  O
  O147     1.0000 0.17488  0.56856  0.95948  Biso   1.000  O
  O148     1.0000 0.28717  0.55794  0.97112  Biso   1.000  O
  O149     1.0000 0.29589  0.79027  0.93535  Biso   1.000  O
  O150     1.0000 0.09610  0.47330  0.98910  Biso   1.000  O
  O151     1.0000 0.34870  0.70650  0.98130  Biso   1.000  O
  O152     1.0000 0.90630  0.98860  0.85780  Biso   1.000  O
  O153     1.0000 0.62258  0.45272  0.45272  Biso   1.000  O
  O154     1.0000 0.85250  0.39550  0.39550  Biso   1.000  O
  O155     1.0000 0.37742  0.54728  0.54728  Biso   1.000  O
  O156     1.0000 0.14750  0.60450  0.60450  Biso   1.000  O
  O157     1.0000 0.52802  0.04728  0.04728  Biso   1.000  O
  O158     1.0000 0.64350  0.10450  0.10450  Biso   1.000  O
  O159     1.0000 0.47198  0.95272  0.95272  Biso   1.000  O
  O160     1.0000 0.35650  0.89550  0.89550  Biso   1.000  O
  O161     1.0000 0.84580  0.56990  0.56990  Biso   1.000  O
  O162     1.0000 0.65502  0.62178  0.62178  Biso   1.000  O
  O163     1.0000 0.15420  0.43010  0.43010  Biso   1.000  O
  O164     1.0000 0.34498  0.37822  0.37822  Biso   1.000  O
  O165     1.0000 0.98560  0.93010  0.93010  Biso   1.000  O
  O166     1.0000 0.89858  0.87822  0.87822  Biso   1.000  O
  O167     1.0000 0.01440  0.06990  0.06990  Biso   1.000  O
  O168     1.0000 0.10142  0.12178  0.12178  Biso   1.000  O
  O169     1.0000 0.07786  0.67214  0.17214  Biso   1.000  O
  O170     1.0000 0.92214  0.82786  0.32786  Biso   1.000  O
  O171     1.0000 0.92214  0.32786  0.82786  Biso   1.000  O
  O172     1.0000 0.07786  0.17214  0.67214  Biso   1.000  O
