data_image0
_cell_length_a       6.7849
_cell_length_b       13.0309
_cell_length_c       16.851
_cell_angle_alpha    90
_cell_angle_beta     90
_cell_angle_gamma    90

_symmetry_space_group_name_H-M    P 1
_symmetry_int_tables_number       1

loop_
  _symmetry_equiv_pos_as_xyz
  'x, y, z'

loop_
  _atom_site_label
  _atom_site_occupancy
  _atom_site_fract_x
  _atom_site_fract_y
  _atom_site_fract_z
  _atom_site_thermal_displace_type
  _atom_site_B_iso_or_equiv
  _atom_site_type_symbol
  V1       1.0000 0.94078  0.23536  0.50034  Biso   1.000  V
  V2       1.0000 0.55922  0.76464  0.00034  Biso   1.000  V
  V3       1.0000 0.05922  0.73536  0.99966  Biso   1.000  V
  V4       1.0000 0.44078  0.26464  0.49966  Biso   1.000  V
  H1       1.0000 0.03040  0.41720  0.29610  Biso   1.000  H
  H2       1.0000 0.05140  0.52070  0.18500  Biso   1.000  H
  H3       1.0000 0.46580  0.57040  0.19750  Biso   1.000  H
  H4       1.0000 0.45040  0.47070  0.31110  Biso   1.000  H
  H5       1.0000 0.46960  0.58280  0.79610  Biso   1.000  H
  H6       1.0000 0.44860  0.47930  0.68500  Biso   1.000  H
  H7       1.0000 0.03420  0.42960  0.69750  Biso   1.000  H
  H8       1.0000 0.04960  0.52930  0.81110  Biso   1.000  H
  H9       1.0000 0.96960  0.91720  0.20390  Biso   1.000  H
  H10      1.0000 0.94860  0.02070  0.31500  Biso   1.000  H
  H11      1.0000 0.53420  0.07040  0.30250  Biso   1.000  H
  H12      1.0000 0.54960  0.97070  0.18890  Biso   1.000  H
  H13      1.0000 0.53040  0.08280  0.70390  Biso   1.000  H
  H14      1.0000 0.55140  0.97930  0.81500  Biso   1.000  H
  H15      1.0000 0.96580  0.92960  0.80250  Biso   1.000  H
  H16      1.0000 0.95040  0.02930  0.68890  Biso   1.000  H
  C1       1.0000 0.72960  0.36770  0.38699  Biso   1.000  C
  C2       1.0000 0.73930  0.43480  0.31463  Biso   1.000  C
  C3       1.0000 0.91780  0.44920  0.27657  Biso   1.000  C
  C4       1.0000 0.93070  0.51060  0.20994  Biso   1.000  C
  C5       1.0000 0.57980  0.54090  0.21787  Biso   1.000  C
  C6       1.0000 0.57030  0.48050  0.28543  Biso   1.000  C
  C7       1.0000 0.77200  0.62470  0.10949  Biso   1.000  C
  C8       1.0000 0.76040  0.55740  0.18045  Biso   1.000  C
  C9       1.0000 0.77040  0.63230  0.88699  Biso   1.000  C
  C10      1.0000 0.76070  0.56520  0.81463  Biso   1.000  C
  C11      1.0000 0.58220  0.55080  0.77657  Biso   1.000  C
  C12      1.0000 0.56930  0.48940  0.70994  Biso   1.000  C
  C13      1.0000 0.92020  0.45910  0.71787  Biso   1.000  C
  C14      1.0000 0.92970  0.51950  0.78543  Biso   1.000  C
  C15      1.0000 0.72800  0.37530  0.60949  Biso   1.000  C
  C16      1.0000 0.73960  0.44260  0.68045  Biso   1.000  C
  C17      1.0000 0.27040  0.86770  0.11301  Biso   1.000  C
  C18      1.0000 0.26070  0.93480  0.18537  Biso   1.000  C
  C19      1.0000 0.08220  0.94920  0.22343  Biso   1.000  C
  C20      1.0000 0.06930  0.01060  0.29006  Biso   1.000  C
  C21      1.0000 0.42020  0.04090  0.28213  Biso   1.000  C
  C22      1.0000 0.42970  0.98050  0.21457  Biso   1.000  C
  C23      1.0000 0.22800  0.12470  0.39051  Biso   1.000  C
  C24      1.0000 0.23960  0.05740  0.31955  Biso   1.000  C
  C25      1.0000 0.22960  0.13230  0.61301  Biso   1.000  C
  C26      1.0000 0.23930  0.06520  0.68537  Biso   1.000  C
  C27      1.0000 0.41780  0.05080  0.72343  Biso   1.000  C
  C28      1.0000 0.43070  0.98940  0.79006  Biso   1.000  C
  C29      1.0000 0.07980  0.95910  0.78213  Biso   1.000  C
  C30      1.0000 0.07030  0.01950  0.71457  Biso   1.000  C
  C31      1.0000 0.27200  0.87530  0.89051  Biso   1.000  C
  C32      1.0000 0.26040  0.94260  0.81955  Biso   1.000  C
  O1       1.0000 0.72116  0.18710  0.50119  Biso   1.000  O
  O2       1.0000 0.89010  0.33489  0.41407  Biso   1.000  O
  O3       1.0000 0.93960  0.64397  0.08128  Biso   1.000  O
  O4       1.0000 0.55960  0.34897  0.41396  Biso   1.000  O
  O5       1.0000 0.61100  0.65977  0.08309  Biso   1.000  O
  O6       1.0000 0.77884  0.81290  0.00119  Biso   1.000  O
  O7       1.0000 0.60990  0.66511  0.91407  Biso   1.000  O
  O8       1.0000 0.56040  0.35603  0.58128  Biso   1.000  O
  O9       1.0000 0.94040  0.65103  0.91396  Biso   1.000  O
  O10      1.0000 0.88900  0.34023  0.58309  Biso   1.000  O
  O11      1.0000 0.27884  0.68710  0.99881  Biso   1.000  O
  O12      1.0000 0.10990  0.83489  0.08593  Biso   1.000  O
  O13      1.0000 0.06040  0.14397  0.41872  Biso   1.000  O
  O14      1.0000 0.44040  0.84897  0.08604  Biso   1.000  O
  O15      1.0000 0.38900  0.15977  0.41691  Biso   1.000  O
  O16      1.0000 0.22116  0.31290  0.49881  Biso   1.000  O
  O17      1.0000 0.39010  0.16511  0.58593  Biso   1.000  O
  O18      1.0000 0.43960  0.85603  0.91872  Biso   1.000  O
  O19      1.0000 0.05960  0.15103  0.58604  Biso   1.000  O
  O20      1.0000 0.11100  0.84023  0.91691  Biso   1.000  O
