data_image0
_cell_length_a       6.7858
_cell_length_b       12.618
_cell_length_c       17.086
_cell_angle_alpha    90
_cell_angle_beta     90
_cell_angle_gamma    90

_symmetry_space_group_name_H-M    P 1
_symmetry_int_tables_number       1

loop_
  _symmetry_equiv_pos_as_xyz
  'x, y, z'

loop_
  _atom_site_label
  _atom_site_occupancy
  _atom_site_fract_x
  _atom_site_fract_y
  _atom_site_fract_z
  _atom_site_thermal_displace_type
  _atom_site_B_iso_or_equiv
  _atom_site_type_symbol
  V1       1.0000 0.94114  0.26540  0.00074  Biso   1.000  V
  V2       1.0000 0.55886  0.73460  0.50074  Biso   1.000  V
  V3       1.0000 0.05886  0.76540  0.49926  Biso   1.000  V
  V4       1.0000 0.44114  0.23460  0.99926  Biso   1.000  V
  H1       1.0000 0.94950  0.46360  0.19440  Biso   1.000  H
  H2       1.0000 0.54530  0.50450  0.32330  Biso   1.000  H
  H3       1.0000 0.53020  0.40370  0.21110  Biso   1.000  H
  H4       1.0000 0.96850  0.56550  0.30790  Biso   1.000  H
  H5       1.0000 0.55050  0.53640  0.69440  Biso   1.000  H
  H6       1.0000 0.95470  0.49550  0.82330  Biso   1.000  H
  H7       1.0000 0.96980  0.59630  0.71110  Biso   1.000  H
  H8       1.0000 0.53150  0.43450  0.80790  Biso   1.000  H
  H9       1.0000 0.05050  0.96360  0.30560  Biso   1.000  H
  H10      1.0000 0.45470  0.00450  0.17670  Biso   1.000  H
  H11      1.0000 0.46980  0.90370  0.28890  Biso   1.000  H
  H12      1.0000 0.03150  0.06550  0.19210  Biso   1.000  H
  H13      1.0000 0.44950  0.03640  0.80560  Biso   1.000  H
  H14      1.0000 0.04530  0.99550  0.67670  Biso   1.000  H
  H15      1.0000 0.03020  0.09630  0.78890  Biso   1.000  H
  H16      1.0000 0.46850  0.93450  0.69210  Biso   1.000  H
  C1       1.0000 0.23930  0.42560  0.19070  Biso   1.000  C
  C2       1.0000 0.06950  0.47250  0.21990  Biso   1.000  C
  C3       1.0000 0.22740  0.36250  0.11740  Biso   1.000  C
  C4       1.0000 0.42560  0.49670  0.29740  Biso   1.000  C
  C5       1.0000 0.41730  0.43660  0.23010  Biso   1.000  C
  C6       1.0000 0.26030  0.54500  0.32680  Biso   1.000  C
  C7       1.0000 0.08100  0.53300  0.28810  Biso   1.000  C
  C8       1.0000 0.27020  0.61540  0.39680  Biso   1.000  C
  C9       1.0000 0.26070  0.57440  0.69070  Biso   1.000  C
  C10      1.0000 0.43050  0.52750  0.71990  Biso   1.000  C
  C11      1.0000 0.27260  0.63750  0.61740  Biso   1.000  C
  C12      1.0000 0.07440  0.50330  0.79740  Biso   1.000  C
  C13      1.0000 0.08270  0.56340  0.73010  Biso   1.000  C
  C14      1.0000 0.23970  0.45500  0.82680  Biso   1.000  C
  C15      1.0000 0.41900  0.46700  0.78810  Biso   1.000  C
  C16      1.0000 0.22980  0.38460  0.89680  Biso   1.000  C
  C17      1.0000 0.76070  0.92560  0.30930  Biso   1.000  C
  C18      1.0000 0.93050  0.97250  0.28010  Biso   1.000  C
  C19      1.0000 0.77260  0.86250  0.38260  Biso   1.000  C
  C20      1.0000 0.57440  0.99670  0.20260  Biso   1.000  C
  C21      1.0000 0.58270  0.93660  0.26990  Biso   1.000  C
  C22      1.0000 0.73970  0.04500  0.17320  Biso   1.000  C
  C23      1.0000 0.91900  0.03300  0.21190  Biso   1.000  C
  C24      1.0000 0.72980  0.11540  0.10320  Biso   1.000  C
  C25      1.0000 0.73930  0.07440  0.80930  Biso   1.000  C
  C26      1.0000 0.56950  0.02750  0.78010  Biso   1.000  C
  C27      1.0000 0.72740  0.13750  0.88260  Biso   1.000  C
  C28      1.0000 0.92560  0.00330  0.70260  Biso   1.000  C
  C29      1.0000 0.91730  0.06340  0.76990  Biso   1.000  C
  C30      1.0000 0.76030  0.95500  0.67320  Biso   1.000  C
  C31      1.0000 0.58100  0.96700  0.71190  Biso   1.000  C
  C32      1.0000 0.77020  0.88460  0.60320  Biso   1.000  C
  O1       1.0000 0.22240  0.18534  0.99604  Biso   1.000  O
  O2       1.0000 0.06200  0.34490  0.08833  Biso   1.000  O
  O3       1.0000 0.44100  0.63500  0.42387  Biso   1.000  O
  O4       1.0000 0.10960  0.65050  0.42316  Biso   1.000  O
  O5       1.0000 0.39020  0.32990  0.08930  Biso   1.000  O
  O6       1.0000 0.27760  0.81466  0.49604  Biso   1.000  O
  O7       1.0000 0.43800  0.65510  0.58833  Biso   1.000  O
  O8       1.0000 0.05900  0.36500  0.92387  Biso   1.000  O
  O9       1.0000 0.39040  0.34950  0.92316  Biso   1.000  O
  O10      1.0000 0.10980  0.67010  0.58930  Biso   1.000  O
  O11      1.0000 0.77760  0.68534  0.50396  Biso   1.000  O
  O12      1.0000 0.93800  0.84490  0.41167  Biso   1.000  O
  O13      1.0000 0.55900  0.13500  0.07613  Biso   1.000  O
  O14      1.0000 0.89040  0.15050  0.07684  Biso   1.000  O
  O15      1.0000 0.60980  0.82990  0.41070  Biso   1.000  O
  O16      1.0000 0.72240  0.31466  0.00396  Biso   1.000  O
  O17      1.0000 0.56200  0.15510  0.91167  Biso   1.000  O
  O18      1.0000 0.94100  0.86500  0.57613  Biso   1.000  O
  O19      1.0000 0.60960  0.84950  0.57684  Biso   1.000  O
  O20      1.0000 0.89020  0.17010  0.91070  Biso   1.000  O
