data_image0
_cell_length_a       12.4903
_cell_length_b       12.4903
_cell_length_c       22.4855
_cell_angle_alpha    82.4179
_cell_angle_beta     81.509
_cell_angle_gamma    119.779

_symmetry_space_group_name_H-M    P 1
_symmetry_int_tables_number       1

loop_
  _symmetry_equiv_pos_as_xyz
  'x, y, z'

loop_
  _atom_site_label
  _atom_site_occupancy
  _atom_site_fract_x
  _atom_site_fract_y
  _atom_site_fract_z
  _atom_site_thermal_displace_type
  _atom_site_B_iso_or_equiv
  _atom_site_type_symbol
  Dy1      1.0000 0.90601  0.42845  0.13999  Biso   1.000  Dy
  Dy2      1.0000 0.93156  0.95400  0.63999  Biso   1.000  Dy
  Cu1      1.0000 0.42201  0.20861  0.92106  Biso   1.000  Cu
  Cu2      1.0000 0.37033  0.65693  0.42106  Biso   1.000  Cu
  H1       1.0000 0.30400  0.52530  0.98850  Biso   1.000  H
  H2       1.0000 0.43120  0.46750  0.93490  Biso   1.000  H
  H3       1.0000 0.05550  0.15550  0.06940  Biso   1.000  H
  H4       1.0000 0.01570  0.95870  0.07680  Biso   1.000  H
  H5       1.0000 0.15870  0.75360  0.02350  Biso   1.000  H
  H6       1.0000 0.33280  0.93500  0.96160  Biso   1.000  H
  H7       1.0000 0.38300  0.34760  0.71580  Biso   1.000  H
  H8       1.0000 0.18920  0.99660  0.87740  Biso   1.000  H
  H9       1.0000 0.10150  0.98690  0.79420  Biso   1.000  H
  H10      1.0000 0.55240  0.51290  0.72670  Biso   1.000  H
  H11      1.0000 0.80550  0.63870  0.83060  Biso   1.000  H
  H12      1.0000 0.68360  0.44570  0.90010  Biso   1.000  H
  H13      1.0000 0.76710  0.45970  0.23840  Biso   1.000  H
  H14      1.0000 0.79660  0.55690  0.18670  Biso   1.000  H
  H15      1.0000 0.83720  0.40580  0.02980  Biso   1.000  H
  H16      1.0000 0.77890  0.28120  0.06410  Biso   1.000  H
  H17      1.0000 0.98620  0.70750  0.48850  Biso   1.000  H
  H18      1.0000 0.09760  0.63390  0.43490  Biso   1.000  H
  H19      1.0000 0.27510  0.87510  0.56940  Biso   1.000  H
  H20      1.0000 0.46450  0.90750  0.57680  Biso   1.000  H
  H21      1.0000 0.72290  0.81780  0.52350  Biso   1.000  H
  H22      1.0000 0.60340  0.70560  0.46160  Biso   1.000  H
  H23      1.0000 0.43660  0.90120  0.21580  Biso   1.000  H
  H24      1.0000 0.62600  0.93340  0.37740  Biso   1.000  H
  H25      1.0000 0.71890  0.10430  0.29420  Biso   1.000  H
  H26      1.0000 0.26040  0.72090  0.22670  Biso   1.000  H
  H27      1.0000 0.03070  0.36390  0.33060  Biso   1.000  H
  H28      1.0000 0.15420  0.41630  0.40010  Biso   1.000  H
  H29      1.0000 0.80190  0.99450  0.73840  Biso   1.000  H
  H30      1.0000 0.75640  0.01670  0.68670  Biso   1.000  H
  H31      1.0000 0.06440  0.13300  0.52980  Biso   1.000  H
  H32      1.0000 0.15470  0.15700  0.56410  Biso   1.000  H
  C1       1.0000 0.07530  0.37710  0.06980  Biso   1.000  C
  C2       1.0000 0.16390  0.34600  0.03450  Biso   1.000  C
  C3       1.0000 0.27850  0.44020  0.99410  Biso   1.000  C
  C4       1.0000 0.35430  0.40450  0.96220  Biso   1.000  C
  C5       1.0000 0.13130  0.22020  0.04210  Biso   1.000  C
  C6       1.0000 0.21240  0.19250  0.00890  Biso   1.000  C
  C7       1.0000 0.18720  0.06120  0.01460  Biso   1.000  C
  C8       1.0000 0.07930  0.95270  0.05300  Biso   1.000  C
  C9       1.0000 0.16380  0.83090  0.02150  Biso   1.000  C
  C10      1.0000 0.06720  0.83620  0.05560  Biso   1.000  C
  C11      1.0000 0.26740  0.93970  0.98450  Biso   1.000  C
  C12      1.0000 0.94980  0.71440  0.09580  Biso   1.000  C
  C13      1.0000 0.17870  0.16140  0.68830  Biso   1.000  C
  C14      1.0000 0.23210  0.16590  0.74560  Biso   1.000  C
  C15      1.0000 0.34230  0.27530  0.74820  Biso   1.000  C
  C16      1.0000 0.39000  0.27430  0.79970  Biso   1.000  C
  C17      1.0000 0.22850  0.06780  0.84450  Biso   1.000  C
  C18      1.0000 0.17510  0.06120  0.79470  Biso   1.000  C
  C19      1.0000 0.50960  0.38620  0.80540  Biso   1.000  C
  C20      1.0000 0.57990  0.50050  0.76180  Biso   1.000  C
  C21      1.0000 0.69150  0.59620  0.77070  Biso   1.000  C
  C22      1.0000 0.73070  0.57550  0.82360  Biso   1.000  C
  C23      1.0000 0.65680  0.46010  0.86510  Biso   1.000  C
  C24      1.0000 0.77240  0.72220  0.72380  Biso   1.000  C
  C25      1.0000 0.05310  0.85490  0.56980  Biso   1.000  C
  C26      1.0000 0.11950  0.80160  0.53450  Biso   1.000  C
  C27      1.0000 0.06570  0.72740  0.49410  Biso   1.000  C
  C28      1.0000 0.13330  0.68350  0.46220  Biso   1.000  C
  C29      1.0000 0.23770  0.82660  0.54210  Biso   1.000  C
  C30      1.0000 0.29860  0.77870  0.50890  Biso   1.000  C
  C31      1.0000 0.42420  0.79820  0.51460  Biso   1.000  C
  C32      1.0000 0.49430  0.86770  0.55300  Biso   1.000  C
  C33      1.0000 0.64760  0.81470  0.52150  Biso   1.000  C
  C34      1.0000 0.60820  0.87720  0.55560  Biso   1.000  C
  C35      1.0000 0.57580  0.74810  0.48450  Biso   1.000  C
  C36      1.0000 0.68980  0.95440  0.59580  Biso   1.000  C
  C37      1.0000 0.65030  0.13300  0.18830  Biso   1.000  C
  C38      1.0000 0.58850  0.02230  0.24560  Biso   1.000  C
  C39      1.0000 0.47650  0.90950  0.24820  Biso   1.000  C
  C40      1.0000 0.42600  0.81030  0.29970  Biso   1.000  C
  C41      1.0000 0.58770  0.92700  0.34450  Biso   1.000  C
  C42      1.0000 0.64410  0.03020  0.29470  Biso   1.000  C
  C43      1.0000 0.30840  0.68500  0.30540  Biso   1.000  C
  C44      1.0000 0.23770  0.65830  0.26180  Biso   1.000  C
  C45      1.0000 0.13310  0.53780  0.27070  Biso   1.000  C
  C46      1.0000 0.10090  0.44570  0.32360  Biso   1.000  C
  C47      1.0000 0.17480  0.47810  0.36510  Biso   1.000  C
  C48      1.0000 0.05400  0.50380  0.22380  Biso   1.000  C
  N1       1.0000 0.32260  0.28370  0.96870  Biso   1.000  N
  N2       1.0000 0.27905  0.05280  0.97975  Biso   1.000  N
  N3       1.0000 0.33513  0.17310  0.84777  Biso   1.000  N
  N4       1.0000 0.54717  0.36680  0.85723  Biso   1.000  N
  N5       1.0000 0.24760  0.70870  0.46870  Biso   1.000  N
  N6       1.0000 0.46745  0.74120  0.47975  Biso   1.000  N
  N7       1.0000 0.47913  0.81710  0.34777  Biso   1.000  N
  N8       1.0000 0.27597  0.59560  0.35723  Biso   1.000  N
  Cl1      1.0000 0.56456  0.20695  0.97419  Biso   1.000  Cl
  Cl2      1.0000 0.31886  0.46125  0.47419  Biso   1.000  Cl
  O1       1.0000 0.09440  0.48786  0.05574  Biso   1.000  O
  O2       1.0000 0.98410  0.29230  0.11320  Biso   1.000  O
  O3       1.0000 0.87240  0.72060  0.13300  Biso   1.000  O
  O4       1.0000 0.94297  0.61385  0.08618  Biso   1.000  O
  O5       1.0000 0.76960  0.47590  0.19870  Biso   1.000  O
  O6       1.0000 0.79324  0.35515  0.06521  Biso   1.000  O
  O7       1.0000 0.07070  0.06720  0.69430  Biso   1.000  O
  O8       1.0000 0.24430  0.24790  0.64120  Biso   1.000  O
  O9       1.0000 0.73750  0.74190  0.67720  Biso   1.000  O
  O10      1.0000 0.87440  0.80340  0.73320  Biso   1.000  O
  O11      1.0000 0.95640  0.84986  0.55574  Biso   1.000  O
  O12      1.0000 0.09450  0.90270  0.61320  Biso   1.000  O
  O13      1.0000 0.64640  0.99460  0.63300  Biso   1.000  O
  O14      1.0000 0.79997  0.97085  0.58618  Biso   1.000  O
  O15      1.0000 0.82540  0.03170  0.69870  Biso   1.000  O
  O16      1.0000 0.07964  0.14155  0.56521  Biso   1.000  O
  O17      1.0000 0.73850  0.23500  0.19430  Biso   1.000  O
  O18      1.0000 0.61090  0.11450  0.14120  Biso   1.000  O
  O19      1.0000 0.08090  0.58530  0.17720  Biso   1.000  O
  O20      1.0000 0.96340  0.39240  0.23320  Biso   1.000  O
  Dy3      1.0000 0.06844  0.04600  0.36001  Biso   1.000  Dy
  Dy4      1.0000 0.09399  0.57155  0.86001  Biso   1.000  Dy
  Cu3      1.0000 0.62967  0.34307  0.57894  Biso   1.000  Cu
  Cu4      1.0000 0.57799  0.79139  0.07894  Biso   1.000  Cu
  H33      1.0000 0.01380  0.29250  0.51150  Biso   1.000  H
  H34      1.0000 0.90240  0.36610  0.56510  Biso   1.000  H
  H35      1.0000 0.72490  0.12490  0.43060  Biso   1.000  H
  H36      1.0000 0.53550  0.09250  0.42320  Biso   1.000  H
  H37      1.0000 0.27710  0.18220  0.47650  Biso   1.000  H
  H38      1.0000 0.39660  0.29440  0.53840  Biso   1.000  H
  H39      1.0000 0.56340  0.09880  0.78420  Biso   1.000  H
  H40      1.0000 0.37400  0.06660  0.62260  Biso   1.000  H
  H41      1.0000 0.28110  0.89570  0.70580  Biso   1.000  H
  H42      1.0000 0.73960  0.27910  0.77330  Biso   1.000  H
  H43      1.0000 0.96930  0.63610  0.66940  Biso   1.000  H
  H44      1.0000 0.84580  0.58370  0.59990  Biso   1.000  H
  H45      1.0000 0.19810  0.00550  0.26160  Biso   1.000  H
  H46      1.0000 0.24360  0.98330  0.31330  Biso   1.000  H
  H47      1.0000 0.93560  0.86700  0.47020  Biso   1.000  H
  H48      1.0000 0.84530  0.84300  0.43590  Biso   1.000  H
  H49      1.0000 0.69600  0.47470  0.01150  Biso   1.000  H
  H50      1.0000 0.56880  0.53250  0.06510  Biso   1.000  H
  H51      1.0000 0.94450  0.84450  0.93060  Biso   1.000  H
  H52      1.0000 0.98430  0.04130  0.92320  Biso   1.000  H
  H53      1.0000 0.84130  0.24640  0.97650  Biso   1.000  H
  H54      1.0000 0.66720  0.06500  0.03840  Biso   1.000  H
  H55      1.0000 0.61700  0.65240  0.28420  Biso   1.000  H
  H56      1.0000 0.81080  0.00340  0.12260  Biso   1.000  H
  H57      1.0000 0.89850  0.01310  0.20580  Biso   1.000  H
  H58      1.0000 0.44760  0.48710  0.27330  Biso   1.000  H
  H59      1.0000 0.19450  0.36130  0.16940  Biso   1.000  H
  H60      1.0000 0.31640  0.55430  0.09990  Biso   1.000  H
  H61      1.0000 0.23290  0.54030  0.76160  Biso   1.000  H
  H62      1.0000 0.20340  0.44310  0.81330  Biso   1.000  H
  H63      1.0000 0.16280  0.59420  0.97020  Biso   1.000  H
  H64      1.0000 0.22110  0.71880  0.93590  Biso   1.000  H
  C49      1.0000 0.94690  0.14510  0.43020  Biso   1.000  C
  C50      1.0000 0.88050  0.19840  0.46550  Biso   1.000  C
  C51      1.0000 0.93430  0.27260  0.50590  Biso   1.000  C
  C52      1.0000 0.86670  0.31650  0.53780  Biso   1.000  C
  C53      1.0000 0.76230  0.17340  0.45790  Biso   1.000  C
  C54      1.0000 0.70140  0.22130  0.49110  Biso   1.000  C
  C55      1.0000 0.57580  0.20180  0.48540  Biso   1.000  C
  C56      1.0000 0.50570  0.13230  0.44700  Biso   1.000  C
  C57      1.0000 0.35240  0.18530  0.47850  Biso   1.000  C
  C58      1.0000 0.39180  0.12280  0.44440  Biso   1.000  C
  C59      1.0000 0.42420  0.25190  0.51550  Biso   1.000  C
  C60      1.0000 0.31020  0.04560  0.40420  Biso   1.000  C
  C61      1.0000 0.34970  0.86700  0.81170  Biso   1.000  C
  C62      1.0000 0.41150  0.97770  0.75440  Biso   1.000  C
  C63      1.0000 0.52350  0.09050  0.75180  Biso   1.000  C
  C64      1.0000 0.57400  0.18970  0.70030  Biso   1.000  C
  C65      1.0000 0.41230  0.07300  0.65550  Biso   1.000  C
  C66      1.0000 0.35590  0.96980  0.70530  Biso   1.000  C
  C67      1.0000 0.69160  0.31500  0.69460  Biso   1.000  C
  C68      1.0000 0.76230  0.34170  0.73820  Biso   1.000  C
  C69      1.0000 0.86690  0.46220  0.72930  Biso   1.000  C
  C70      1.0000 0.89910  0.55430  0.67640  Biso   1.000  C
  C71      1.0000 0.82520  0.52190  0.63490  Biso   1.000  C
  C72      1.0000 0.94600  0.49620  0.77620  Biso   1.000  C
  C73      1.0000 0.92470  0.62290  0.93020  Biso   1.000  C
  C74      1.0000 0.83610  0.65400  0.96550  Biso   1.000  C
  C75      1.0000 0.72150  0.55980  0.00590  Biso   1.000  C
  C76      1.0000 0.64570  0.59550  0.03780  Biso   1.000  C
  C77      1.0000 0.86870  0.77980  0.95790  Biso   1.000  C
  C78      1.0000 0.78760  0.80750  0.99110  Biso   1.000  C
  C79      1.0000 0.81280  0.93880  0.98540  Biso   1.000  C
  C80      1.0000 0.92070  0.04730  0.94700  Biso   1.000  C
  C81      1.0000 0.83620  0.16910  0.97850  Biso   1.000  C
  C82      1.0000 0.93280  0.16380  0.94440  Biso   1.000  C
  C83      1.0000 0.73260  0.06030  0.01550  Biso   1.000  C
  C84      1.0000 0.05020  0.28560  0.90420  Biso   1.000  C
  C85      1.0000 0.82130  0.83860  0.31170  Biso   1.000  C
  C86      1.0000 0.76790  0.83410  0.25440  Biso   1.000  C
  C87      1.0000 0.65770  0.72470  0.25180  Biso   1.000  C
  C88      1.0000 0.61000  0.72570  0.20030  Biso   1.000  C
  C89      1.0000 0.77150  0.93220  0.15550  Biso   1.000  C
  C90      1.0000 0.82490  0.93880  0.20530  Biso   1.000  C
  C91      1.0000 0.49040  0.61380  0.19460  Biso   1.000  C
  C92      1.0000 0.42010  0.49950  0.23820  Biso   1.000  C
  C93      1.0000 0.30850  0.40380  0.22930  Biso   1.000  C
  C94      1.0000 0.26930  0.42450  0.17640  Biso   1.000  C
  C95      1.0000 0.34320  0.53990  0.13490  Biso   1.000  C
  C96      1.0000 0.22760  0.27780  0.27620  Biso   1.000  C
  N9       1.0000 0.75240  0.29130  0.53130  Biso   1.000  N
  N10      1.0000 0.53255  0.25880  0.52025  Biso   1.000  N
  N11      1.0000 0.52087  0.18290  0.65223  Biso   1.000  N
  N12      1.0000 0.72403  0.40440  0.64277  Biso   1.000  N
  N13      1.0000 0.67740  0.71630  0.03130  Biso   1.000  N
  N14      1.0000 0.72095  0.94720  0.02025  Biso   1.000  N
  N15      1.0000 0.66487  0.82690  0.15223  Biso   1.000  N
  N16      1.0000 0.45283  0.63320  0.14277  Biso   1.000  N
  Cl3      1.0000 0.68114  0.53875  0.52581  Biso   1.000  Cl
  Cl4      1.0000 0.43544  0.79305  0.02581  Biso   1.000  Cl
  O21      1.0000 0.04360  0.15014  0.44426  Biso   1.000  O
  O22      1.0000 0.90550  0.09730  0.38680  Biso   1.000  O
  O23      1.0000 0.35360  0.00540  0.36700  Biso   1.000  O
  O24      1.0000 0.20003  0.02915  0.41382  Biso   1.000  O
  O25      1.0000 0.17460  0.96830  0.30130  Biso   1.000  O
  O26      1.0000 0.92036  0.85845  0.43479  Biso   1.000  O
  O27      1.0000 0.26150  0.76500  0.80570  Biso   1.000  O
  O28      1.0000 0.38910  0.88550  0.85880  Biso   1.000  O
  O29      1.0000 0.91910  0.41470  0.82280  Biso   1.000  O
  O30      1.0000 0.03660  0.60760  0.76680  Biso   1.000  O
  O31      1.0000 0.90560  0.51214  0.94426  Biso   1.000  O
  O32      1.0000 0.01590  0.70770  0.88680  Biso   1.000  O
  O33      1.0000 0.12760  0.27940  0.86700  Biso   1.000  O
  O34      1.0000 0.05703  0.38615  0.91382  Biso   1.000  O
  O35      1.0000 0.23040  0.52410  0.80130  Biso   1.000  O
  O36      1.0000 0.20676  0.64485  0.93479  Biso   1.000  O
  O37      1.0000 0.92930  0.93280  0.30570  Biso   1.000  O
  O38      1.0000 0.75570  0.75210  0.35880  Biso   1.000  O
  O39      1.0000 0.26250  0.25810  0.32280  Biso   1.000  O
  O40      1.0000 0.12560  0.19660  0.26680  Biso   1.000  O
