data_image0
_cell_length_a       6.7907
_cell_length_b       22.245
_cell_length_c       7.7387
_cell_angle_alpha    90
_cell_angle_beta     90
_cell_angle_gamma    90

_symmetry_space_group_name_H-M    P 1
_symmetry_int_tables_number       1

loop_
  _symmetry_equiv_pos_as_xyz
  'x, y, z'

loop_
  _atom_site_label
  _atom_site_occupancy
  _atom_site_fract_x
  _atom_site_fract_y
  _atom_site_fract_z
  _atom_site_thermal_displace_type
  _atom_site_B_iso_or_equiv
  _atom_site_type_symbol
  Ni1      1.0000 0.94965  0.78723  0.74155  Biso   1.000  Ni
  Ni2      1.0000 0.05035  0.21277  0.74155  Biso   1.000  Ni
  Ni3      1.0000 0.44965  0.71277  0.25845  Biso   1.000  Ni
  Ni4      1.0000 0.55035  0.28723  0.25845  Biso   1.000  Ni
  H1       1.0000 0.16140  0.69900  0.65660  Biso   1.000  H
  H2       1.0000 0.09620  0.68820  0.83420  Biso   1.000  H
  H3       1.0000 0.83170  0.61530  0.87950  Biso   1.000  H
  H4       1.0000 0.64500  0.62670  0.76640  Biso   1.000  H
  H5       1.0000 0.94370  0.62820  0.60660  Biso   1.000  H
  H6       1.0000 0.52920  0.82940  0.77590  Biso   1.000  H
  H7       1.0000 0.34270  0.91400  0.78230  Biso   1.000  H
  H8       1.0000 0.81070  0.00450  0.61240  Biso   1.000  H
  H9       1.0000 0.97960  0.91650  0.60980  Biso   1.000  H
  H10      1.0000 0.83860  0.30100  0.65660  Biso   1.000  H
  H11      1.0000 0.90380  0.31180  0.83420  Biso   1.000  H
  H12      1.0000 0.16830  0.38470  0.87950  Biso   1.000  H
  H13      1.0000 0.35500  0.37330  0.76640  Biso   1.000  H
  H14      1.0000 0.05630  0.37180  0.60660  Biso   1.000  H
  H15      1.0000 0.47080  0.17060  0.77590  Biso   1.000  H
  H16      1.0000 0.65730  0.08600  0.78230  Biso   1.000  H
  H17      1.0000 0.18930  0.99550  0.61240  Biso   1.000  H
  H18      1.0000 0.02040  0.08350  0.60980  Biso   1.000  H
  H19      1.0000 0.66140  0.80100  0.34340  Biso   1.000  H
  H20      1.0000 0.59620  0.81180  0.16580  Biso   1.000  H
  H21      1.0000 0.33170  0.88470  0.12050  Biso   1.000  H
  H22      1.0000 0.14500  0.87330  0.23360  Biso   1.000  H
  H23      1.0000 0.44370  0.87180  0.39340  Biso   1.000  H
  H24      1.0000 0.02920  0.67060  0.22410  Biso   1.000  H
  H25      1.0000 0.84270  0.58600  0.21770  Biso   1.000  H
  H26      1.0000 0.31070  0.49550  0.38760  Biso   1.000  H
  H27      1.0000 0.47960  0.58350  0.39020  Biso   1.000  H
  H28      1.0000 0.33860  0.19900  0.34340  Biso   1.000  H
  H29      1.0000 0.40380  0.18820  0.16580  Biso   1.000  H
  H30      1.0000 0.66830  0.11530  0.12050  Biso   1.000  H
  H31      1.0000 0.85500  0.12670  0.23360  Biso   1.000  H
  H32      1.0000 0.55630  0.12820  0.39340  Biso   1.000  H
  H33      1.0000 0.97080  0.32940  0.22410  Biso   1.000  H
  H34      1.0000 0.15730  0.41400  0.21770  Biso   1.000  H
  H35      1.0000 0.68930  0.50450  0.38760  Biso   1.000  H
  H36      1.0000 0.52040  0.41650  0.39020  Biso   1.000  H
  C1       1.0000 0.69560  0.69511  0.93890  Biso   1.000  C
  C2       1.0000 0.76190  0.64566  0.81340  Biso   1.000  C
  C3       1.0000 0.89180  0.66420  0.66360  Biso   1.000  C
  C4       1.0000 0.77080  0.70095  0.53330  Biso   1.000  C
  C5       1.0000 0.59100  0.86619  0.75790  Biso   1.000  C
  C6       1.0000 0.47680  0.91691  0.75920  Biso   1.000  C
  C7       1.0000 0.55890  0.97154  0.72670  Biso   1.000  C
  C8       1.0000 0.75390  0.96990  0.65800  Biso   1.000  C
  C9       1.0000 0.85520  0.91760  0.66000  Biso   1.000  C
  C10      1.0000 0.30440  0.30489  0.93890  Biso   1.000  C
  C11      1.0000 0.23810  0.35434  0.81340  Biso   1.000  C
  C12      1.0000 0.10820  0.33580  0.66360  Biso   1.000  C
  C13      1.0000 0.22920  0.29905  0.53330  Biso   1.000  C
  C14      1.0000 0.40900  0.13381  0.75790  Biso   1.000  C
  C15      1.0000 0.52320  0.08309  0.75920  Biso   1.000  C
  C16      1.0000 0.44110  0.02846  0.72670  Biso   1.000  C
  C17      1.0000 0.24610  0.03010  0.65800  Biso   1.000  C
  C18      1.0000 0.14480  0.08240  0.66000  Biso   1.000  C
  C19      1.0000 0.19560  0.80489  0.06110  Biso   1.000  C
  C20      1.0000 0.26190  0.85434  0.18660  Biso   1.000  C
  C21      1.0000 0.39180  0.83580  0.33640  Biso   1.000  C
  C22      1.0000 0.27080  0.79905  0.46670  Biso   1.000  C
  C23      1.0000 0.09100  0.63381  0.24210  Biso   1.000  C
  C24      1.0000 0.97680  0.58309  0.24080  Biso   1.000  C
  C25      1.0000 0.05890  0.52846  0.27330  Biso   1.000  C
  C26      1.0000 0.25390  0.53010  0.34200  Biso   1.000  C
  C27      1.0000 0.35520  0.58240  0.34000  Biso   1.000  C
  C28      1.0000 0.80440  0.19511  0.06110  Biso   1.000  C
  C29      1.0000 0.73810  0.14566  0.18660  Biso   1.000  C
  C30      1.0000 0.60820  0.16420  0.33640  Biso   1.000  C
  C31      1.0000 0.72920  0.20095  0.46670  Biso   1.000  C
  C32      1.0000 0.90900  0.36619  0.24210  Biso   1.000  C
  C33      1.0000 0.02320  0.41691  0.24080  Biso   1.000  C
  C34      1.0000 0.94110  0.47154  0.27330  Biso   1.000  C
  C35      1.0000 0.74610  0.46990  0.34200  Biso   1.000  C
  C36      1.0000 0.64480  0.41760  0.34000  Biso   1.000  C
  N1       1.0000 0.05800  0.70098  0.72900  Biso   1.000  N
  N2       1.0000 0.78190  0.86618  0.73300  Biso   1.000  N
  N3       1.0000 0.94200  0.29902  0.72900  Biso   1.000  N
  N4       1.0000 0.21810  0.13382  0.73300  Biso   1.000  N
  N5       1.0000 0.55800  0.79902  0.27100  Biso   1.000  N
  N6       1.0000 0.28190  0.63382  0.26700  Biso   1.000  N
  N7       1.0000 0.44200  0.20098  0.27100  Biso   1.000  N
  N8       1.0000 0.71810  0.36618  0.26700  Biso   1.000  N
  O1       1.0000 0.79490  0.75689  0.53620  Biso   1.000  O
  O2       1.0000 0.65870  0.67301  0.43400  Biso   1.000  O
  O3       1.0000 0.73580  0.74939  0.91270  Biso   1.000  O
  O4       1.0000 0.59960  0.67468  0.06450  Biso   1.000  O
  O5       1.0000 0.20510  0.24311  0.53620  Biso   1.000  O
  O6       1.0000 0.34130  0.32699  0.43400  Biso   1.000  O
  O7       1.0000 0.26420  0.25061  0.91270  Biso   1.000  O
  O8       1.0000 0.40040  0.32532  0.06450  Biso   1.000  O
  O9       1.0000 0.29490  0.74311  0.46380  Biso   1.000  O
  O10      1.0000 0.15870  0.82699  0.56600  Biso   1.000  O
  O11      1.0000 0.23580  0.75061  0.08730  Biso   1.000  O
  O12      1.0000 0.09960  0.82532  0.93550  Biso   1.000  O
  O13      1.0000 0.70510  0.25689  0.46380  Biso   1.000  O
  O14      1.0000 0.84130  0.17301  0.56600  Biso   1.000  O
  O15      1.0000 0.76420  0.24939  0.08730  Biso   1.000  O
  O16      1.0000 0.90040  0.17468  0.93550  Biso   1.000  O
