data_image0
_cell_length_a       9.461
_cell_length_b       9.4028
_cell_length_c       20.963
_cell_angle_alpha    90
_cell_angle_beta     100.186
_cell_angle_gamma    90

_symmetry_space_group_name_H-M    "P 1"
_symmetry_int_tables_number       1

loop_
  _symmetry_equiv_pos_as_xyz
  'x, y, z'

loop_
  _atom_site_label
  _atom_site_occupancy
  _atom_site_fract_x
  _atom_site_fract_y
  _atom_site_fract_z
  _atom_site_thermal_displace_type
  _atom_site_B_iso_or_equiv
  _atom_site_type_symbol
  O1       1.0000 0.24670  0.15010  0.41042  Biso   1.000  O
  In1      1.0000 0.37242  0.33423  0.40330  Biso   1.000  In
  In2      1.0000 0.12489  0.16450  0.59038  Biso   1.000  In
  P1       1.0000 0.61911  0.58904  0.43992  Biso   1.000  P
  P2       1.0000 0.66610  0.12552  0.44278  Biso   1.000  P
  P3       1.0000 0.20846  0.26340  0.25262  Biso   1.000  P
  P4       1.0000 0.09600  0.11886  0.42294  Biso   1.000  P
  P5       1.0000 0.03491  0.51114  0.39719  Biso   1.000  P
  O2       1.0000 0.33810  0.32410  0.29886  Biso   1.000  O
  O3       1.0000 0.06620  0.17900  0.48677  Biso   1.000  O
  O4       1.0000 0.23340  0.10890  0.23631  Biso   1.000  O
  O5       1.0000 0.49460  0.52390  0.39095  Biso   1.000  O
  O6       1.0000 0.16940  0.35640  0.19323  Biso   1.000  O
  O7       1.0000 0.02710  0.67100  0.40296  Biso   1.000  O
  O8       1.0000 0.06680  0.95970  0.41465  Biso   1.000  O
  O9       1.0000 0.70330  0.69090  0.40464  Biso   1.000  O
  O10      1.0000 0.56160  0.65890  0.49552  Biso   1.000  O
  O11      1.0000 0.18680  0.46490  0.39765  Biso   1.000  O
  O12      1.0000 0.55470  0.20460  0.39651  Biso   1.000  O
  O13      1.0000 0.74410  0.01630  0.41190  Biso   1.000  O
  H1       1.0000 0.09000  0.26000  0.28000  Biso   1.000  H
  H2       1.0000 0.00600  0.19200  0.38000  Biso   1.000  H
  H3       1.0000 0.71300  0.48100  0.46200  Biso   1.000  H
  H4       1.0000 0.98700  0.43900  0.44700  Biso   1.000  H
  O14      1.0000 0.93670  0.45660  0.33600  Biso   1.000  O
  H5       1.0000 0.85400  0.48220  0.33630  Biso   1.000  H
  O15      1.0000 0.76990  0.23360  0.47950  Biso   1.000  O
  H6       1.0000 0.85230  0.21280  0.47590  Biso   1.000  H
  H7       1.0000 0.59200  0.04700  0.48500  Biso   1.000  H
  O16      1.0000 0.75330  0.65010  0.08958  Biso   1.000  O
  In3      1.0000 0.62758  0.83423  0.09670  Biso   1.000  In
  In4      1.0000 0.87511  0.66450  0.90962  Biso   1.000  In
  P6       1.0000 0.38089  0.08904  0.06008  Biso   1.000  P
  P7       1.0000 0.33390  0.62552  0.05722  Biso   1.000  P
  P8       1.0000 0.79154  0.76340  0.24738  Biso   1.000  P
  P9       1.0000 0.90400  0.61886  0.07706  Biso   1.000  P
  P10      1.0000 0.96509  0.01114  0.10281  Biso   1.000  P
  O17      1.0000 0.66190  0.82410  0.20114  Biso   1.000  O
  O18      1.0000 0.93380  0.67900  0.01323  Biso   1.000  O
  O19      1.0000 0.76660  0.60890  0.26369  Biso   1.000  O
  O20      1.0000 0.50540  0.02390  0.10905  Biso   1.000  O
  O21      1.0000 0.83060  0.85640  0.30677  Biso   1.000  O
  O22      1.0000 0.97290  0.17100  0.09704  Biso   1.000  O
  O23      1.0000 0.93320  0.45970  0.08535  Biso   1.000  O
  O24      1.0000 0.29670  0.19090  0.09536  Biso   1.000  O
  O25      1.0000 0.43840  0.15890  0.00448  Biso   1.000  O
  O26      1.0000 0.81320  0.96490  0.10235  Biso   1.000  O
  O27      1.0000 0.44530  0.70460  0.10349  Biso   1.000  O
  O28      1.0000 0.25590  0.51630  0.08810  Biso   1.000  O
  H8       1.0000 0.91000  0.76000  0.22000  Biso   1.000  H
  H9       1.0000 0.99400  0.69200  0.12000  Biso   1.000  H
  H10      1.0000 0.28700  0.98100  0.03800  Biso   1.000  H
  H11      1.0000 0.01300  0.93900  0.05300  Biso   1.000  H
  O29      1.0000 0.06330  0.95660  0.16400  Biso   1.000  O
  H12      1.0000 0.14600  0.98220  0.16370  Biso   1.000  H
  O30      1.0000 0.23010  0.73360  0.02050  Biso   1.000  O
  H13      1.0000 0.14770  0.71280  0.02410  Biso   1.000  H
  H14      1.0000 0.40800  0.54700  0.01500  Biso   1.000  H
  O31      1.0000 0.75330  0.84990  0.58958  Biso   1.000  O
  In5      1.0000 0.62758  0.66577  0.59670  Biso   1.000  In
  In6      1.0000 0.87511  0.83550  0.40962  Biso   1.000  In
  P11      1.0000 0.38089  0.41096  0.56008  Biso   1.000  P
  P12      1.0000 0.33390  0.87448  0.55722  Biso   1.000  P
  P13      1.0000 0.79154  0.73660  0.74738  Biso   1.000  P
  P14      1.0000 0.90400  0.88114  0.57706  Biso   1.000  P
  P15      1.0000 0.96509  0.48886  0.60281  Biso   1.000  P
  O32      1.0000 0.66190  0.67590  0.70114  Biso   1.000  O
  O33      1.0000 0.93380  0.82100  0.51323  Biso   1.000  O
  O34      1.0000 0.76660  0.89110  0.76369  Biso   1.000  O
  O35      1.0000 0.50540  0.47610  0.60905  Biso   1.000  O
  O36      1.0000 0.83060  0.64360  0.80677  Biso   1.000  O
  O37      1.0000 0.97290  0.32900  0.59704  Biso   1.000  O
  O38      1.0000 0.93320  0.04030  0.58535  Biso   1.000  O
  O39      1.0000 0.29670  0.30910  0.59536  Biso   1.000  O
  O40      1.0000 0.43840  0.34110  0.50448  Biso   1.000  O
  O41      1.0000 0.81320  0.53510  0.60235  Biso   1.000  O
  O42      1.0000 0.44530  0.79540  0.60349  Biso   1.000  O
  O43      1.0000 0.25590  0.98370  0.58810  Biso   1.000  O
  H15      1.0000 0.91000  0.74000  0.72000  Biso   1.000  H
  H16      1.0000 0.99400  0.80800  0.62000  Biso   1.000  H
  H17      1.0000 0.28700  0.51900  0.53800  Biso   1.000  H
  H18      1.0000 0.01300  0.56100  0.55300  Biso   1.000  H
  O44      1.0000 0.06330  0.54340  0.66400  Biso   1.000  O
  H19      1.0000 0.14600  0.51780  0.66370  Biso   1.000  H
  O45      1.0000 0.23010  0.76640  0.52050  Biso   1.000  O
  H20      1.0000 0.14770  0.78720  0.52410  Biso   1.000  H
  H21      1.0000 0.40800  0.95300  0.51500  Biso   1.000  H
  O46      1.0000 0.24670  0.34990  0.91042  Biso   1.000  O
  In7      1.0000 0.37242  0.16577  0.90330  Biso   1.000  In
  In8      1.0000 0.12489  0.33550  0.09038  Biso   1.000  In
  P16      1.0000 0.61911  0.91096  0.93992  Biso   1.000  P
  P17      1.0000 0.66610  0.37448  0.94278  Biso   1.000  P
  P18      1.0000 0.20846  0.23660  0.75262  Biso   1.000  P
  P19      1.0000 0.09600  0.38114  0.92294  Biso   1.000  P
  P20      1.0000 0.03491  0.98886  0.89719  Biso   1.000  P
  O47      1.0000 0.33810  0.17590  0.79886  Biso   1.000  O
  O48      1.0000 0.06620  0.32100  0.98677  Biso   1.000  O
  O49      1.0000 0.23340  0.39110  0.73631  Biso   1.000  O
  O50      1.0000 0.49460  0.97610  0.89095  Biso   1.000  O
  O51      1.0000 0.16940  0.14360  0.69323  Biso   1.000  O
  O52      1.0000 0.02710  0.82900  0.90296  Biso   1.000  O
  O53      1.0000 0.06680  0.54030  0.91465  Biso   1.000  O
  O54      1.0000 0.70330  0.80910  0.90464  Biso   1.000  O
  O55      1.0000 0.56160  0.84110  0.99552  Biso   1.000  O
  O56      1.0000 0.18680  0.03510  0.89765  Biso   1.000  O
  O57      1.0000 0.55470  0.29540  0.89651  Biso   1.000  O
  O58      1.0000 0.74410  0.48370  0.91190  Biso   1.000  O
  H22      1.0000 0.09000  0.24000  0.78000  Biso   1.000  H
  H23      1.0000 0.00600  0.30800  0.88000  Biso   1.000  H
  H24      1.0000 0.71300  0.01900  0.96200  Biso   1.000  H
  H25      1.0000 0.98700  0.06100  0.94700  Biso   1.000  H
  O59      1.0000 0.93670  0.04340  0.83600  Biso   1.000  O
  H26      1.0000 0.85400  0.01780  0.83630  Biso   1.000  H
  O60      1.0000 0.76990  0.26640  0.97950  Biso   1.000  O
  H27      1.0000 0.85230  0.28720  0.97590  Biso   1.000  H
  H28      1.0000 0.59200  0.45300  0.98500  Biso   1.000  H
