data_image0
_cell_length_a       15.2135
_cell_length_b       15.2135
_cell_length_c       15.2135
_cell_angle_alpha    60
_cell_angle_beta     60
_cell_angle_gamma    60

_symmetry_space_group_name_H-M    P 1
_symmetry_int_tables_number       1

loop_
  _symmetry_equiv_pos_as_xyz
  'x, y, z'

loop_
  _atom_site_label
  _atom_site_occupancy
  _atom_site_fract_x
  _atom_site_fract_y
  _atom_site_fract_z
  _atom_site_thermal_displace_type
  _atom_site_B_iso_or_equiv
  _atom_site_type_symbol
  U1       1.0000 0.87399  0.87399  0.12601  Biso   1.000  U
  U2       1.0000 0.12601  0.12601  0.87399  Biso   1.000  U
  U3       1.0000 0.87399  0.12601  0.12601  Biso   1.000  U
  U4       1.0000 0.12601  0.87399  0.87399  Biso   1.000  U
  U5       1.0000 0.87399  0.12601  0.87399  Biso   1.000  U
  U6       1.0000 0.12601  0.87399  0.12601  Biso   1.000  U
  H1       1.0000 0.86432  0.57830  0.42170  Biso   1.000  H
  H2       1.0000 0.57830  0.86432  0.13568  Biso   1.000  H
  H3       1.0000 0.42170  0.13568  0.86432  Biso   1.000  H
  H4       1.0000 0.13568  0.42170  0.57830  Biso   1.000  H
  H5       1.0000 0.86432  0.42170  0.13568  Biso   1.000  H
  H6       1.0000 0.57830  0.13568  0.42170  Biso   1.000  H
  H7       1.0000 0.42170  0.86432  0.57830  Biso   1.000  H
  H8       1.0000 0.13568  0.57830  0.86432  Biso   1.000  H
  H9       1.0000 0.86432  0.13568  0.57830  Biso   1.000  H
  H10      1.0000 0.57830  0.42170  0.86432  Biso   1.000  H
  H11      1.0000 0.42170  0.57830  0.13568  Biso   1.000  H
  H12      1.0000 0.13568  0.86432  0.42170  Biso   1.000  H
  H13      1.0000 0.42170  0.13568  0.57830  Biso   1.000  H
  H14      1.0000 0.13568  0.42170  0.86432  Biso   1.000  H
  H15      1.0000 0.86432  0.57830  0.13568  Biso   1.000  H
  H16      1.0000 0.57830  0.86432  0.42170  Biso   1.000  H
  H17      1.0000 0.57830  0.13568  0.86432  Biso   1.000  H
  H18      1.0000 0.86432  0.42170  0.57830  Biso   1.000  H
  H19      1.0000 0.13568  0.57830  0.42170  Biso   1.000  H
  H20      1.0000 0.42170  0.86432  0.13568  Biso   1.000  H
  H21      1.0000 0.86432  0.13568  0.42170  Biso   1.000  H
  H22      1.0000 0.57830  0.42170  0.13568  Biso   1.000  H
  H23      1.0000 0.42170  0.57830  0.86432  Biso   1.000  H
  H24      1.0000 0.13568  0.86432  0.57830  Biso   1.000  H
  C1       1.0000 0.91870  0.54630  0.45370  Biso   1.000  C
  C2       1.0000 0.54630  0.91870  0.08130  Biso   1.000  C
  C3       1.0000 0.45370  0.08130  0.91870  Biso   1.000  C
  C4       1.0000 0.08130  0.45370  0.54630  Biso   1.000  C
  C5       1.0000 0.91870  0.45370  0.08130  Biso   1.000  C
  C6       1.0000 0.54630  0.08130  0.45370  Biso   1.000  C
  C7       1.0000 0.45370  0.91870  0.54630  Biso   1.000  C
  C8       1.0000 0.08130  0.54630  0.91870  Biso   1.000  C
  C9       1.0000 0.91870  0.08130  0.54630  Biso   1.000  C
  C10      1.0000 0.54630  0.45370  0.91870  Biso   1.000  C
  C11      1.0000 0.45370  0.54630  0.08130  Biso   1.000  C
  C12      1.0000 0.08130  0.91870  0.45370  Biso   1.000  C
  C13      1.0000 0.45370  0.08130  0.54630  Biso   1.000  C
  C14      1.0000 0.08130  0.45370  0.91870  Biso   1.000  C
  C15      1.0000 0.91870  0.54630  0.08130  Biso   1.000  C
  C16      1.0000 0.54630  0.91870  0.45370  Biso   1.000  C
  C17      1.0000 0.54630  0.08130  0.91870  Biso   1.000  C
  C18      1.0000 0.91870  0.45370  0.54630  Biso   1.000  C
  C19      1.0000 0.08130  0.54630  0.45370  Biso   1.000  C
  C20      1.0000 0.45370  0.91870  0.08130  Biso   1.000  C
  C21      1.0000 0.91870  0.08130  0.45370  Biso   1.000  C
  C22      1.0000 0.54630  0.45370  0.08130  Biso   1.000  C
  C23      1.0000 0.45370  0.54630  0.91870  Biso   1.000  C
  C24      1.0000 0.08130  0.91870  0.54630  Biso   1.000  C
  C25      1.0000 0.00000  0.69020  0.30980  Biso   1.000  C
  C26      1.0000 1.00000  0.59160  0.40840  Biso   1.000  C
  C27      1.0000 0.69020  0.00000  0.00000  Biso   1.000  C
  C28      1.0000 0.59160  0.00000  0.00000  Biso   1.000  C
  C29      1.0000 0.30980  1.00000  0.00000  Biso   1.000  C
  C30      1.0000 0.40840  0.00000  0.00000  Biso   1.000  C
  C31      1.0000 0.00000  0.30980  0.69020  Biso   1.000  C
  C32      1.0000 0.00000  0.40840  0.59160  Biso   1.000  C
  C33      1.0000 0.00000  0.30980  0.00000  Biso   1.000  C
  C34      1.0000 0.00000  0.40840  0.00000  Biso   1.000  C
  C35      1.0000 0.69020  0.00000  0.30980  Biso   1.000  C
  C36      1.0000 0.59160  0.00000  0.40840  Biso   1.000  C
  C37      1.0000 0.30980  0.00000  0.69020  Biso   1.000  C
  C38      1.0000 0.40840  1.00000  0.59160  Biso   1.000  C
  C39      1.0000 1.00000  0.69020  0.00000  Biso   1.000  C
  C40      1.0000 0.00000  0.59160  0.00000  Biso   1.000  C
  C41      1.0000 0.00000  0.00000  0.69020  Biso   1.000  C
  C42      1.0000 0.00000  0.00000  0.59160  Biso   1.000  C
  C43      1.0000 0.69020  0.30980  0.00000  Biso   1.000  C
  C44      1.0000 0.59160  0.40840  0.00000  Biso   1.000  C
  C45      1.0000 0.30980  0.69020  0.00000  Biso   1.000  C
  C46      1.0000 0.40840  0.59160  0.00000  Biso   1.000  C
  C47      1.0000 0.00000  1.00000  0.30980  Biso   1.000  C
  C48      1.0000 0.00000  0.00000  0.40840  Biso   1.000  C
  O1       1.0000 0.92530  0.72710  0.27290  Biso   1.000  O
  O2       1.0000 0.72710  0.92530  0.07470  Biso   1.000  O
  O3       1.0000 0.27290  0.07470  0.92530  Biso   1.000  O
  O4       1.0000 0.07470  0.27290  0.72710  Biso   1.000  O
  O5       1.0000 0.92530  0.27290  0.07470  Biso   1.000  O
  O6       1.0000 0.72710  0.07470  0.27290  Biso   1.000  O
  O7       1.0000 0.27290  0.92530  0.72710  Biso   1.000  O
  O8       1.0000 0.07470  0.72710  0.92530  Biso   1.000  O
  O9       1.0000 0.92530  0.07470  0.72710  Biso   1.000  O
  O10      1.0000 0.72710  0.27290  0.92530  Biso   1.000  O
  O11      1.0000 0.27290  0.72710  0.07470  Biso   1.000  O
  O12      1.0000 0.07470  0.92530  0.27290  Biso   1.000  O
  O13      1.0000 0.27290  0.07470  0.72710  Biso   1.000  O
  O14      1.0000 0.07470  0.27290  0.92530  Biso   1.000  O
  O15      1.0000 0.92530  0.72710  0.07470  Biso   1.000  O
  O16      1.0000 0.72710  0.92530  0.27290  Biso   1.000  O
  O17      1.0000 0.72710  0.07470  0.92530  Biso   1.000  O
  O18      1.0000 0.92530  0.27290  0.72710  Biso   1.000  O
  O19      1.0000 0.07470  0.72710  0.27290  Biso   1.000  O
  O20      1.0000 0.27290  0.92530  0.07470  Biso   1.000  O
  O21      1.0000 0.92530  0.07470  0.27290  Biso   1.000  O
  O22      1.0000 0.72710  0.27290  0.07470  Biso   1.000  O
  O23      1.0000 0.27290  0.72710  0.92530  Biso   1.000  O
  O24      1.0000 0.07470  0.92530  0.72710  Biso   1.000  O
  O25      1.0000 0.81970  0.06010  0.06010  Biso   1.000  O
  O26      1.0000 0.06010  0.81970  0.06010  Biso   1.000  O
  O27      1.0000 0.06010  0.06010  0.81970  Biso   1.000  O
  O28      1.0000 0.06010  0.06010  0.06010  Biso   1.000  O
  O29      1.0000 0.93990  0.18030  0.93990  Biso   1.000  O
  O30      1.0000 0.18030  0.93990  0.93990  Biso   1.000  O
  O31      1.0000 0.93990  0.93990  0.18030  Biso   1.000  O
  O32      1.0000 0.93990  0.93990  0.93990  Biso   1.000  O
  O33      1.0000 0.75050  0.75050  0.24950  Biso   1.000  O
  O34      1.0000 0.24950  0.24950  0.75050  Biso   1.000  O
  O35      1.0000 0.75050  0.24950  0.24950  Biso   1.000  O
  O36      1.0000 0.24950  0.75050  0.75050  Biso   1.000  O
  O37      1.0000 0.75050  0.24950  0.75050  Biso   1.000  O
  O38      1.0000 0.24950  0.75050  0.24950  Biso   1.000  O
