data_image0
_cell_length_a       22.773
_cell_length_b       22.773
_cell_length_c       12.668
_cell_angle_alpha    90
_cell_angle_beta     90
_cell_angle_gamma    90

_symmetry_space_group_name_H-M    "P 1"
_symmetry_int_tables_number       1

loop_
  _symmetry_equiv_pos_as_xyz
  'x, y, z'

loop_
  _atom_site_label
  _atom_site_occupancy
  _atom_site_fract_x
  _atom_site_fract_y
  _atom_site_fract_z
  _atom_site_thermal_displace_type
  _atom_site_B_iso_or_equiv
  _atom_site_type_symbol
  Cu1      1.0000 0.71090  0.58873  0.41497  Biso   1.000  Cu
  Cu2      1.0000 0.54563  0.63252  0.25894  Biso   1.000  Cu
  Cu3      1.0000 0.55784  0.18421  0.16905  Biso   1.000  Cu
  Cu4      1.0000 0.62092  0.37015  0.01178  Biso   1.000  Cu
  N1       1.0000 0.71406  0.58872  0.57250  Biso   1.000  N
  N2       1.0000 0.62873  0.61195  0.45160  Biso   1.000  N
  N3       1.0000 0.57898  0.62803  0.40230  Biso   1.000  N
  N4       1.0000 0.56147  0.62989  0.57800  Biso   1.000  N
  N5       1.0000 0.47006  0.65777  0.34570  Biso   1.000  N
  N6       1.0000 0.38250  0.68220  0.49370  Biso   1.000  N
  N7       1.0000 0.79542  0.57176  0.44140  Biso   1.000  N
  N8       1.0000 0.86999  0.56782  0.55750  Biso   1.000  N
  N9       1.0000 0.84509  0.56634  0.38480  Biso   1.000  N
  N10      1.0000 0.95290  0.53878  0.31760  Biso   1.000  N
  N11      1.0000 0.05235  0.56107  0.43940  Biso   1.000  N
  N12      1.0000 0.72610  0.66112  0.21720  Biso   1.000  N
  N13      1.0000 0.71531  0.60916  0.26360  Biso   1.000  N
  N14      1.0000 0.71578  0.59371  0.08870  Biso   1.000  N
  H1       1.0000 0.71370  0.57740  0.02750  Biso   1.000  H
  N15      1.0000 0.69368  0.49554  0.31380  Biso   1.000  N
  N16      1.0000 0.67912  0.41022  0.15750  Biso   1.000  N
  C1       1.0000 0.57310  0.25830  0.10450  Biso   1.000  C
  N17      1.0000 0.52110  0.07240  0.05350  Biso   1.000  N
  N18      1.0000 0.65870  0.40690  0.89330  Biso   1.000  N
  C2       1.0000 0.76454  0.57620  0.62080  Biso   1.000  C
  C3       1.0000 0.76710  0.56820  0.72890  Biso   1.000  C
  H2       1.0000 0.80230  0.55940  0.76250  Biso   1.000  H
  C4       1.0000 0.71530  0.57380  0.78530  Biso   1.000  C
  H3       1.0000 0.71550  0.56660  0.85750  Biso   1.000  H
  C5       1.0000 0.66260  0.59000  0.73620  Biso   1.000  C
  H4       1.0000 0.62820  0.59550  0.77450  Biso   1.000  H
  C6       1.0000 0.66450  0.59750  0.62660  Biso   1.000  C
  C7       1.0000 0.61629  0.61320  0.55620  Biso   1.000  C
  C8       1.0000 0.53997  0.63831  0.47950  Biso   1.000  C
  C9       1.0000 0.48056  0.65611  0.45070  Biso   1.000  C
  C10      1.0000 0.43640  0.66910  0.52310  Biso   1.000  C
  H5       1.0000 0.44530  0.66840  0.59480  Biso   1.000  H
  C11      1.0000 0.37190  0.68190  0.39070  Biso   1.000  C
  H6       1.0000 0.33390  0.68920  0.36730  Biso   1.000  H
  C12      1.0000 0.41520  0.67110  0.31710  Biso   1.000  C
  H7       1.0000 0.40590  0.67310  0.24570  Biso   1.000  H
  C13      1.0000 0.81212  0.57200  0.54340  Biso   1.000  C
  C14      1.0000 0.88885  0.56406  0.45580  Biso   1.000  C
  C15      1.0000 0.94862  0.55727  0.41850  Biso   1.000  C
  C16      1.0000 0.00750  0.53020  0.28100  Biso   1.000  C
  H8       1.0000 0.01240  0.51700  0.21200  Biso   1.000  H
  C17      1.0000 0.05630  0.54010  0.34140  Biso   1.000  C
  H9       1.0000 0.09320  0.53190  0.31350  Biso   1.000  H
  C18      1.0000 0.99864  0.56920  0.47790  Biso   1.000  C
  H10      1.0000 0.99440  0.58330  0.54640  Biso   1.000  H
  C19      1.0000 0.73790  0.69980  0.04430  Biso   1.000  C
  C20      1.0000 0.73830  0.69830  0.93690  Biso   1.000  C
  H11      1.0000 0.73000  0.66130  0.90030  Biso   1.000  H
  C21      1.0000 0.77470  0.74450  0.88340  Biso   1.000  C
  H12      1.0000 0.79950  0.73890  0.82100  Biso   1.000  H
  C22      1.0000 0.72610  0.65003  0.11390  Biso   1.000  C
  C23      1.0000 0.70948  0.56965  0.18530  Biso   1.000  C
  C24      1.0000 0.69803  0.50885  0.21070  Biso   1.000  C
  C25      1.0000 0.69201  0.46590  0.13450  Biso   1.000  C
  H13      1.0000 0.69720  0.47620  0.06400  Biso   1.000  H
  C26      1.0000 0.67500  0.39780  0.25960  Biso   1.000  C
  H14      1.0000 0.66620  0.35950  0.27960  Biso   1.000  H
  C27      1.0000 0.68340  0.43930  0.33670  Biso   1.000  C
  H15      1.0000 0.68180  0.42790  0.40710  Biso   1.000  H
  N19      1.0000 0.58900  0.29990  0.06900  Biso   1.000  N
  C28      1.0000 0.53310  0.11590  0.09310  Biso   1.000  C
  C29      1.0000 0.67300  0.42560  0.81780  Biso   1.000  C
  Cu5      1.0000 0.78910  0.91127  0.41497  Biso   1.000  Cu
  Cu6      1.0000 0.95437  0.86748  0.25894  Biso   1.000  Cu
  Cu7      1.0000 0.94216  0.31579  0.16905  Biso   1.000  Cu
  Cu8      1.0000 0.87908  0.12985  0.01178  Biso   1.000  Cu
  N20      1.0000 0.78594  0.91128  0.57250  Biso   1.000  N
  N21      1.0000 0.87127  0.88805  0.45160  Biso   1.000  N
  N22      1.0000 0.92102  0.87197  0.40230  Biso   1.000  N
  N23      1.0000 0.93853  0.87011  0.57800  Biso   1.000  N
  N24      1.0000 0.02994  0.84223  0.34570  Biso   1.000  N
  N25      1.0000 0.11750  0.81780  0.49370  Biso   1.000  N
  N26      1.0000 0.70458  0.92824  0.44140  Biso   1.000  N
  N27      1.0000 0.63001  0.93218  0.55750  Biso   1.000  N
  N28      1.0000 0.65491  0.93366  0.38480  Biso   1.000  N
  N29      1.0000 0.54710  0.96122  0.31760  Biso   1.000  N
  N30      1.0000 0.44765  0.93893  0.43940  Biso   1.000  N
  N31      1.0000 0.77390  0.83888  0.21720  Biso   1.000  N
  N32      1.0000 0.78469  0.89084  0.26360  Biso   1.000  N
  N33      1.0000 0.78422  0.90629  0.08870  Biso   1.000  N
  H16      1.0000 0.78630  0.92260  0.02750  Biso   1.000  H
  N34      1.0000 0.80632  0.00446  0.31380  Biso   1.000  N
  N35      1.0000 0.82088  0.08978  0.15750  Biso   1.000  N
  C30      1.0000 0.92690  0.24170  0.10450  Biso   1.000  C
  N36      1.0000 0.97890  0.42760  0.05350  Biso   1.000  N
  N37      1.0000 0.84130  0.09310  0.89330  Biso   1.000  N
  C31      1.0000 0.73546  0.92380  0.62080  Biso   1.000  C
  C32      1.0000 0.73290  0.93180  0.72890  Biso   1.000  C
  H17      1.0000 0.69770  0.94060  0.76250  Biso   1.000  H
  C33      1.0000 0.78470  0.92620  0.78530  Biso   1.000  C
  H18      1.0000 0.78450  0.93340  0.85750  Biso   1.000  H
  C34      1.0000 0.83740  0.91000  0.73620  Biso   1.000  C
  H19      1.0000 0.87180  0.90450  0.77450  Biso   1.000  H
  C35      1.0000 0.83550  0.90250  0.62660  Biso   1.000  C
  C36      1.0000 0.88371  0.88680  0.55620  Biso   1.000  C
  C37      1.0000 0.96003  0.86169  0.47950  Biso   1.000  C
  C38      1.0000 0.01944  0.84389  0.45070  Biso   1.000  C
  C39      1.0000 0.06360  0.83090  0.52310  Biso   1.000  C
  H20      1.0000 0.05470  0.83160  0.59480  Biso   1.000  H
  C40      1.0000 0.12810  0.81810  0.39070  Biso   1.000  C
  H21      1.0000 0.16610  0.81080  0.36730  Biso   1.000  H
  C41      1.0000 0.08480  0.82890  0.31710  Biso   1.000  C
  H22      1.0000 0.09410  0.82690  0.24570  Biso   1.000  H
  C42      1.0000 0.68788  0.92800  0.54340  Biso   1.000  C
  C43      1.0000 0.61115  0.93594  0.45580  Biso   1.000  C
  C44      1.0000 0.55138  0.94273  0.41850  Biso   1.000  C
  C45      1.0000 0.49250  0.96980  0.28100  Biso   1.000  C
  H23      1.0000 0.48760  0.98300  0.21200  Biso   1.000  H
  C46      1.0000 0.44370  0.95990  0.34140  Biso   1.000  C
  H24      1.0000 0.40680  0.96810  0.31350  Biso   1.000  H
  C47      1.0000 0.50136  0.93080  0.47790  Biso   1.000  C
  H25      1.0000 0.50560  0.91670  0.54640  Biso   1.000  H
  C48      1.0000 0.76210  0.80020  0.04430  Biso   1.000  C
  C49      1.0000 0.76170  0.80170  0.93690  Biso   1.000  C
  H26      1.0000 0.77000  0.83870  0.90030  Biso   1.000  H
  C50      1.0000 0.72530  0.75550  0.88340  Biso   1.000  C
  H27      1.0000 0.70050  0.76110  0.82100  Biso   1.000  H
  C51      1.0000 0.77390  0.84997  0.11390  Biso   1.000  C
  C52      1.0000 0.79052  0.93035  0.18530  Biso   1.000  C
  C53      1.0000 0.80197  0.99115  0.21070  Biso   1.000  C
  C54      1.0000 0.80799  0.03410  0.13450  Biso   1.000  C
  H28      1.0000 0.80280  0.02380  0.06400  Biso   1.000  H
  C55      1.0000 0.82500  0.10220  0.25960  Biso   1.000  C
  H29      1.0000 0.83380  0.14050  0.27960  Biso   1.000  H
  C56      1.0000 0.81660  0.06070  0.33670  Biso   1.000  C
  H30      1.0000 0.81820  0.07210  0.40710  Biso   1.000  H
  N38      1.0000 0.91100  0.20010  0.06900  Biso   1.000  N
  C57      1.0000 0.96690  0.38410  0.09310  Biso   1.000  C
  C58      1.0000 0.82700  0.07440  0.81780  Biso   1.000  C
  Cu9      1.0000 0.41127  0.21090  0.91497  Biso   1.000  Cu
  Cu10     1.0000 0.36748  0.04563  0.75894  Biso   1.000  Cu
  Cu11     1.0000 0.81579  0.05784  0.66905  Biso   1.000  Cu
  Cu12     1.0000 0.62985  0.12092  0.51178  Biso   1.000  Cu
  N39      1.0000 0.41128  0.21406  0.07250  Biso   1.000  N
  N40      1.0000 0.38805  0.12873  0.95160  Biso   1.000  N
  N41      1.0000 0.37197  0.07898  0.90230  Biso   1.000  N
  N42      1.0000 0.37011  0.06147  0.07800  Biso   1.000  N
  N43      1.0000 0.34223  0.97006  0.84570  Biso   1.000  N
  N44      1.0000 0.31780  0.88250  0.99370  Biso   1.000  N
  N45      1.0000 0.42824  0.29542  0.94140  Biso   1.000  N
  N46      1.0000 0.43218  0.36999  0.05750  Biso   1.000  N
  N47      1.0000 0.43366  0.34509  0.88480  Biso   1.000  N
  N48      1.0000 0.46122  0.45290  0.81760  Biso   1.000  N
  N49      1.0000 0.43893  0.55235  0.93940  Biso   1.000  N
  N50      1.0000 0.33888  0.22610  0.71720  Biso   1.000  N
  N51      1.0000 0.39084  0.21531  0.76360  Biso   1.000  N
  N52      1.0000 0.40629  0.21578  0.58870  Biso   1.000  N
  H31      1.0000 0.42260  0.21370  0.52750  Biso   1.000  H
  N53      1.0000 0.50446  0.19368  0.81380  Biso   1.000  N
  N54      1.0000 0.58978  0.17912  0.65750  Biso   1.000  N
  C59      1.0000 0.74170  0.07310  0.60450  Biso   1.000  C
  N55      1.0000 0.92760  0.02110  0.55350  Biso   1.000  N
  N56      1.0000 0.59310  0.15870  0.39330  Biso   1.000  N
  C60      1.0000 0.42380  0.26454  0.12080  Biso   1.000  C
  C61      1.0000 0.43180  0.26710  0.22890  Biso   1.000  C
  H32      1.0000 0.44060  0.30230  0.26250  Biso   1.000  H
  C62      1.0000 0.42620  0.21530  0.28530  Biso   1.000  C
  H33      1.0000 0.43340  0.21550  0.35750  Biso   1.000  H
  C63      1.0000 0.41000  0.16260  0.23620  Biso   1.000  C
  H34      1.0000 0.40450  0.12820  0.27450  Biso   1.000  H
  C64      1.0000 0.40250  0.16450  0.12660  Biso   1.000  C
  C65      1.0000 0.38680  0.11629  0.05620  Biso   1.000  C
  C66      1.0000 0.36169  0.03997  0.97950  Biso   1.000  C
  C67      1.0000 0.34389  0.98056  0.95070  Biso   1.000  C
  C68      1.0000 0.33090  0.93640  0.02310  Biso   1.000  C
  H35      1.0000 0.33160  0.94530  0.09480  Biso   1.000  H
  C69      1.0000 0.31810  0.87190  0.89070  Biso   1.000  C
  H36      1.0000 0.31080  0.83390  0.86730  Biso   1.000  H
  C70      1.0000 0.32890  0.91520  0.81710  Biso   1.000  C
  H37      1.0000 0.32690  0.90590  0.74570  Biso   1.000  H
  C71      1.0000 0.42800  0.31212  0.04340  Biso   1.000  C
  C72      1.0000 0.43594  0.38885  0.95580  Biso   1.000  C
  C73      1.0000 0.44273  0.44862  0.91850  Biso   1.000  C
  C74      1.0000 0.46980  0.50750  0.78100  Biso   1.000  C
  H38      1.0000 0.48300  0.51240  0.71200  Biso   1.000  H
  C75      1.0000 0.45990  0.55630  0.84140  Biso   1.000  C
  H39      1.0000 0.46810  0.59320  0.81350  Biso   1.000  H
  C76      1.0000 0.43080  0.49864  0.97790  Biso   1.000  C
  H40      1.0000 0.41670  0.49440  0.04640  Biso   1.000  H
  C77      1.0000 0.30020  0.23790  0.54430  Biso   1.000  C
  C78      1.0000 0.30170  0.23830  0.43690  Biso   1.000  C
  H41      1.0000 0.33870  0.23000  0.40030  Biso   1.000  H
  C79      1.0000 0.25550  0.27470  0.38340  Biso   1.000  C
  H42      1.0000 0.26110  0.29950  0.32100  Biso   1.000  H
  C80      1.0000 0.34997  0.22610  0.61390  Biso   1.000  C
  C81      1.0000 0.43035  0.20948  0.68530  Biso   1.000  C
  C82      1.0000 0.49115  0.19803  0.71070  Biso   1.000  C
  C83      1.0000 0.53410  0.19201  0.63450  Biso   1.000  C
  H43      1.0000 0.52380  0.19720  0.56400  Biso   1.000  H
  C84      1.0000 0.60220  0.17500  0.75960  Biso   1.000  C
  H44      1.0000 0.64050  0.16620  0.77960  Biso   1.000  H
  C85      1.0000 0.56070  0.18340  0.83670  Biso   1.000  C
  H45      1.0000 0.57210  0.18180  0.90710  Biso   1.000  H
  N57      1.0000 0.70010  0.08900  0.56900  Biso   1.000  N
  C86      1.0000 0.88410  0.03310  0.59310  Biso   1.000  C
  C87      1.0000 0.57440  0.17300  0.31780  Biso   1.000  C
  Cu13     1.0000 0.08873  0.28910  0.91497  Biso   1.000  Cu
  Cu14     1.0000 0.13252  0.45437  0.75894  Biso   1.000  Cu
  Cu15     1.0000 0.68421  0.44216  0.66905  Biso   1.000  Cu
  Cu16     1.0000 0.87015  0.37908  0.51178  Biso   1.000  Cu
  N58      1.0000 0.08872  0.28594  0.07250  Biso   1.000  N
  N59      1.0000 0.11195  0.37127  0.95160  Biso   1.000  N
  N60      1.0000 0.12803  0.42102  0.90230  Biso   1.000  N
  N61      1.0000 0.12989  0.43853  0.07800  Biso   1.000  N
  N62      1.0000 0.15777  0.52994  0.84570  Biso   1.000  N
  N63      1.0000 0.18220  0.61750  0.99370  Biso   1.000  N
  N64      1.0000 0.07176  0.20458  0.94140  Biso   1.000  N
  N65      1.0000 0.06782  0.13001  0.05750  Biso   1.000  N
  N66      1.0000 0.06634  0.15491  0.88480  Biso   1.000  N
  N67      1.0000 0.03878  0.04710  0.81760  Biso   1.000  N
  N68      1.0000 0.06107  0.94765  0.93940  Biso   1.000  N
  N69      1.0000 0.16112  0.27390  0.71720  Biso   1.000  N
  N70      1.0000 0.10916  0.28469  0.76360  Biso   1.000  N
  N71      1.0000 0.09371  0.28422  0.58870  Biso   1.000  N
  H46      1.0000 0.07740  0.28630  0.52750  Biso   1.000  H
  N72      1.0000 0.99554  0.30632  0.81380  Biso   1.000  N
  N73      1.0000 0.91022  0.32088  0.65750  Biso   1.000  N
  C88      1.0000 0.75830  0.42690  0.60450  Biso   1.000  C
  N74      1.0000 0.57240  0.47890  0.55350  Biso   1.000  N
  N75      1.0000 0.90690  0.34130  0.39330  Biso   1.000  N
  C89      1.0000 0.07620  0.23546  0.12080  Biso   1.000  C
  C90      1.0000 0.06820  0.23290  0.22890  Biso   1.000  C
  H47      1.0000 0.05940  0.19770  0.26250  Biso   1.000  H
  C91      1.0000 0.07380  0.28470  0.28530  Biso   1.000  C
  H48      1.0000 0.06660  0.28450  0.35750  Biso   1.000  H
  C92      1.0000 0.09000  0.33740  0.23620  Biso   1.000  C
  H49      1.0000 0.09550  0.37180  0.27450  Biso   1.000  H
  C93      1.0000 0.09750  0.33550  0.12660  Biso   1.000  C
  C94      1.0000 0.11320  0.38371  0.05620  Biso   1.000  C
  C95      1.0000 0.13831  0.46003  0.97950  Biso   1.000  C
  C96      1.0000 0.15611  0.51944  0.95070  Biso   1.000  C
  C97      1.0000 0.16910  0.56360  0.02310  Biso   1.000  C
  H50      1.0000 0.16840  0.55470  0.09480  Biso   1.000  H
  C98      1.0000 0.18190  0.62810  0.89070  Biso   1.000  C
  H51      1.0000 0.18920  0.66610  0.86730  Biso   1.000  H
  C99      1.0000 0.17110  0.58480  0.81710  Biso   1.000  C
  H52      1.0000 0.17310  0.59410  0.74570  Biso   1.000  H
  C100     1.0000 0.07200  0.18788  0.04340  Biso   1.000  C
  C101     1.0000 0.06406  0.11115  0.95580  Biso   1.000  C
  C102     1.0000 0.05727  0.05138  0.91850  Biso   1.000  C
  C103     1.0000 0.03020  0.99250  0.78100  Biso   1.000  C
  H53      1.0000 0.01700  0.98760  0.71200  Biso   1.000  H
  C104     1.0000 0.04010  0.94370  0.84140  Biso   1.000  C
  H54      1.0000 0.03190  0.90680  0.81350  Biso   1.000  H
  C105     1.0000 0.06920  0.00136  0.97790  Biso   1.000  C
  H55      1.0000 0.08330  0.00560  0.04640  Biso   1.000  H
  C106     1.0000 0.19980  0.26210  0.54430  Biso   1.000  C
  C107     1.0000 0.19830  0.26170  0.43690  Biso   1.000  C
  H56      1.0000 0.16130  0.27000  0.40030  Biso   1.000  H
  C108     1.0000 0.24450  0.22530  0.38340  Biso   1.000  C
  H57      1.0000 0.23890  0.20050  0.32100  Biso   1.000  H
  C109     1.0000 0.15003  0.27390  0.61390  Biso   1.000  C
  C110     1.0000 0.06965  0.29052  0.68530  Biso   1.000  C
  C111     1.0000 0.00885  0.30197  0.71070  Biso   1.000  C
  C112     1.0000 0.96590  0.30799  0.63450  Biso   1.000  C
  H58      1.0000 0.97620  0.30280  0.56400  Biso   1.000  H
  C113     1.0000 0.89780  0.32500  0.75960  Biso   1.000  C
  H59      1.0000 0.85950  0.33380  0.77960  Biso   1.000  H
  C114     1.0000 0.93930  0.31660  0.83670  Biso   1.000  C
  H60      1.0000 0.92790  0.31820  0.90710  Biso   1.000  H
  N76      1.0000 0.79990  0.41100  0.56900  Biso   1.000  N
  C115     1.0000 0.61590  0.46690  0.59310  Biso   1.000  C
  C116     1.0000 0.92560  0.32700  0.31780  Biso   1.000  C
  Cu17     1.0000 0.28910  0.41127  0.58503  Biso   1.000  Cu
  Cu18     1.0000 0.45437  0.36748  0.74106  Biso   1.000  Cu
  Cu19     1.0000 0.44216  0.81579  0.83095  Biso   1.000  Cu
  Cu20     1.0000 0.37908  0.62985  0.98822  Biso   1.000  Cu
  N77      1.0000 0.28594  0.41128  0.42750  Biso   1.000  N
  N78      1.0000 0.37127  0.38805  0.54840  Biso   1.000  N
  N79      1.0000 0.42102  0.37197  0.59770  Biso   1.000  N
  N80      1.0000 0.43853  0.37011  0.42200  Biso   1.000  N
  N81      1.0000 0.52994  0.34223  0.65430  Biso   1.000  N
  N82      1.0000 0.61750  0.31780  0.50630  Biso   1.000  N
  N83      1.0000 0.20458  0.42824  0.55860  Biso   1.000  N
  N84      1.0000 0.13001  0.43218  0.44250  Biso   1.000  N
  N85      1.0000 0.15491  0.43366  0.61520  Biso   1.000  N
  N86      1.0000 0.04710  0.46122  0.68240  Biso   1.000  N
  N87      1.0000 0.94765  0.43893  0.56060  Biso   1.000  N
  N88      1.0000 0.27390  0.33888  0.78280  Biso   1.000  N
  N89      1.0000 0.28469  0.39084  0.73640  Biso   1.000  N
  N90      1.0000 0.28422  0.40629  0.91130  Biso   1.000  N
  H61      1.0000 0.28630  0.42260  0.97250  Biso   1.000  H
  N91      1.0000 0.30632  0.50446  0.68620  Biso   1.000  N
  N92      1.0000 0.32088  0.58978  0.84250  Biso   1.000  N
  C117     1.0000 0.42690  0.74170  0.89550  Biso   1.000  C
  N93      1.0000 0.47890  0.92760  0.94650  Biso   1.000  N
  N94      1.0000 0.34130  0.59310  0.10670  Biso   1.000  N
  C118     1.0000 0.23546  0.42380  0.37920  Biso   1.000  C
  C119     1.0000 0.23290  0.43180  0.27110  Biso   1.000  C
  H62      1.0000 0.19770  0.44060  0.23750  Biso   1.000  H
  C120     1.0000 0.28470  0.42620  0.21470  Biso   1.000  C
  H63      1.0000 0.28450  0.43340  0.14250  Biso   1.000  H
  C121     1.0000 0.33740  0.41000  0.26380  Biso   1.000  C
  H64      1.0000 0.37180  0.40450  0.22550  Biso   1.000  H
  C122     1.0000 0.33550  0.40250  0.37340  Biso   1.000  C
  C123     1.0000 0.38371  0.38680  0.44380  Biso   1.000  C
  C124     1.0000 0.46003  0.36169  0.52050  Biso   1.000  C
  C125     1.0000 0.51944  0.34389  0.54930  Biso   1.000  C
  C126     1.0000 0.56360  0.33090  0.47690  Biso   1.000  C
  H65      1.0000 0.55470  0.33160  0.40520  Biso   1.000  H
  C127     1.0000 0.62810  0.31810  0.60930  Biso   1.000  C
  H66      1.0000 0.66610  0.31080  0.63270  Biso   1.000  H
  C128     1.0000 0.58480  0.32890  0.68290  Biso   1.000  C
  H67      1.0000 0.59410  0.32690  0.75430  Biso   1.000  H
  C129     1.0000 0.18788  0.42800  0.45660  Biso   1.000  C
  C130     1.0000 0.11115  0.43594  0.54420  Biso   1.000  C
  C131     1.0000 0.05138  0.44273  0.58150  Biso   1.000  C
  C132     1.0000 0.99250  0.46980  0.71900  Biso   1.000  C
  H68      1.0000 0.98760  0.48300  0.78800  Biso   1.000  H
  C133     1.0000 0.94370  0.45990  0.65860  Biso   1.000  C
  H69      1.0000 0.90680  0.46810  0.68650  Biso   1.000  H
  C134     1.0000 0.00136  0.43080  0.52210  Biso   1.000  C
  H70      1.0000 0.00560  0.41670  0.45360  Biso   1.000  H
  C135     1.0000 0.26210  0.30020  0.95570  Biso   1.000  C
  C136     1.0000 0.26170  0.30170  0.06310  Biso   1.000  C
  H71      1.0000 0.27000  0.33870  0.09970  Biso   1.000  H
  C137     1.0000 0.22530  0.25550  0.11660  Biso   1.000  C
  H72      1.0000 0.20050  0.26110  0.17900  Biso   1.000  H
  C138     1.0000 0.27390  0.34997  0.88610  Biso   1.000  C
  C139     1.0000 0.29052  0.43035  0.81470  Biso   1.000  C
  C140     1.0000 0.30197  0.49115  0.78930  Biso   1.000  C
  C141     1.0000 0.30799  0.53410  0.86550  Biso   1.000  C
  H73      1.0000 0.30280  0.52380  0.93600  Biso   1.000  H
  C142     1.0000 0.32500  0.60220  0.74040  Biso   1.000  C
  H74      1.0000 0.33380  0.64050  0.72040  Biso   1.000  H
  C143     1.0000 0.31660  0.56070  0.66330  Biso   1.000  C
  H75      1.0000 0.31820  0.57210  0.59290  Biso   1.000  H
  N95      1.0000 0.41100  0.70010  0.93100  Biso   1.000  N
  C144     1.0000 0.46690  0.88410  0.90690  Biso   1.000  C
  C145     1.0000 0.32700  0.57440  0.18220  Biso   1.000  C
  Cu21     1.0000 0.21090  0.08873  0.58503  Biso   1.000  Cu
  Cu22     1.0000 0.04563  0.13252  0.74106  Biso   1.000  Cu
  Cu23     1.0000 0.05784  0.68421  0.83095  Biso   1.000  Cu
  Cu24     1.0000 0.12092  0.87015  0.98822  Biso   1.000  Cu
  N96      1.0000 0.21406  0.08872  0.42750  Biso   1.000  N
  N97      1.0000 0.12873  0.11195  0.54840  Biso   1.000  N
  N98      1.0000 0.07898  0.12803  0.59770  Biso   1.000  N
  N99      1.0000 0.06147  0.12989  0.42200  Biso   1.000  N
  N100     1.0000 0.97006  0.15777  0.65430  Biso   1.000  N
  N101     1.0000 0.88250  0.18220  0.50630  Biso   1.000  N
  N102     1.0000 0.29542  0.07176  0.55860  Biso   1.000  N
  N103     1.0000 0.36999  0.06782  0.44250  Biso   1.000  N
  N104     1.0000 0.34509  0.06634  0.61520  Biso   1.000  N
  N105     1.0000 0.45290  0.03878  0.68240  Biso   1.000  N
  N106     1.0000 0.55235  0.06107  0.56060  Biso   1.000  N
  N107     1.0000 0.22610  0.16112  0.78280  Biso   1.000  N
  N108     1.0000 0.21531  0.10916  0.73640  Biso   1.000  N
  N109     1.0000 0.21578  0.09371  0.91130  Biso   1.000  N
  H76      1.0000 0.21370  0.07740  0.97250  Biso   1.000  H
  N110     1.0000 0.19368  0.99554  0.68620  Biso   1.000  N
  N111     1.0000 0.17912  0.91022  0.84250  Biso   1.000  N
  C146     1.0000 0.07310  0.75830  0.89550  Biso   1.000  C
  N112     1.0000 0.02110  0.57240  0.94650  Biso   1.000  N
  N113     1.0000 0.15870  0.90690  0.10670  Biso   1.000  N
  C147     1.0000 0.26454  0.07620  0.37920  Biso   1.000  C
  C148     1.0000 0.26710  0.06820  0.27110  Biso   1.000  C
  H77      1.0000 0.30230  0.05940  0.23750  Biso   1.000  H
  C149     1.0000 0.21530  0.07380  0.21470  Biso   1.000  C
  H78      1.0000 0.21550  0.06660  0.14250  Biso   1.000  H
  C150     1.0000 0.16260  0.09000  0.26380  Biso   1.000  C
  H79      1.0000 0.12820  0.09550  0.22550  Biso   1.000  H
  C151     1.0000 0.16450  0.09750  0.37340  Biso   1.000  C
  C152     1.0000 0.11629  0.11320  0.44380  Biso   1.000  C
  C153     1.0000 0.03997  0.13831  0.52050  Biso   1.000  C
  C154     1.0000 0.98056  0.15611  0.54930  Biso   1.000  C
  C155     1.0000 0.93640  0.16910  0.47690  Biso   1.000  C
  H80      1.0000 0.94530  0.16840  0.40520  Biso   1.000  H
  C156     1.0000 0.87190  0.18190  0.60930  Biso   1.000  C
  H81      1.0000 0.83390  0.18920  0.63270  Biso   1.000  H
  C157     1.0000 0.91520  0.17110  0.68290  Biso   1.000  C
  H82      1.0000 0.90590  0.17310  0.75430  Biso   1.000  H
  C158     1.0000 0.31212  0.07200  0.45660  Biso   1.000  C
  C159     1.0000 0.38885  0.06406  0.54420  Biso   1.000  C
  C160     1.0000 0.44862  0.05727  0.58150  Biso   1.000  C
  C161     1.0000 0.50750  0.03020  0.71900  Biso   1.000  C
  H83      1.0000 0.51240  0.01700  0.78800  Biso   1.000  H
  C162     1.0000 0.55630  0.04010  0.65860  Biso   1.000  C
  H84      1.0000 0.59320  0.03190  0.68650  Biso   1.000  H
  C163     1.0000 0.49864  0.06920  0.52210  Biso   1.000  C
  H85      1.0000 0.49440  0.08330  0.45360  Biso   1.000  H
  C164     1.0000 0.23790  0.19980  0.95570  Biso   1.000  C
  C165     1.0000 0.23830  0.19830  0.06310  Biso   1.000  C
  H86      1.0000 0.23000  0.16130  0.09970  Biso   1.000  H
  C166     1.0000 0.27470  0.24450  0.11660  Biso   1.000  C
  H87      1.0000 0.29950  0.23890  0.17900  Biso   1.000  H
  C167     1.0000 0.22610  0.15003  0.88610  Biso   1.000  C
  C168     1.0000 0.20948  0.06965  0.81470  Biso   1.000  C
  C169     1.0000 0.19803  0.00885  0.78930  Biso   1.000  C
  C170     1.0000 0.19201  0.96590  0.86550  Biso   1.000  C
  H88      1.0000 0.19720  0.97620  0.93600  Biso   1.000  H
  C171     1.0000 0.17500  0.89780  0.74040  Biso   1.000  C
  H89      1.0000 0.16620  0.85950  0.72040  Biso   1.000  H
  C172     1.0000 0.18340  0.93930  0.66330  Biso   1.000  C
  H90      1.0000 0.18180  0.92790  0.59290  Biso   1.000  H
  N114     1.0000 0.08900  0.79990  0.93100  Biso   1.000  N
  C173     1.0000 0.03310  0.61590  0.90690  Biso   1.000  C
  C174     1.0000 0.17300  0.92560  0.18220  Biso   1.000  C
  Cu25     1.0000 0.58873  0.78910  0.08503  Biso   1.000  Cu
  Cu26     1.0000 0.63252  0.95437  0.24106  Biso   1.000  Cu
  Cu27     1.0000 0.18421  0.94216  0.33095  Biso   1.000  Cu
  Cu28     1.0000 0.37015  0.87908  0.48822  Biso   1.000  Cu
  N115     1.0000 0.58872  0.78594  0.92750  Biso   1.000  N
  N116     1.0000 0.61195  0.87127  0.04840  Biso   1.000  N
  N117     1.0000 0.62803  0.92102  0.09770  Biso   1.000  N
  N118     1.0000 0.62989  0.93853  0.92200  Biso   1.000  N
  N119     1.0000 0.65777  0.02994  0.15430  Biso   1.000  N
  N120     1.0000 0.68220  0.11750  0.00630  Biso   1.000  N
  N121     1.0000 0.57176  0.70458  0.05860  Biso   1.000  N
  N122     1.0000 0.56782  0.63001  0.94250  Biso   1.000  N
  N123     1.0000 0.56634  0.65491  0.11520  Biso   1.000  N
  N124     1.0000 0.53878  0.54710  0.18240  Biso   1.000  N
  N125     1.0000 0.56107  0.44765  0.06060  Biso   1.000  N
  N126     1.0000 0.66112  0.77390  0.28280  Biso   1.000  N
  N127     1.0000 0.60916  0.78469  0.23640  Biso   1.000  N
  N128     1.0000 0.59371  0.78422  0.41130  Biso   1.000  N
  H91      1.0000 0.57740  0.78630  0.47250  Biso   1.000  H
  N129     1.0000 0.49554  0.80632  0.18620  Biso   1.000  N
  N130     1.0000 0.41022  0.82088  0.34250  Biso   1.000  N
  C175     1.0000 0.25830  0.92690  0.39550  Biso   1.000  C
  N131     1.0000 0.07240  0.97890  0.44650  Biso   1.000  N
  N132     1.0000 0.40690  0.84130  0.60670  Biso   1.000  N
  C176     1.0000 0.57620  0.73546  0.87920  Biso   1.000  C
  C177     1.0000 0.56820  0.73290  0.77110  Biso   1.000  C
  H92      1.0000 0.55940  0.69770  0.73750  Biso   1.000  H
  C178     1.0000 0.57380  0.78470  0.71470  Biso   1.000  C
  H93      1.0000 0.56660  0.78450  0.64250  Biso   1.000  H
  C179     1.0000 0.59000  0.83740  0.76380  Biso   1.000  C
  H94      1.0000 0.59550  0.87180  0.72550  Biso   1.000  H
  C180     1.0000 0.59750  0.83550  0.87340  Biso   1.000  C
  C181     1.0000 0.61320  0.88371  0.94380  Biso   1.000  C
  C182     1.0000 0.63831  0.96003  0.02050  Biso   1.000  C
  C183     1.0000 0.65611  0.01944  0.04930  Biso   1.000  C
  C184     1.0000 0.66910  0.06360  0.97690  Biso   1.000  C
  H95      1.0000 0.66840  0.05470  0.90520  Biso   1.000  H
  C185     1.0000 0.68190  0.12810  0.10930  Biso   1.000  C
  H96      1.0000 0.68920  0.16610  0.13270  Biso   1.000  H
  C186     1.0000 0.67110  0.08480  0.18290  Biso   1.000  C
  H97      1.0000 0.67310  0.09410  0.25430  Biso   1.000  H
  C187     1.0000 0.57200  0.68788  0.95660  Biso   1.000  C
  C188     1.0000 0.56406  0.61115  0.04420  Biso   1.000  C
  C189     1.0000 0.55727  0.55138  0.08150  Biso   1.000  C
  C190     1.0000 0.53020  0.49250  0.21900  Biso   1.000  C
  H98      1.0000 0.51700  0.48760  0.28800  Biso   1.000  H
  C191     1.0000 0.54010  0.44370  0.15860  Biso   1.000  C
  H99      1.0000 0.53190  0.40680  0.18650  Biso   1.000  H
  C192     1.0000 0.56920  0.50136  0.02210  Biso   1.000  C
  H100     1.0000 0.58330  0.50560  0.95360  Biso   1.000  H
  C193     1.0000 0.69980  0.76210  0.45570  Biso   1.000  C
  C194     1.0000 0.69830  0.76170  0.56310  Biso   1.000  C
  H101     1.0000 0.66130  0.77000  0.59970  Biso   1.000  H
  C195     1.0000 0.74450  0.72530  0.61660  Biso   1.000  C
  H102     1.0000 0.73890  0.70050  0.67900  Biso   1.000  H
  C196     1.0000 0.65003  0.77390  0.38610  Biso   1.000  C
  C197     1.0000 0.56965  0.79052  0.31470  Biso   1.000  C
  C198     1.0000 0.50885  0.80197  0.28930  Biso   1.000  C
  C199     1.0000 0.46590  0.80799  0.36550  Biso   1.000  C
  H103     1.0000 0.47620  0.80280  0.43600  Biso   1.000  H
  C200     1.0000 0.39780  0.82500  0.24040  Biso   1.000  C
  H104     1.0000 0.35950  0.83380  0.22040  Biso   1.000  H
  C201     1.0000 0.43930  0.81660  0.16330  Biso   1.000  C
  H105     1.0000 0.42790  0.81820  0.09290  Biso   1.000  H
  N133     1.0000 0.29990  0.91100  0.43100  Biso   1.000  N
  C202     1.0000 0.11590  0.96690  0.40690  Biso   1.000  C
  C203     1.0000 0.42560  0.82700  0.68220  Biso   1.000  C
  Cu29     1.0000 0.91127  0.71090  0.08503  Biso   1.000  Cu
  Cu30     1.0000 0.86748  0.54563  0.24106  Biso   1.000  Cu
  Cu31     1.0000 0.31579  0.55784  0.33095  Biso   1.000  Cu
  Cu32     1.0000 0.12985  0.62092  0.48822  Biso   1.000  Cu
  N134     1.0000 0.91128  0.71406  0.92750  Biso   1.000  N
  N135     1.0000 0.88805  0.62873  0.04840  Biso   1.000  N
  N136     1.0000 0.87197  0.57898  0.09770  Biso   1.000  N
  N137     1.0000 0.87011  0.56147  0.92200  Biso   1.000  N
  N138     1.0000 0.84223  0.47006  0.15430  Biso   1.000  N
  N139     1.0000 0.81780  0.38250  0.00630  Biso   1.000  N
  N140     1.0000 0.92824  0.79542  0.05860  Biso   1.000  N
  N141     1.0000 0.93218  0.86999  0.94250  Biso   1.000  N
  N142     1.0000 0.93366  0.84509  0.11520  Biso   1.000  N
  N143     1.0000 0.96122  0.95290  0.18240  Biso   1.000  N
  N144     1.0000 0.93893  0.05235  0.06060  Biso   1.000  N
  N145     1.0000 0.83888  0.72610  0.28280  Biso   1.000  N
  N146     1.0000 0.89084  0.71531  0.23640  Biso   1.000  N
  N147     1.0000 0.90629  0.71578  0.41130  Biso   1.000  N
  H106     1.0000 0.92260  0.71370  0.47250  Biso   1.000  H
  N148     1.0000 0.00446  0.69368  0.18620  Biso   1.000  N
  N149     1.0000 0.08978  0.67912  0.34250  Biso   1.000  N
  C204     1.0000 0.24170  0.57310  0.39550  Biso   1.000  C
  N150     1.0000 0.42760  0.52110  0.44650  Biso   1.000  N
  N151     1.0000 0.09310  0.65870  0.60670  Biso   1.000  N
  C205     1.0000 0.92380  0.76454  0.87920  Biso   1.000  C
  C206     1.0000 0.93180  0.76710  0.77110  Biso   1.000  C
  H107     1.0000 0.94060  0.80230  0.73750  Biso   1.000  H
  C207     1.0000 0.92620  0.71530  0.71470  Biso   1.000  C
  H108     1.0000 0.93340  0.71550  0.64250  Biso   1.000  H
  C208     1.0000 0.91000  0.66260  0.76380  Biso   1.000  C
  H109     1.0000 0.90450  0.62820  0.72550  Biso   1.000  H
  C209     1.0000 0.90250  0.66450  0.87340  Biso   1.000  C
  C210     1.0000 0.88680  0.61629  0.94380  Biso   1.000  C
  C211     1.0000 0.86169  0.53997  0.02050  Biso   1.000  C
  C212     1.0000 0.84389  0.48056  0.04930  Biso   1.000  C
  C213     1.0000 0.83090  0.43640  0.97690  Biso   1.000  C
  H110     1.0000 0.83160  0.44530  0.90520  Biso   1.000  H
  C214     1.0000 0.81810  0.37190  0.10930  Biso   1.000  C
  H111     1.0000 0.81080  0.33390  0.13270  Biso   1.000  H
  C215     1.0000 0.82890  0.41520  0.18290  Biso   1.000  C
  H112     1.0000 0.82690  0.40590  0.25430  Biso   1.000  H
  C216     1.0000 0.92800  0.81212  0.95660  Biso   1.000  C
  C217     1.0000 0.93594  0.88885  0.04420  Biso   1.000  C
  C218     1.0000 0.94273  0.94862  0.08150  Biso   1.000  C
  C219     1.0000 0.96980  0.00750  0.21900  Biso   1.000  C
  H113     1.0000 0.98300  0.01240  0.28800  Biso   1.000  H
  C220     1.0000 0.95990  0.05630  0.15860  Biso   1.000  C
  H114     1.0000 0.96810  0.09320  0.18650  Biso   1.000  H
  C221     1.0000 0.93080  0.99864  0.02210  Biso   1.000  C
  H115     1.0000 0.91670  0.99440  0.95360  Biso   1.000  H
  C222     1.0000 0.80020  0.73790  0.45570  Biso   1.000  C
  C223     1.0000 0.80170  0.73830  0.56310  Biso   1.000  C
  H116     1.0000 0.83870  0.73000  0.59970  Biso   1.000  H
  C224     1.0000 0.75550  0.77470  0.61660  Biso   1.000  C
  H117     1.0000 0.76110  0.79950  0.67900  Biso   1.000  H
  C225     1.0000 0.84997  0.72610  0.38610  Biso   1.000  C
  C226     1.0000 0.93035  0.70948  0.31470  Biso   1.000  C
  C227     1.0000 0.99115  0.69803  0.28930  Biso   1.000  C
  C228     1.0000 0.03410  0.69201  0.36550  Biso   1.000  C
  H118     1.0000 0.02380  0.69720  0.43600  Biso   1.000  H
  C229     1.0000 0.10220  0.67500  0.24040  Biso   1.000  C
  H119     1.0000 0.14050  0.66620  0.22040  Biso   1.000  H
  C230     1.0000 0.06070  0.68340  0.16330  Biso   1.000  C
  H120     1.0000 0.07210  0.68180  0.09290  Biso   1.000  H
  N152     1.0000 0.20010  0.58900  0.43100  Biso   1.000  N
  C231     1.0000 0.38410  0.53310  0.40690  Biso   1.000  C
  C232     1.0000 0.07440  0.67300  0.68220  Biso   1.000  C
  Cu33     1.0000 0.75000  0.75000  0.25000  Biso   1.000  Cu
  Cu34     1.0000 0.25000  0.25000  0.75000  Biso   1.000  Cu
  Cu35     1.0000 0.50000  0.00000  0.00000  Biso   1.000  Cu
  Cu36     1.0000 0.00000  0.50000  0.00000  Biso   1.000  Cu
  Cu37     1.0000 0.00000  0.00000  0.50000  Biso   1.000  Cu
  Cu38     1.0000 0.50000  0.50000  0.50000  Biso   1.000  Cu
  N153     1.0000 0.75000  0.75000  0.09430  Biso   1.000  N
  N154     1.0000 0.25000  0.25000  0.59430  Biso   1.000  N
  N155     1.0000 0.25000  0.25000  0.90570  Biso   1.000  N
  N156     1.0000 0.75000  0.75000  0.40570  Biso   1.000  N
