data_image0
_cell_length_a       6.6627
_cell_length_b       9.67402
_cell_length_c       10.7118
_cell_angle_alpha    116.844
_cell_angle_beta     104.874
_cell_angle_gamma    90

_symmetry_space_group_name_H-M    P 1
_symmetry_int_tables_number       1

loop_
  _symmetry_equiv_pos_as_xyz
  'x, y, z'

loop_
  _atom_site_label
  _atom_site_occupancy
  _atom_site_fract_x
  _atom_site_fract_y
  _atom_site_fract_z
  _atom_site_thermal_displace_type
  _atom_site_B_iso_or_equiv
  _atom_site_type_symbol
  Pr1      1.0000 0.97560  0.29116  0.10326  Biso   1.000  Pr
  Pr2      1.0000 0.47560  0.81210  0.10326  Biso   1.000  Pr
  H1       1.0000 0.96320  0.52250  0.71700  Biso   1.000  H
  H2       1.0000 0.78420  0.34670  0.48800  Biso   1.000  H
  H3       1.0000 0.88820  0.00730  0.59380  Biso   1.000  H
  H4       1.0000 0.02340  0.94970  0.76140  Biso   1.000  H
  H5       1.0000 0.23590  0.02310  0.76340  Biso   1.000  H
  H6       1.0000 0.55820  0.27910  0.14960  Biso   1.000  H
  H7       1.0000 0.68330  0.21740  0.23800  Biso   1.000  H
  H8       1.0000 0.78800  0.58270  0.23340  Biso   1.000  H
  H9       1.0000 0.99560  0.62990  0.30240  Biso   1.000  H
  H10      1.0000 0.46320  0.19450  0.71700  Biso   1.000  H
  H11      1.0000 0.28420  0.14130  0.48800  Biso   1.000  H
  H12      1.0000 0.38820  0.58650  0.59380  Biso   1.000  H
  H13      1.0000 0.52340  0.81170  0.76140  Biso   1.000  H
  H14      1.0000 0.73590  0.74030  0.76340  Biso   1.000  H
  H15      1.0000 0.05820  0.87050  0.14960  Biso   1.000  H
  H16      1.0000 0.18330  0.02060  0.23800  Biso   1.000  H
  H17      1.0000 0.28800  0.65070  0.23340  Biso   1.000  H
  H18      1.0000 0.49560  0.67250  0.30240  Biso   1.000  H
  C1       1.0000 0.99510  0.22010  0.75900  Biso   1.000  C
  C2       1.0000 0.01530  0.37270  0.79740  Biso   1.000  C
  C3       1.0000 0.94230  0.41730  0.69280  Biso   1.000  C
  C4       1.0000 0.84200  0.31420  0.55740  Biso   1.000  C
  C5       1.0000 0.82480  0.16250  0.52180  Biso   1.000  C
  C6       1.0000 0.90050  0.11330  0.62040  Biso   1.000  C
  C7       1.0000 0.13940  0.03350  0.82020  Biso   1.000  C
  C8       1.0000 0.24700  0.02620  0.95560  Biso   1.000  C
  C9       1.0000 0.12310  0.49460  0.94480  Biso   1.000  C
  C10      1.0000 0.71930  0.04370  0.37380  Biso   1.000  C
  C11      1.0000 0.49510  0.53890  0.75900  Biso   1.000  C
  C12      1.0000 0.51530  0.42470  0.79740  Biso   1.000  C
  C13      1.0000 0.44230  0.27550  0.69280  Biso   1.000  C
  C14      1.0000 0.34200  0.24320  0.55740  Biso   1.000  C
  C15      1.0000 0.32480  0.35930  0.52180  Biso   1.000  C
  C16      1.0000 0.40050  0.50710  0.62040  Biso   1.000  C
  C17      1.0000 0.63940  0.78670  0.82020  Biso   1.000  C
  C18      1.0000 0.74700  0.92940  0.95560  Biso   1.000  C
  C19      1.0000 0.62310  0.45020  0.94480  Biso   1.000  C
  C20      1.0000 0.21930  0.33010  0.37380  Biso   1.000  C
  O1       1.0000 0.06610  0.17880  0.86200  Biso   1.000  O
  O2       1.0000 0.31790  0.90930  0.94060  Biso   1.000  O
  O3       1.0000 0.26030  0.14350  0.06840  Biso   1.000  O
  O4       1.0000 0.13460  0.46520  0.04660  Biso   1.000  O
  O5       1.0000 0.19430  0.61470  0.95840  Biso   1.000  O
  O6       1.0000 0.58300  0.08220  0.29820  Biso   1.000  O
  O7       1.0000 0.75730  0.91330  0.33160  Biso   1.000  O
  O8       1.0000 0.67940  0.26620  0.18860  Biso   1.000  O
  O9       1.0000 0.90400  0.54970  0.25880  Biso   1.000  O
  O10      1.0000 0.56610  0.68320  0.86200  Biso   1.000  O
  O11      1.0000 0.81790  0.03130  0.94060  Biso   1.000  O
  O12      1.0000 0.76030  0.92490  0.06840  Biso   1.000  O
  O13      1.0000 0.63460  0.58140  0.04660  Biso   1.000  O
  O14      1.0000 0.69430  0.34370  0.95840  Biso   1.000  O
  O15      1.0000 0.08300  0.21600  0.29820  Biso   1.000  O
  O16      1.0000 0.25730  0.41830  0.33160  Biso   1.000  O
  O17      1.0000 0.17940  0.92240  0.18860  Biso   1.000  O
  O18      1.0000 0.40400  0.70910  0.25880  Biso   1.000  O
