data_image0
_cell_length_a       6.9059
_cell_length_b       9.98902
_cell_length_c       11.0921
_cell_angle_alpha    116.761
_cell_angle_beta     104.274
_cell_angle_gamma    90

_symmetry_space_group_name_H-M    P 1
_symmetry_int_tables_number       1

loop_
  _symmetry_equiv_pos_as_xyz
  'x, y, z'

loop_
  _atom_site_label
  _atom_site_occupancy
  _atom_site_fract_x
  _atom_site_fract_y
  _atom_site_fract_z
  _atom_site_thermal_displace_type
  _atom_site_B_iso_or_equiv
  _atom_site_type_symbol
  Nd1      1.0000 0.44236  0.90850  0.29621  Biso   1.000  Nd
  Nd2      1.0000 0.94236  0.38771  0.29621  Biso   1.000  Nd
  H1       1.0000 0.45970  0.67890  0.68280  Biso   1.000  H
  H2       1.0000 0.63320  0.85220  0.90940  Biso   1.000  H
  H3       1.0000 0.53000  0.18870  0.80480  Biso   1.000  H
  H4       1.0000 0.18760  0.17900  0.63740  Biso   1.000  H
  H5       1.0000 0.39030  0.24740  0.63360  Biso   1.000  H
  H6       1.0000 0.85820  0.93730  0.25860  Biso   1.000  H
  H7       1.0000 0.73280  0.99220  0.17540  Biso   1.000  H
  H8       1.0000 0.59670  0.63710  0.20680  Biso   1.000  H
  H9       1.0000 0.44490  0.56610  0.07540  Biso   1.000  H
  H10      1.0000 0.95970  0.00390  0.68280  Biso   1.000  H
  H11      1.0000 0.13320  0.05720  0.90940  Biso   1.000  H
  H12      1.0000 0.03000  0.61610  0.80480  Biso   1.000  H
  H13      1.0000 0.68760  0.45840  0.63740  Biso   1.000  H
  H14      1.0000 0.89030  0.38620  0.63360  Biso   1.000  H
  H15      1.0000 0.35820  0.32130  0.25860  Biso   1.000  H
  H16      1.0000 0.23280  0.18320  0.17540  Biso   1.000  H
  H17      1.0000 0.09670  0.56970  0.20680  Biso   1.000  H
  H18      1.0000 0.94490  0.50930  0.07540  Biso   1.000  H
  C1       1.0000 0.42580  0.97940  0.64240  Biso   1.000  C
  C2       1.0000 0.40400  0.82540  0.60240  Biso   1.000  C
  C3       1.0000 0.47800  0.78080  0.70620  Biso   1.000  C
  C4       1.0000 0.57790  0.88430  0.84300  Biso   1.000  C
  C5       1.0000 0.59420  0.03750  0.87960  Biso   1.000  C
  C6       1.0000 0.51860  0.08620  0.77980  Biso   1.000  C
  C7       1.0000 0.27850  0.16670  0.58000  Biso   1.000  C
  C8       1.0000 0.16900  0.17070  0.44520  Biso   1.000  C
  C9       1.0000 0.29800  0.70420  0.45480  Biso   1.000  C
  C10      1.0000 0.70220  0.15550  0.02640  Biso   1.000  C
  C11      1.0000 0.92580  0.66300  0.64240  Biso   1.000  C
  C12      1.0000 0.90400  0.77700  0.60240  Biso   1.000  C
  C13      1.0000 0.97800  0.92540  0.70620  Biso   1.000  C
  C14      1.0000 0.07790  0.95870  0.84300  Biso   1.000  C
  C15      1.0000 0.09420  0.84210  0.87960  Biso   1.000  C
  C16      1.0000 0.01860  0.69360  0.77980  Biso   1.000  C
  C17      1.0000 0.77850  0.41330  0.58000  Biso   1.000  C
  C18      1.0000 0.66900  0.27450  0.44520  Biso   1.000  C
  C19      1.0000 0.79800  0.75060  0.45480  Biso   1.000  C
  C20      1.0000 0.20220  0.87090  0.02640  Biso   1.000  C
  O1       1.0000 0.35030  0.02190  0.53900  Biso   1.000  O
  O2       1.0000 0.15650  0.05462  0.33064  Biso   1.000  O
  O3       1.0000 0.10020  0.28898  0.45916  Biso   1.000  O
  O4       1.0000 0.28460  0.73141  0.35122  Biso   1.000  O
  O5       1.0000 0.22570  0.58229  0.44158  Biso   1.000  O
  O6       1.0000 0.83650  0.11875  0.10230  Biso   1.000  O
  O7       1.0000 0.65980  0.28830  0.07000  Biso   1.000  O
  O8       1.0000 0.73920  0.93391  0.21242  Biso   1.000  O
  O9       1.0000 0.51630  0.65117  0.14014  Biso   1.000  O
  O10      1.0000 0.85030  0.51710  0.53900  Biso   1.000  O
  O11      1.0000 0.65650  0.27602  0.33064  Biso   1.000  O
  O12      1.0000 0.60020  0.17018  0.45916  Biso   1.000  O
  O13      1.0000 0.78460  0.61981  0.35122  Biso   1.000  O
  O14      1.0000 0.72570  0.85929  0.44158  Biso   1.000  O
  O15      1.0000 0.33650  0.98355  0.10230  Biso   1.000  O
  O16      1.0000 0.15980  0.78170  0.07000  Biso   1.000  O
  O17      1.0000 0.23920  0.27851  0.21242  Biso   1.000  O
  O18      1.0000 0.01630  0.48897  0.14014  Biso   1.000  O
