data_image0
_cell_length_a       9.987
_cell_length_b       12.275
_cell_length_c       17.462
_cell_angle_alpha    90
_cell_angle_beta     102.8
_cell_angle_gamma    90

_symmetry_space_group_name_H-M    "P 1"
_symmetry_int_tables_number       1

loop_
  _symmetry_equiv_pos_as_xyz
  'x, y, z'

loop_
  _atom_site_label
  _atom_site_occupancy
  _atom_site_fract_x
  _atom_site_fract_y
  _atom_site_fract_z
  _atom_site_thermal_displace_type
  _atom_site_B_iso_or_equiv
  _atom_site_type_symbol
  O1       1.0000 0.90970  0.25870  0.71670  Biso   1.000  O
  O2       1.0000 0.81680  0.41410  0.62980  Biso   1.000  O
  O3       1.0000 0.35970  0.11870  0.64500  Biso   1.000  O
  O4       1.0000 0.94830  0.98820  0.90530  Biso   1.000  O
  O5       1.0000 0.17920  0.94920  0.87630  Biso   1.000  O
  O6       1.0000 0.12020  0.14530  0.66500  Biso   1.000  O
  O7       1.0000 0.68560  0.02430  0.48090  Biso   1.000  O
  O8       1.0000 0.15410  0.09860  0.96870  Biso   1.000  O
  O9       1.0000 0.59390  0.04920  0.60280  Biso   1.000  O
  O10      1.0000 0.04940  0.12250  0.82690  Biso   1.000  O
  O11      1.0000 0.30700  0.07980  0.77720  Biso   1.000  O
  O12      1.0000 0.94270  0.45090  0.76640  Biso   1.000  O
  O13      1.0000 0.84690  0.06950  0.60800  Biso   1.000  O
  O14      1.0000 0.06840  0.38750  0.66400  Biso   1.000  O
  O15      1.0000 0.31480  0.27140  0.72740  Biso   1.000  O
  O16      1.0000 0.68000  0.21020  0.53950  Biso   1.000  O
  O17      1.0000 0.51530  0.18320  0.39630  Biso   1.000  O
  O18      1.0000 0.80140  0.05300  0.75600  Biso   1.000  O
  O19      1.0000 0.53980  0.28560  0.64280  Biso   1.000  O
  Fe1      1.0000 0.24580  0.92420  0.77950  Biso   1.000  Fe
  Fe2      1.0000 0.64960  0.35850  0.57260  Biso   1.000  Fe
  Fe3      1.0000 0.56500  0.02390  0.37230  Biso   1.000  Fe
  Fe4      1.0000 0.96480  0.10830  0.71070  Biso   1.000  Fe
  P1       1.0000 0.70110  0.08760  0.55890  Biso   1.000  P
  P2       1.0000 0.08330  0.03940  0.89370  Biso   1.000  P
  P3       1.0000 0.27290  0.15380  0.70420  Biso   1.000  P
  P4       1.0000 0.93810  0.37550  0.69560  Biso   1.000  P
  F1       1.0000 0.04980  0.95800  0.72250  Biso   1.000  F
  F2       1.0000 0.71260  0.09020  0.32650  Biso   1.000  F
  H1       1.0000 0.56400  0.20700  0.44500  Biso   1.000  H
  H2       1.0000 0.52900  0.23400  0.36000  Biso   1.000  H
  H3       1.0000 0.72000  0.01900  0.73200  Biso   1.000  H
  H4       1.0000 0.82900  0.02800  0.80500  Biso   1.000  H
  H5       1.0000 0.62500  0.28000  0.68200  Biso   1.000  H
  H6       1.0000 0.49700  0.21800  0.63900  Biso   1.000  H
  O20      1.0000 0.59030  0.75870  0.78330  Biso   1.000  O
  O21      1.0000 0.68320  0.91410  0.87020  Biso   1.000  O
  O22      1.0000 0.14030  0.61870  0.85500  Biso   1.000  O
  O23      1.0000 0.55170  0.48820  0.59470  Biso   1.000  O
  O24      1.0000 0.32080  0.44920  0.62370  Biso   1.000  O
  O25      1.0000 0.37980  0.64530  0.83500  Biso   1.000  O
  O26      1.0000 0.81440  0.52430  0.01910  Biso   1.000  O
  O27      1.0000 0.34590  0.59860  0.53130  Biso   1.000  O
  O28      1.0000 0.90610  0.54920  0.89720  Biso   1.000  O
  O29      1.0000 0.45060  0.62250  0.67310  Biso   1.000  O
  O30      1.0000 0.19300  0.57980  0.72280  Biso   1.000  O
  O31      1.0000 0.55730  0.95090  0.73360  Biso   1.000  O
  O32      1.0000 0.65310  0.56950  0.89200  Biso   1.000  O
  O33      1.0000 0.43160  0.88750  0.83600  Biso   1.000  O
  O34      1.0000 0.18520  0.77140  0.77260  Biso   1.000  O
  O35      1.0000 0.82000  0.71020  0.96050  Biso   1.000  O
  O36      1.0000 0.98470  0.68320  0.10370  Biso   1.000  O
  O37      1.0000 0.69860  0.55300  0.74400  Biso   1.000  O
  O38      1.0000 0.96020  0.78560  0.85720  Biso   1.000  O
  Fe5      1.0000 0.25420  0.42420  0.72050  Biso   1.000  Fe
  Fe6      1.0000 0.85040  0.85850  0.92740  Biso   1.000  Fe
  Fe7      1.0000 0.93500  0.52390  0.12770  Biso   1.000  Fe
  Fe8      1.0000 0.53520  0.60830  0.78930  Biso   1.000  Fe
  P5       1.0000 0.79890  0.58760  0.94110  Biso   1.000  P
  P6       1.0000 0.41670  0.53940  0.60630  Biso   1.000  P
  P7       1.0000 0.22710  0.65380  0.79580  Biso   1.000  P
  P8       1.0000 0.56190  0.87550  0.80440  Biso   1.000  P
  F3       1.0000 0.45020  0.45800  0.77750  Biso   1.000  F
  F4       1.0000 0.78740  0.59020  0.17350  Biso   1.000  F
  H7       1.0000 0.93600  0.70700  0.05500  Biso   1.000  H
  H8       1.0000 0.97100  0.73400  0.14000  Biso   1.000  H
  H9       1.0000 0.78000  0.51900  0.76800  Biso   1.000  H
  H10      1.0000 0.67100  0.52800  0.69500  Biso   1.000  H
  H11      1.0000 0.87500  0.78000  0.81800  Biso   1.000  H
  H12      1.0000 0.00300  0.71800  0.86100  Biso   1.000  H
  O39      1.0000 0.09030  0.74130  0.28330  Biso   1.000  O
  O40      1.0000 0.18320  0.58590  0.37020  Biso   1.000  O
  O41      1.0000 0.64030  0.88130  0.35500  Biso   1.000  O
  O42      1.0000 0.05170  0.01180  0.09470  Biso   1.000  O
  O43      1.0000 0.82080  0.05080  0.12370  Biso   1.000  O
  O44      1.0000 0.87980  0.85470  0.33500  Biso   1.000  O
  O45      1.0000 0.31440  0.97570  0.51910  Biso   1.000  O
  O46      1.0000 0.84590  0.90140  0.03130  Biso   1.000  O
  O47      1.0000 0.40610  0.95080  0.39720  Biso   1.000  O
  O48      1.0000 0.95060  0.87750  0.17310  Biso   1.000  O
  O49      1.0000 0.69300  0.92020  0.22280  Biso   1.000  O
  O50      1.0000 0.05730  0.54910  0.23360  Biso   1.000  O
  O51      1.0000 0.15310  0.93050  0.39200  Biso   1.000  O
  O52      1.0000 0.93160  0.61250  0.33600  Biso   1.000  O
  O53      1.0000 0.68520  0.72860  0.27260  Biso   1.000  O
  O54      1.0000 0.32000  0.78980  0.46050  Biso   1.000  O
  O55      1.0000 0.48470  0.81680  0.60370  Biso   1.000  O
  O56      1.0000 0.19860  0.94700  0.24400  Biso   1.000  O
  O57      1.0000 0.46020  0.71440  0.35720  Biso   1.000  O
  Fe9      1.0000 0.75420  0.07580  0.22050  Biso   1.000  Fe
  Fe10     1.0000 0.35040  0.64150  0.42740  Biso   1.000  Fe
  Fe11     1.0000 0.43500  0.97610  0.62770  Biso   1.000  Fe
  Fe12     1.0000 0.03520  0.89170  0.28930  Biso   1.000  Fe
  P9       1.0000 0.29890  0.91240  0.44110  Biso   1.000  P
  P10      1.0000 0.91670  0.96060  0.10630  Biso   1.000  P
  P11      1.0000 0.72710  0.84620  0.29580  Biso   1.000  P
  P12      1.0000 0.06190  0.62450  0.30440  Biso   1.000  P
  F5       1.0000 0.95020  0.04200  0.27750  Biso   1.000  F
  F6       1.0000 0.28740  0.90980  0.67350  Biso   1.000  F
  H13      1.0000 0.43600  0.79300  0.55500  Biso   1.000  H
  H14      1.0000 0.47100  0.76600  0.64000  Biso   1.000  H
  H15      1.0000 0.28000  0.98100  0.26800  Biso   1.000  H
  H16      1.0000 0.17100  0.97200  0.19500  Biso   1.000  H
  H17      1.0000 0.37500  0.72000  0.31800  Biso   1.000  H
  H18      1.0000 0.50300  0.78200  0.36100  Biso   1.000  H
  O58      1.0000 0.40970  0.24130  0.21670  Biso   1.000  O
  O59      1.0000 0.31680  0.08590  0.12980  Biso   1.000  O
  O60      1.0000 0.85970  0.38130  0.14500  Biso   1.000  O
  O61      1.0000 0.44830  0.51180  0.40530  Biso   1.000  O
  O62      1.0000 0.67920  0.55080  0.37630  Biso   1.000  O
  O63      1.0000 0.62020  0.35470  0.16500  Biso   1.000  O
  O64      1.0000 0.18560  0.47570  0.98090  Biso   1.000  O
  O65      1.0000 0.65410  0.40140  0.46870  Biso   1.000  O
  O66      1.0000 0.09390  0.45080  0.10280  Biso   1.000  O
  O67      1.0000 0.54940  0.37750  0.32690  Biso   1.000  O
  O68      1.0000 0.80700  0.42020  0.27720  Biso   1.000  O
  O69      1.0000 0.44270  0.04910  0.26640  Biso   1.000  O
  O70      1.0000 0.34690  0.43050  0.10800  Biso   1.000  O
  O71      1.0000 0.56840  0.11250  0.16400  Biso   1.000  O
  O72      1.0000 0.81480  0.22860  0.22740  Biso   1.000  O
  O73      1.0000 0.18000  0.28980  0.03950  Biso   1.000  O
  O74      1.0000 0.01530  0.31680  0.89630  Biso   1.000  O
  O75      1.0000 0.30140  0.44700  0.25600  Biso   1.000  O
  O76      1.0000 0.03980  0.21440  0.14280  Biso   1.000  O
  Fe13     1.0000 0.74580  0.57580  0.27950  Biso   1.000  Fe
  Fe14     1.0000 0.14960  0.14150  0.07260  Biso   1.000  Fe
  Fe15     1.0000 0.06500  0.47610  0.87230  Biso   1.000  Fe
  Fe16     1.0000 0.46480  0.39170  0.21070  Biso   1.000  Fe
  P13      1.0000 0.20110  0.41240  0.05890  Biso   1.000  P
  P14      1.0000 0.58330  0.46060  0.39370  Biso   1.000  P
  P15      1.0000 0.77290  0.34620  0.20420  Biso   1.000  P
  P16      1.0000 0.43810  0.12450  0.19560  Biso   1.000  P
  F7       1.0000 0.54980  0.54200  0.22250  Biso   1.000  F
  F8       1.0000 0.21260  0.40980  0.82650  Biso   1.000  F
  H19      1.0000 0.06400  0.29300  0.94500  Biso   1.000  H
  H20      1.0000 0.02900  0.26600  0.86000  Biso   1.000  H
  H21      1.0000 0.22000  0.48100  0.23200  Biso   1.000  H
  H22      1.0000 0.32900  0.47200  0.30500  Biso   1.000  H
  H23      1.0000 0.12500  0.22000  0.18200  Biso   1.000  H
  H24      1.0000 0.99700  0.28200  0.13900  Biso   1.000  H
