data_image0
_cell_length_a       14.9976
_cell_length_b       16.3181
_cell_length_c       19.6917
_cell_angle_alpha    98.36
_cell_angle_beta     90
_cell_angle_gamma    90

_symmetry_space_group_name_H-M    P 1
_symmetry_int_tables_number       1

loop_
  _symmetry_equiv_pos_as_xyz
  'x, y, z'

loop_
  _atom_site_label
  _atom_site_occupancy
  _atom_site_fract_x
  _atom_site_fract_y
  _atom_site_fract_z
  _atom_site_thermal_displace_type
  _atom_site_B_iso_or_equiv
  _atom_site_type_symbol
  Ni1      1.0000 0.74339  0.87905  0.75686  Biso   1.000  Ni
  Ni2      1.0000 0.74432  0.37515  0.23925  Biso   1.000  Ni
  Ni3      1.0000 0.24339  0.12095  0.74314  Biso   1.000  Ni
  Ni4      1.0000 0.24432  0.62485  0.26075  Biso   1.000  Ni
  Ni5      1.0000 0.25661  0.12095  0.24314  Biso   1.000  Ni
  Ni6      1.0000 0.25568  0.62485  0.76075  Biso   1.000  Ni
  Ni7      1.0000 0.75661  0.87905  0.25686  Biso   1.000  Ni
  Ni8      1.0000 0.75568  0.37515  0.73925  Biso   1.000  Ni
  H1       1.0000 0.75770  0.00690  0.65760  Biso   1.000  H
  H2       1.0000 0.76590  0.00900  0.54070  Biso   1.000  H
  H3       1.0000 0.76850  0.88330  0.46570  Biso   1.000  H
  H4       1.0000 0.76770  0.76270  0.62960  Biso   1.000  H
  H5       1.0000 0.77990  0.72720  0.44850  Biso   1.000  H
  H6       1.0000 0.78440  0.53020  0.54530  Biso   1.000  H
  H7       1.0000 0.77750  0.24880  0.33690  Biso   1.000  H
  H8       1.0000 0.78210  0.24790  0.45360  Biso   1.000  H
  H9       1.0000 0.78340  0.37310  0.52800  Biso   1.000  H
  H10      1.0000 0.78740  0.49320  0.36310  Biso   1.000  H
  H11      1.0000 0.91860  0.82220  0.68630  Biso   1.000  H
  H12      1.0000 0.07020  0.82190  0.70960  Biso   1.000  H
  H13      1.0000 0.12330  0.87490  0.81790  Biso   1.000  H
  H14      1.0000 0.86920  0.93560  0.87270  Biso   1.000  H
  H15      1.0000 0.09090  0.93880  0.93910  Biso   1.000  H
  H16      1.0000 0.56660  0.33280  0.18010  Biso   1.000  H
  H17      1.0000 0.41430  0.33600  0.20500  Biso   1.000  H
  H18      1.0000 0.36650  0.38200  0.31560  Biso   1.000  H
  H19      1.0000 0.62440  0.43610  0.36760  Biso   1.000  H
  H20      1.0000 0.40610  0.44480  0.43930  Biso   1.000  H
  H21      1.0000 0.57560  0.92660  0.83920  Biso   1.000  H
  H22      1.0000 0.42340  0.92880  0.82760  Biso   1.000  H
  H23      1.0000 0.35610  0.87850  0.72340  Biso   1.000  H
  H24      1.0000 0.60280  0.82040  0.64820  Biso   1.000  H
  H25      1.0000 0.37830  0.81850  0.59510  Biso   1.000  H
  H26      1.0000 0.56320  0.69920  0.47360  Biso   1.000  H
  H27      1.0000 0.43130  0.58210  0.20970  Biso   1.000  H
  H28      1.0000 0.57830  0.59120  0.24490  Biso   1.000  H
  H29      1.0000 0.61130  0.64220  0.35760  Biso   1.000  H
  H30      1.0000 0.34810  0.68120  0.39200  Biso   1.000  H
  H31      1.0000 0.25770  0.99310  0.84240  Biso   1.000  H
  H32      1.0000 0.26590  0.99100  0.95930  Biso   1.000  H
  H33      1.0000 0.26850  0.11670  0.03430  Biso   1.000  H
  H34      1.0000 0.26770  0.23730  0.87040  Biso   1.000  H
  H35      1.0000 0.27990  0.27280  0.05150  Biso   1.000  H
  H36      1.0000 0.28440  0.46980  0.95470  Biso   1.000  H
  H37      1.0000 0.27750  0.75120  0.16310  Biso   1.000  H
  H38      1.0000 0.28210  0.75210  0.04640  Biso   1.000  H
  H39      1.0000 0.28340  0.62690  0.97200  Biso   1.000  H
  H40      1.0000 0.28740  0.50680  0.13690  Biso   1.000  H
  H41      1.0000 0.41860  0.17780  0.81370  Biso   1.000  H
  H42      1.0000 0.57020  0.17810  0.79040  Biso   1.000  H
  H43      1.0000 0.62330  0.12510  0.68210  Biso   1.000  H
  H44      1.0000 0.36920  0.06440  0.62730  Biso   1.000  H
  H45      1.0000 0.59090  0.06120  0.56090  Biso   1.000  H
  H46      1.0000 0.06660  0.66720  0.31990  Biso   1.000  H
  H47      1.0000 0.91430  0.66400  0.29500  Biso   1.000  H
  H48      1.0000 0.86650  0.61800  0.18440  Biso   1.000  H
  H49      1.0000 0.12440  0.56390  0.13240  Biso   1.000  H
  H50      1.0000 0.90610  0.55520  0.06070  Biso   1.000  H
  H51      1.0000 0.07560  0.07340  0.66080  Biso   1.000  H
  H52      1.0000 0.92340  0.07120  0.67240  Biso   1.000  H
  H53      1.0000 0.85610  0.12150  0.77660  Biso   1.000  H
  H54      1.0000 0.10280  0.17960  0.85180  Biso   1.000  H
  H55      1.0000 0.87830  0.18150  0.90490  Biso   1.000  H
  H56      1.0000 0.06320  0.30080  0.02640  Biso   1.000  H
  H57      1.0000 0.93130  0.41790  0.29030  Biso   1.000  H
  H58      1.0000 0.07830  0.40880  0.25510  Biso   1.000  H
  H59      1.0000 0.11130  0.35780  0.14240  Biso   1.000  H
  H60      1.0000 0.84810  0.31880  0.10800  Biso   1.000  H
  H61      1.0000 0.24230  0.99310  0.34240  Biso   1.000  H
  H62      1.0000 0.23410  0.99100  0.45930  Biso   1.000  H
  H63      1.0000 0.23150  0.11670  0.53430  Biso   1.000  H
  H64      1.0000 0.23230  0.23730  0.37040  Biso   1.000  H
  H65      1.0000 0.22010  0.27280  0.55150  Biso   1.000  H
  H66      1.0000 0.21560  0.46980  0.45470  Biso   1.000  H
  H67      1.0000 0.22250  0.75120  0.66310  Biso   1.000  H
  H68      1.0000 0.21790  0.75210  0.54640  Biso   1.000  H
  H69      1.0000 0.21660  0.62690  0.47200  Biso   1.000  H
  H70      1.0000 0.21260  0.50680  0.63690  Biso   1.000  H
  H71      1.0000 0.08140  0.17780  0.31370  Biso   1.000  H
  H72      1.0000 0.92980  0.17810  0.29040  Biso   1.000  H
  H73      1.0000 0.87670  0.12510  0.18210  Biso   1.000  H
  H74      1.0000 0.13080  0.06440  0.12730  Biso   1.000  H
  H75      1.0000 0.90910  0.06120  0.06090  Biso   1.000  H
  H76      1.0000 0.43340  0.66720  0.81990  Biso   1.000  H
  H77      1.0000 0.58570  0.66400  0.79500  Biso   1.000  H
  H78      1.0000 0.63350  0.61800  0.68440  Biso   1.000  H
  H79      1.0000 0.37560  0.56390  0.63240  Biso   1.000  H
  H80      1.0000 0.59390  0.55520  0.56070  Biso   1.000  H
  H81      1.0000 0.42440  0.07340  0.16080  Biso   1.000  H
  H82      1.0000 0.57660  0.07120  0.17240  Biso   1.000  H
  H83      1.0000 0.64390  0.12150  0.27660  Biso   1.000  H
  H84      1.0000 0.39720  0.17960  0.35180  Biso   1.000  H
  H85      1.0000 0.62170  0.18150  0.40490  Biso   1.000  H
  H86      1.0000 0.43680  0.30080  0.52640  Biso   1.000  H
  H87      1.0000 0.56870  0.41790  0.79030  Biso   1.000  H
  H88      1.0000 0.42170  0.40880  0.75510  Biso   1.000  H
  H89      1.0000 0.38870  0.35780  0.64240  Biso   1.000  H
  H90      1.0000 0.65190  0.31880  0.60800  Biso   1.000  H
  H91      1.0000 0.74230  0.00690  0.15760  Biso   1.000  H
  H92      1.0000 0.73410  0.00900  0.04070  Biso   1.000  H
  H93      1.0000 0.73150  0.88330  0.96570  Biso   1.000  H
  H94      1.0000 0.73230  0.76270  0.12960  Biso   1.000  H
  H95      1.0000 0.72010  0.72720  0.94850  Biso   1.000  H
  H96      1.0000 0.71560  0.53020  0.04530  Biso   1.000  H
  H97      1.0000 0.72250  0.24880  0.83690  Biso   1.000  H
  H98      1.0000 0.71790  0.24790  0.95360  Biso   1.000  H
  H99      1.0000 0.71660  0.37310  0.02800  Biso   1.000  H
  H100     1.0000 0.71260  0.49320  0.86310  Biso   1.000  H
  H101     1.0000 0.58140  0.82220  0.18630  Biso   1.000  H
  H102     1.0000 0.42980  0.82190  0.20960  Biso   1.000  H
  H103     1.0000 0.37670  0.87490  0.31790  Biso   1.000  H
  H104     1.0000 0.63080  0.93560  0.37270  Biso   1.000  H
  H105     1.0000 0.40910  0.93880  0.43910  Biso   1.000  H
  H106     1.0000 0.93340  0.33280  0.68010  Biso   1.000  H
  H107     1.0000 0.08570  0.33600  0.70500  Biso   1.000  H
  H108     1.0000 0.13350  0.38200  0.81560  Biso   1.000  H
  H109     1.0000 0.87560  0.43610  0.86760  Biso   1.000  H
  H110     1.0000 0.09390  0.44480  0.93930  Biso   1.000  H
  H111     1.0000 0.92440  0.92660  0.33920  Biso   1.000  H
  H112     1.0000 0.07660  0.92880  0.32760  Biso   1.000  H
  H113     1.0000 0.14390  0.87850  0.22340  Biso   1.000  H
  H114     1.0000 0.89720  0.82040  0.14820  Biso   1.000  H
  H115     1.0000 0.12170  0.81850  0.09510  Biso   1.000  H
  H116     1.0000 0.93680  0.69920  0.97360  Biso   1.000  H
  H117     1.0000 0.06870  0.58210  0.70970  Biso   1.000  H
  H118     1.0000 0.92170  0.59120  0.74490  Biso   1.000  H
  H119     1.0000 0.88870  0.64220  0.85760  Biso   1.000  H
  H120     1.0000 0.15190  0.68120  0.89200  Biso   1.000  H
  C1       1.0000 0.76090  0.95590  0.62740  Biso   1.000  C
  C2       1.0000 0.76470  0.95770  0.55810  Biso   1.000  C
  C3       1.0000 0.76690  0.88360  0.51390  Biso   1.000  C
  C4       1.0000 0.76670  0.81000  0.54090  Biso   1.000  C
  C5       1.0000 0.76550  0.81320  0.61090  Biso   1.000  C
  C6       1.0000 0.76930  0.72940  0.49630  Biso   1.000  C
  C7       1.0000 0.77680  0.52730  0.49710  Biso   1.000  C
  C8       1.0000 0.77930  0.30010  0.36670  Biso   1.000  C
  C9       1.0000 0.78140  0.29900  0.43600  Biso   1.000  C
  C10      1.0000 0.78230  0.37260  0.47970  Biso   1.000  C
  C11      1.0000 0.78170  0.44650  0.45210  Biso   1.000  C
  C12      1.0000 0.78350  0.44300  0.38200  Biso   1.000  C
  C13      1.0000 0.93950  0.84630  0.73030  Biso   1.000  C
  C14      1.0000 0.02980  0.84500  0.74440  Biso   1.000  C
  C15      1.0000 0.06150  0.87660  0.80770  Biso   1.000  C
  C16      1.0000 0.00100  0.91140  0.85670  Biso   1.000  C
  C17      1.0000 0.91080  0.91190  0.83910  Biso   1.000  C
  C18      1.0000 0.03090  0.94660  0.92600  Biso   1.000  C
  C19      1.0000 0.54740  0.35450  0.22510  Biso   1.000  C
  C20      1.0000 0.45620  0.35520  0.23990  Biso   1.000  C
  C21      1.0000 0.42800  0.38350  0.30440  Biso   1.000  C
  C22      1.0000 0.49060  0.41500  0.35440  Biso   1.000  C
  C23      1.0000 0.58110  0.41400  0.33480  Biso   1.000  C
  C24      1.0000 0.46620  0.45010  0.42530  Biso   1.000  C
  C25      1.0000 0.54990  0.90490  0.79620  Biso   1.000  C
  C26      1.0000 0.45900  0.90650  0.78950  Biso   1.000  C
  C27      1.0000 0.41900  0.87660  0.72870  Biso   1.000  C
  C28      1.0000 0.47360  0.84320  0.67470  Biso   1.000  C
  C29      1.0000 0.56550  0.84330  0.68520  Biso   1.000  C
  C30      1.0000 0.43860  0.80910  0.60660  Biso   1.000  C
  C31      1.0000 0.50360  0.70360  0.45810  Biso   1.000  C
  C32      1.0000 0.44430  0.60500  0.25580  Biso   1.000  C
  C33      1.0000 0.53200  0.60930  0.27640  Biso   1.000  C
  C34      1.0000 0.55120  0.63980  0.34220  Biso   1.000  C
  C35      1.0000 0.48270  0.66770  0.38760  Biso   1.000  C
  C36      1.0000 0.39570  0.66210  0.36200  Biso   1.000  C
  C37      1.0000 0.26090  0.04410  0.87260  Biso   1.000  C
  C38      1.0000 0.26470  0.04230  0.94190  Biso   1.000  C
  C39      1.0000 0.26690  0.11640  0.98610  Biso   1.000  C
  C40      1.0000 0.26670  0.19000  0.95910  Biso   1.000  C
  C41      1.0000 0.26550  0.18680  0.88910  Biso   1.000  C
  C42      1.0000 0.26930  0.27060  0.00370  Biso   1.000  C
  C43      1.0000 0.27680  0.47270  0.00290  Biso   1.000  C
  C44      1.0000 0.27930  0.69990  0.13330  Biso   1.000  C
  C45      1.0000 0.28140  0.70100  0.06400  Biso   1.000  C
  C46      1.0000 0.28230  0.62740  0.02030  Biso   1.000  C
  C47      1.0000 0.28170  0.55350  0.04790  Biso   1.000  C
  C48      1.0000 0.28350  0.55700  0.11800  Biso   1.000  C
  C49      1.0000 0.43950  0.15370  0.76970  Biso   1.000  C
  C50      1.0000 0.52980  0.15500  0.75560  Biso   1.000  C
  C51      1.0000 0.56150  0.12340  0.69230  Biso   1.000  C
  C52      1.0000 0.50100  0.08860  0.64330  Biso   1.000  C
  C53      1.0000 0.41080  0.08810  0.66090  Biso   1.000  C
  C54      1.0000 0.53090  0.05340  0.57400  Biso   1.000  C
  C55      1.0000 0.04740  0.64550  0.27490  Biso   1.000  C
  C56      1.0000 0.95620  0.64480  0.26010  Biso   1.000  C
  C57      1.0000 0.92800  0.61650  0.19560  Biso   1.000  C
  C58      1.0000 0.99060  0.58500  0.14560  Biso   1.000  C
  C59      1.0000 0.08110  0.58600  0.16520  Biso   1.000  C
  C60      1.0000 0.96620  0.54990  0.07470  Biso   1.000  C
  C61      1.0000 0.04990  0.09510  0.70380  Biso   1.000  C
  C62      1.0000 0.95900  0.09350  0.71050  Biso   1.000  C
  C63      1.0000 0.91900  0.12340  0.77130  Biso   1.000  C
  C64      1.0000 0.97360  0.15680  0.82530  Biso   1.000  C
  C65      1.0000 0.06550  0.15670  0.81480  Biso   1.000  C
  C66      1.0000 0.93860  0.19090  0.89340  Biso   1.000  C
  C67      1.0000 0.00360  0.29640  0.04190  Biso   1.000  C
  C68      1.0000 0.94430  0.39500  0.24420  Biso   1.000  C
  C69      1.0000 0.03200  0.39070  0.22360  Biso   1.000  C
  C70      1.0000 0.05120  0.36020  0.15780  Biso   1.000  C
  C71      1.0000 0.98270  0.33230  0.11240  Biso   1.000  C
  C72      1.0000 0.89570  0.33790  0.13800  Biso   1.000  C
  C73      1.0000 0.23910  0.04410  0.37260  Biso   1.000  C
  C74      1.0000 0.23530  0.04230  0.44190  Biso   1.000  C
  C75      1.0000 0.23310  0.11640  0.48610  Biso   1.000  C
  C76      1.0000 0.23330  0.19000  0.45910  Biso   1.000  C
  C77      1.0000 0.23450  0.18680  0.38910  Biso   1.000  C
  C78      1.0000 0.23070  0.27060  0.50370  Biso   1.000  C
  C79      1.0000 0.22320  0.47270  0.50290  Biso   1.000  C
  C80      1.0000 0.22070  0.69990  0.63330  Biso   1.000  C
  C81      1.0000 0.21860  0.70100  0.56400  Biso   1.000  C
  C82      1.0000 0.21770  0.62740  0.52030  Biso   1.000  C
  C83      1.0000 0.21830  0.55350  0.54790  Biso   1.000  C
  C84      1.0000 0.21650  0.55700  0.61800  Biso   1.000  C
  C85      1.0000 0.06050  0.15370  0.26970  Biso   1.000  C
  C86      1.0000 0.97020  0.15500  0.25560  Biso   1.000  C
  C87      1.0000 0.93850  0.12340  0.19230  Biso   1.000  C
  C88      1.0000 0.99900  0.08860  0.14330  Biso   1.000  C
  C89      1.0000 0.08920  0.08810  0.16090  Biso   1.000  C
  C90      1.0000 0.96910  0.05340  0.07400  Biso   1.000  C
  C91      1.0000 0.45260  0.64550  0.77490  Biso   1.000  C
  C92      1.0000 0.54380  0.64480  0.76010  Biso   1.000  C
  C93      1.0000 0.57200  0.61650  0.69560  Biso   1.000  C
  C94      1.0000 0.50940  0.58500  0.64560  Biso   1.000  C
  C95      1.0000 0.41890  0.58600  0.66520  Biso   1.000  C
  C96      1.0000 0.53380  0.54990  0.57470  Biso   1.000  C
  C97      1.0000 0.45010  0.09510  0.20380  Biso   1.000  C
  C98      1.0000 0.54100  0.09350  0.21050  Biso   1.000  C
  C99      1.0000 0.58100  0.12340  0.27130  Biso   1.000  C
  C100     1.0000 0.52640  0.15680  0.32530  Biso   1.000  C
  C101     1.0000 0.43450  0.15670  0.31480  Biso   1.000  C
  C102     1.0000 0.56140  0.19090  0.39340  Biso   1.000  C
  C103     1.0000 0.49640  0.29640  0.54190  Biso   1.000  C
  C104     1.0000 0.55570  0.39500  0.74420  Biso   1.000  C
  C105     1.0000 0.46800  0.39070  0.72360  Biso   1.000  C
  C106     1.0000 0.44880  0.36020  0.65780  Biso   1.000  C
  C107     1.0000 0.51730  0.33230  0.61240  Biso   1.000  C
  C108     1.0000 0.60430  0.33790  0.63800  Biso   1.000  C
  C109     1.0000 0.73910  0.95590  0.12740  Biso   1.000  C
  C110     1.0000 0.73530  0.95770  0.05810  Biso   1.000  C
  C111     1.0000 0.73310  0.88360  0.01390  Biso   1.000  C
  C112     1.0000 0.73330  0.81000  0.04090  Biso   1.000  C
  C113     1.0000 0.73450  0.81320  0.11090  Biso   1.000  C
  C114     1.0000 0.73070  0.72940  0.99630  Biso   1.000  C
  C115     1.0000 0.72320  0.52730  0.99710  Biso   1.000  C
  C116     1.0000 0.72070  0.30010  0.86670  Biso   1.000  C
  C117     1.0000 0.71860  0.29900  0.93600  Biso   1.000  C
  C118     1.0000 0.71770  0.37260  0.97970  Biso   1.000  C
  C119     1.0000 0.71830  0.44650  0.95210  Biso   1.000  C
  C120     1.0000 0.71650  0.44300  0.88200  Biso   1.000  C
  C121     1.0000 0.56050  0.84630  0.23030  Biso   1.000  C
  C122     1.0000 0.47020  0.84500  0.24440  Biso   1.000  C
  C123     1.0000 0.43850  0.87660  0.30770  Biso   1.000  C
  C124     1.0000 0.49900  0.91140  0.35670  Biso   1.000  C
  C125     1.0000 0.58920  0.91190  0.33910  Biso   1.000  C
  C126     1.0000 0.46910  0.94660  0.42600  Biso   1.000  C
  C127     1.0000 0.95260  0.35450  0.72510  Biso   1.000  C
  C128     1.0000 0.04380  0.35520  0.73990  Biso   1.000  C
  C129     1.0000 0.07200  0.38350  0.80440  Biso   1.000  C
  C130     1.0000 0.00940  0.41500  0.85440  Biso   1.000  C
  C131     1.0000 0.91890  0.41400  0.83480  Biso   1.000  C
  C132     1.0000 0.03380  0.45010  0.92530  Biso   1.000  C
  C133     1.0000 0.95010  0.90490  0.29620  Biso   1.000  C
  C134     1.0000 0.04100  0.90650  0.28950  Biso   1.000  C
  C135     1.0000 0.08100  0.87660  0.22870  Biso   1.000  C
  C136     1.0000 0.02640  0.84320  0.17470  Biso   1.000  C
  C137     1.0000 0.93450  0.84330  0.18520  Biso   1.000  C
  C138     1.0000 0.06140  0.80910  0.10660  Biso   1.000  C
  C139     1.0000 0.99640  0.70360  0.95810  Biso   1.000  C
  C140     1.0000 0.05570  0.60500  0.75580  Biso   1.000  C
  C141     1.0000 0.96800  0.60930  0.77640  Biso   1.000  C
  C142     1.0000 0.94880  0.63980  0.84220  Biso   1.000  C
  C143     1.0000 0.01730  0.66770  0.88760  Biso   1.000  C
  C144     1.0000 0.10430  0.66210  0.86200  Biso   1.000  C
  N1       1.0000 0.76130  0.88500  0.65420  Biso   1.000  N
  N2       1.0000 0.75740  0.66260  0.52140  Biso   1.000  N
  N3       1.0000 0.76220  0.59260  0.47110  Biso   1.000  N
  N4       1.0000 0.77980  0.37070  0.33910  Biso   1.000  N
  N5       1.0000 0.88090  0.88080  0.77730  Biso   1.000  N
  N6       1.0000 0.97880  0.98660  0.96790  Biso   1.000  N
  N7       1.0000 0.60790  0.38290  0.27130  Biso   1.000  N
  N8       1.0000 0.52000  0.48660  0.46820  Biso   1.000  N
  N9       1.0000 0.60370  0.87400  0.74480  Biso   1.000  N
  N10      1.0000 0.48900  0.76740  0.56380  Biso   1.000  N
  N11      1.0000 0.44820  0.73980  0.49960  Biso   1.000  N
  N12      1.0000 0.37650  0.63130  0.29750  Biso   1.000  N
  N13      1.0000 0.73760  0.74720  0.80790  Biso   1.000  N
  N14      1.0000 0.72270  0.03820  0.84490  Biso   1.000  N
  N15      1.0000 0.72050  0.50450  0.18710  Biso   1.000  N
  N16      1.0000 0.71710  0.21780  0.15170  Biso   1.000  N
  N17      1.0000 0.26130  0.11500  0.84580  Biso   1.000  N
  N18      1.0000 0.25740  0.33740  0.97860  Biso   1.000  N
  N19      1.0000 0.26220  0.40740  0.02890  Biso   1.000  N
  N20      1.0000 0.27980  0.62930  0.16090  Biso   1.000  N
  N21      1.0000 0.38090  0.11920  0.72270  Biso   1.000  N
  N22      1.0000 0.47880  0.01340  0.53210  Biso   1.000  N
  N23      1.0000 0.10790  0.61710  0.22870  Biso   1.000  N
  N24      1.0000 0.02000  0.51340  0.03180  Biso   1.000  N
  N25      1.0000 0.10370  0.12600  0.75520  Biso   1.000  N
  N26      1.0000 0.98900  0.23260  0.93620  Biso   1.000  N
  N27      1.0000 0.94820  0.26020  0.00040  Biso   1.000  N
  N28      1.0000 0.87650  0.36870  0.20250  Biso   1.000  N
  N29      1.0000 0.23760  0.25280  0.69210  Biso   1.000  N
  N30      1.0000 0.22270  0.96180  0.65510  Biso   1.000  N
  N31      1.0000 0.22050  0.49550  0.31290  Biso   1.000  N
  N32      1.0000 0.21710  0.78220  0.34830  Biso   1.000  N
  N33      1.0000 0.23870  0.11500  0.34580  Biso   1.000  N
  N34      1.0000 0.24260  0.33740  0.47860  Biso   1.000  N
  N35      1.0000 0.23780  0.40740  0.52890  Biso   1.000  N
  N36      1.0000 0.22020  0.62930  0.66090  Biso   1.000  N
  N37      1.0000 0.11910  0.11920  0.22270  Biso   1.000  N
  N38      1.0000 0.02120  0.01340  0.03210  Biso   1.000  N
  N39      1.0000 0.39210  0.61710  0.72870  Biso   1.000  N
  N40      1.0000 0.48000  0.51340  0.53180  Biso   1.000  N
  N41      1.0000 0.39630  0.12600  0.25520  Biso   1.000  N
  N42      1.0000 0.51100  0.23260  0.43620  Biso   1.000  N
  N43      1.0000 0.55180  0.26020  0.50040  Biso   1.000  N
  N44      1.0000 0.62350  0.36870  0.70250  Biso   1.000  N
  N45      1.0000 0.26240  0.25280  0.19210  Biso   1.000  N
  N46      1.0000 0.27730  0.96180  0.15510  Biso   1.000  N
  N47      1.0000 0.27950  0.49550  0.81290  Biso   1.000  N
  N48      1.0000 0.28290  0.78220  0.84830  Biso   1.000  N
  N49      1.0000 0.73870  0.88500  0.15420  Biso   1.000  N
  N50      1.0000 0.74260  0.66260  0.02140  Biso   1.000  N
  N51      1.0000 0.73780  0.59260  0.97110  Biso   1.000  N
  N52      1.0000 0.72020  0.37070  0.83910  Biso   1.000  N
  N53      1.0000 0.61910  0.88080  0.27730  Biso   1.000  N
  N54      1.0000 0.52120  0.98660  0.46790  Biso   1.000  N
  N55      1.0000 0.89210  0.38290  0.77130  Biso   1.000  N
  N56      1.0000 0.98000  0.48660  0.96820  Biso   1.000  N
  N57      1.0000 0.89630  0.87400  0.24480  Biso   1.000  N
  N58      1.0000 0.01100  0.76740  0.06380  Biso   1.000  N
  N59      1.0000 0.05180  0.73980  0.99960  Biso   1.000  N
  N60      1.0000 0.12350  0.63130  0.79750  Biso   1.000  N
  N61      1.0000 0.76240  0.74720  0.30790  Biso   1.000  N
  N62      1.0000 0.77730  0.03820  0.34490  Biso   1.000  N
  N63      1.0000 0.77950  0.50450  0.68710  Biso   1.000  N
  N64      1.0000 0.78290  0.21780  0.65170  Biso   1.000  N
  O1       1.0000 0.72740  0.81790  0.84524  Biso   1.000  O
  O2       1.0000 0.74920  0.74980  0.74412  Biso   1.000  O
  O3       1.0000 0.73700  0.68240  0.83150  Biso   1.000  O
  O4       1.0000 0.73630  0.00440  0.78257  Biso   1.000  O
  O5       1.0000 0.71270  0.99440  0.88980  Biso   1.000  O
  O6       1.0000 0.71900  0.11430  0.85690  Biso   1.000  O
  O7       1.0000 0.74840  0.50460  0.24800  Biso   1.000  O
  O8       1.0000 0.70680  0.43370  0.15274  Biso   1.000  O
  O9       1.0000 0.70750  0.56900  0.16320  Biso   1.000  O
  O10      1.0000 0.73610  0.24950  0.21320  Biso   1.000  O
  O11      1.0000 0.69050  0.26220  0.11050  Biso   1.000  O
  O12      1.0000 0.72700  0.14250  0.13600  Biso   1.000  O
  O13      1.0000 0.22740  0.18210  0.65476  Biso   1.000  O
  O14      1.0000 0.24920  0.25020  0.75588  Biso   1.000  O
  O15      1.0000 0.23700  0.31760  0.66850  Biso   1.000  O
  O16      1.0000 0.23630  0.99560  0.71743  Biso   1.000  O
  O17      1.0000 0.21270  0.00560  0.61020  Biso   1.000  O
  O18      1.0000 0.21900  0.88570  0.64310  Biso   1.000  O
  O19      1.0000 0.24840  0.49540  0.25200  Biso   1.000  O
  O20      1.0000 0.20680  0.56630  0.34726  Biso   1.000  O
  O21      1.0000 0.20750  0.43100  0.33680  Biso   1.000  O
  O22      1.0000 0.23610  0.75050  0.28680  Biso   1.000  O
  O23      1.0000 0.19050  0.73780  0.38950  Biso   1.000  O
  O24      1.0000 0.22700  0.85750  0.36400  Biso   1.000  O
  O25      1.0000 0.27260  0.18210  0.15476  Biso   1.000  O
  O26      1.0000 0.25080  0.25020  0.25588  Biso   1.000  O
  O27      1.0000 0.26300  0.31760  0.16850  Biso   1.000  O
  O28      1.0000 0.26370  0.99560  0.21743  Biso   1.000  O
  O29      1.0000 0.28730  0.00560  0.11020  Biso   1.000  O
  O30      1.0000 0.28100  0.88570  0.14310  Biso   1.000  O
  O31      1.0000 0.25160  0.49540  0.75200  Biso   1.000  O
  O32      1.0000 0.29320  0.56630  0.84726  Biso   1.000  O
  O33      1.0000 0.29250  0.43100  0.83680  Biso   1.000  O
  O34      1.0000 0.26390  0.75050  0.78680  Biso   1.000  O
  O35      1.0000 0.30950  0.73780  0.88950  Biso   1.000  O
  O36      1.0000 0.27300  0.85750  0.86400  Biso   1.000  O
  O37      1.0000 0.77260  0.81790  0.34524  Biso   1.000  O
  O38      1.0000 0.75080  0.74980  0.24412  Biso   1.000  O
  O39      1.0000 0.76300  0.68240  0.33150  Biso   1.000  O
  O40      1.0000 0.76370  0.00440  0.28257  Biso   1.000  O
  O41      1.0000 0.78730  0.99440  0.38980  Biso   1.000  O
  O42      1.0000 0.78100  0.11430  0.35690  Biso   1.000  O
  O43      1.0000 0.75160  0.50460  0.74800  Biso   1.000  O
  O44      1.0000 0.79320  0.43370  0.65274  Biso   1.000  O
  O45      1.0000 0.79250  0.56900  0.66320  Biso   1.000  O
  O46      1.0000 0.76390  0.24950  0.71320  Biso   1.000  O
  O47      1.0000 0.80950  0.26220  0.61050  Biso   1.000  O
  O48      1.0000 0.77300  0.14250  0.63600  Biso   1.000  O
