data_image0
_cell_length_a       7.324
_cell_length_b       9.6503
_cell_length_c       11.409
_cell_angle_alpha    97.0914
_cell_angle_beta     90
_cell_angle_gamma    112.301

_symmetry_space_group_name_H-M    P 1
_symmetry_int_tables_number       1

loop_
  _symmetry_equiv_pos_as_xyz
  'x, y, z'

loop_
  _atom_site_label
  _atom_site_occupancy
  _atom_site_fract_x
  _atom_site_fract_y
  _atom_site_fract_z
  _atom_site_thermal_displace_type
  _atom_site_B_iso_or_equiv
  _atom_site_type_symbol
  Co1      1.0000 0.59524  0.49808  0.50310  Biso   1.000  Co
  Co2      1.0000 0.09716  0.50192  0.49690  Biso   1.000  Co
  H1       1.0000 0.86700  0.02740  0.39030  Biso   1.000  H
  H2       1.0000 0.41140  0.28580  0.26980  Biso   1.000  H
  H3       1.0000 0.40820  0.28040  0.06810  Biso   1.000  H
  H4       1.0000 0.77890  0.71680  0.11590  Biso   1.000  H
  H5       1.0000 0.77040  0.70980  0.31550  Biso   1.000  H
  H6       1.0000 0.60070  0.70380  0.73320  Biso   1.000  H
  H7       1.0000 0.61240  0.71520  0.93290  Biso   1.000  H
  H8       1.0000 0.58490  0.28600  0.88920  Biso   1.000  H
  H9       1.0000 0.58910  0.29400  0.69000  Biso   1.000  H
  H10      1.0000 0.20870  0.00440  0.39820  Biso   1.000  H
  H11      1.0000 0.83960  0.97260  0.60970  Biso   1.000  H
  H12      1.0000 0.12560  0.71420  0.73020  Biso   1.000  H
  H13      1.0000 0.12780  0.71960  0.93190  Biso   1.000  H
  H14      1.0000 0.06210  0.28320  0.88410  Biso   1.000  H
  H15      1.0000 0.06060  0.29020  0.68450  Biso   1.000  H
  H16      1.0000 0.89690  0.29620  0.26680  Biso   1.000  H
  H17      1.0000 0.89720  0.28480  0.06710  Biso   1.000  H
  H18      1.0000 0.29890  0.71400  0.11080  Biso   1.000  H
  H19      1.0000 0.29510  0.70600  0.31000  Biso   1.000  H
  H20      1.0000 0.20430  0.99560  0.60180  Biso   1.000  H
  C1       1.0000 0.48690  0.37280  0.23800  Biso   1.000  C
  C2       1.0000 0.48310  0.36900  0.11660  Biso   1.000  C
  C3       1.0000 0.59340  0.50020  0.06680  Biso   1.000  C
  C4       1.0000 0.70280  0.62780  0.14480  Biso   1.000  C
  C5       1.0000 0.69840  0.62240  0.26500  Biso   1.000  C
  C6       1.0000 0.60110  0.62000  0.76570  Biso   1.000  C
  C7       1.0000 0.60390  0.62700  0.88570  Biso   1.000  C
  C8       1.0000 0.59370  0.50020  0.93730  Biso   1.000  C
  C9       1.0000 0.58950  0.37280  0.85960  Biso   1.000  C
  C10      1.0000 0.59220  0.37880  0.73970  Biso   1.000  C
  C11      1.0000 0.19900  0.20920  0.46750  Biso   1.000  C
  C12      1.0000 0.11120  0.03540  0.44070  Biso   1.000  C
  C13      1.0000 0.11410  0.62720  0.76200  Biso   1.000  C
  C14      1.0000 0.11410  0.63100  0.88340  Biso   1.000  C
  C15      1.0000 0.09320  0.49980  0.93320  Biso   1.000  C
  C16      1.0000 0.07500  0.37220  0.85520  Biso   1.000  C
  C17      1.0000 0.07600  0.37760  0.73500  Biso   1.000  C
  C18      1.0000 0.98110  0.38000  0.23430  Biso   1.000  C
  C19      1.0000 0.97690  0.37300  0.11430  Biso   1.000  C
  C20      1.0000 0.09350  0.49980  0.06270  Biso   1.000  C
  C21      1.0000 0.21670  0.62720  0.14040  Biso   1.000  C
  C22      1.0000 0.21340  0.62120  0.26030  Biso   1.000  C
  C23      1.0000 0.98980  0.79080  0.53250  Biso   1.000  C
  C24      1.0000 0.07580  0.96460  0.55930  Biso   1.000  C
  N1       1.0000 0.59890  0.49880  0.69050  Biso   1.000  N
  N2       1.0000 0.59520  0.49720  0.31230  Biso   1.000  N
  N3       1.0000 0.10010  0.50120  0.30950  Biso   1.000  N
  N4       1.0000 0.09800  0.50280  0.68770  Biso   1.000  N
  O1       1.0000 0.38500  0.26960  0.48900  Biso   1.000  O
  O2       1.0000 0.08110  0.27400  0.46530  Biso   1.000  O
  O3       1.0000 0.93600  0.98000  0.36880  Biso   1.000  O
  O4       1.0000 0.11540  0.73040  0.51100  Biso   1.000  O
  O5       1.0000 0.80710  0.72600  0.53470  Biso   1.000  O
  O6       1.0000 0.95600  0.02000  0.63120  Biso   1.000  O
  F1       1.0000 0.79979  0.40658  0.48940  Biso   1.000  F
  F2       1.0000 0.39321  0.59342  0.51060  Biso   1.000  F
