data_image0
_cell_length_a       7.31667
_cell_length_b       9.6202
_cell_length_c       11.3957
_cell_angle_alpha    96.9143
_cell_angle_beta     90
_cell_angle_gamma    112.351

_symmetry_space_group_name_H-M    P 1
_symmetry_int_tables_number       1

loop_
  _symmetry_equiv_pos_as_xyz
  'x, y, z'

loop_
  _atom_site_label
  _atom_site_occupancy
  _atom_site_fract_x
  _atom_site_fract_y
  _atom_site_fract_z
  _atom_site_thermal_displace_type
  _atom_site_B_iso_or_equiv
  _atom_site_type_symbol
  Co1      1.0000 0.94134  0.50230  0.99650  Biso   1.000  Co
  Co2      1.0000 0.43904  0.49770  0.00350  Biso   1.000  Co
  H1       1.0000 0.93410  0.29380  0.76850  Biso   1.000  H
  H2       1.0000 0.92800  0.28640  0.56440  Biso   1.000  H
  H3       1.0000 0.95000  0.71660  0.60820  Biso   1.000  H
  H4       1.0000 0.94410  0.70920  0.81130  Biso   1.000  H
  H5       1.0000 0.12630  0.71840  0.22940  Biso   1.000  H
  H6       1.0000 0.12850  0.72380  0.43290  Biso   1.000  H
  H7       1.0000 0.75500  0.28240  0.38580  Biso   1.000  H
  H8       1.0000 0.76600  0.28920  0.18320  Biso   1.000  H
  H9       1.0000 0.32620  0.99700  0.10200  Biso   1.000  H
  H10      1.0000 0.57800  0.97800  0.19370  Biso   1.000  H
  H11      1.0000 0.64030  0.70620  0.23150  Biso   1.000  H
  H12      1.0000 0.64160  0.71360  0.43560  Biso   1.000  H
  H13      1.0000 0.23340  0.28340  0.39180  Biso   1.000  H
  H14      1.0000 0.23490  0.29080  0.18870  Biso   1.000  H
  H15      1.0000 0.40790  0.28160  0.77060  Biso   1.000  H
  H16      1.0000 0.40470  0.27620  0.56710  Biso   1.000  H
  H17      1.0000 0.47260  0.71760  0.61420  Biso   1.000  H
  H18      1.0000 0.47680  0.71080  0.81680  Biso   1.000  H
  H19      1.0000 0.32920  0.00300  0.89800  Biso   1.000  H
  H20      1.0000 0.60000  0.02200  0.80630  Biso   1.000  H
  C1       1.0000 0.93603  0.38026  0.73540  Biso   1.000  C
  C2       1.0000 0.93476  0.37552  0.61340  Biso   1.000  C
  C3       1.0000 0.94344  0.50288  0.56340  Biso   1.000  C
  C4       1.0000 0.94622  0.62824  0.63910  Biso   1.000  C
  C5       1.0000 0.94344  0.62308  0.76050  Biso   1.000  C
  C6       1.0000 0.04978  0.62876  0.26180  Biso   1.000  C
  C7       1.0000 0.05240  0.63280  0.38360  Biso   1.000  C
  C8       1.0000 0.94321  0.50322  0.43360  Biso   1.000  C
  C9       1.0000 0.83334  0.37348  0.35590  Biso   1.000  C
  C10      1.0000 0.83962  0.37884  0.23480  Biso   1.000  C
  C11      1.0000 0.33804  0.79008  0.03200  Biso   1.000  C
  C12      1.0000 0.42531  0.96522  0.05830  Biso   1.000  C
  C13      1.0000 0.55577  0.61974  0.26460  Biso   1.000  C
  C14      1.0000 0.55924  0.62448  0.38660  Biso   1.000  C
  C15      1.0000 0.44056  0.49712  0.43660  Biso   1.000  C
  C16      1.0000 0.31798  0.37176  0.36090  Biso   1.000  C
  C17      1.0000 0.32036  0.37692  0.23950  Biso   1.000  C
  C18      1.0000 0.42102  0.37124  0.73820  Biso   1.000  C
  C19      1.0000 0.41960  0.36720  0.61640  Biso   1.000  C
  C20      1.0000 0.43999  0.49678  0.56640  Biso   1.000  C
  C21      1.0000 0.45986  0.62652  0.64410  Biso   1.000  C
  C22      1.0000 0.46078  0.62116  0.76520  Biso   1.000  C
  C23      1.0000 0.54796  0.20992  0.96800  Biso   1.000  C
  C24      1.0000 0.46009  0.03478  0.94170  Biso   1.000  C
  N1       1.0000 0.93971  0.50182  0.80916  Biso   1.000  N
  N2       1.0000 0.94450  0.50440  0.18708  Biso   1.000  N
  N3       1.0000 0.43789  0.49818  0.19084  Biso   1.000  N
  N4       1.0000 0.44010  0.49560  0.81292  Biso   1.000  N
  O1       1.0000 0.15216  0.73012  0.00970  Biso   1.000  O
  O2       1.0000 0.45512  0.72524  0.03500  Biso   1.000  O
  O3       1.0000 0.60107  0.01754  0.13070  Biso   1.000  O
  O4       1.0000 0.42204  0.26988  0.99030  Biso   1.000  O
  O5       1.0000 0.72988  0.27476  0.96500  Biso   1.000  O
  O6       1.0000 0.58353  0.98246  0.86930  Biso   1.000  O
  F1       1.0000 0.14190  0.40540  0.99020  Biso   1.000  F
  F2       1.0000 0.73650  0.59460  0.00980  Biso   1.000  F
