data_image0
_cell_length_a       7.107
_cell_length_b       7.2234
_cell_length_c       9.205
_cell_angle_alpha    95.377
_cell_angle_beta     91.256
_cell_angle_gamma    114.893

_symmetry_space_group_name_H-M    P 1
_symmetry_int_tables_number       1

loop_
  _symmetry_equiv_pos_as_xyz
  'x, y, z'

loop_
  _atom_site_label
  _atom_site_occupancy
  _atom_site_fract_x
  _atom_site_fract_y
  _atom_site_fract_z
  _atom_site_thermal_displace_type
  _atom_site_B_iso_or_equiv
  _atom_site_type_symbol
  U1       1.0000 0.50000  0.50000  0.50000  Biso   1.000  U
  Cu1      1.0000 0.00000  0.00000  0.50000  Biso   1.000  Cu
  H1       1.0000 0.28860  0.43140  0.97320  Biso   1.000  H
  H2       1.0000 0.71140  0.56860  0.02680  Biso   1.000  H
  C1       1.0000 0.04140  0.43280  0.86239  Biso   1.000  C
  C2       1.0000 0.09380  0.35510  0.71816  Biso   1.000  C
  C3       1.0000 0.86780  0.47530  0.87764  Biso   1.000  C
  C4       1.0000 0.17250  0.45850  0.98397  Biso   1.000  C
  C5       1.0000 0.72990  0.46090  0.74862  Biso   1.000  C
  C6       1.0000 0.95860  0.56720  0.13761  Biso   1.000  C
  C7       1.0000 0.90620  0.64490  0.28184  Biso   1.000  C
  C8       1.0000 0.13220  0.52470  0.12236  Biso   1.000  C
  C9       1.0000 0.82750  0.54150  0.01603  Biso   1.000  C
  C10      1.0000 0.27010  0.53910  0.25138  Biso   1.000  C
  O1       1.0000 0.22210  0.48518  0.64632  Biso   1.000  O
  O2       1.0000 0.76030  0.40070  0.62212  Biso   1.000  O
  O3       1.0000 0.01020  0.16313  0.68625  Biso   1.000  O
  O4       1.0000 0.58430  0.51730  0.76575  Biso   1.000  O
  O5       1.0000 0.64140  0.77060  0.53665  Biso   1.000  O
  O6       1.0000 0.09650  0.83620  0.60899  Biso   1.000  O
  O7       1.0000 0.77790  0.51482  0.35368  Biso   1.000  O
  O8       1.0000 0.23970  0.59930  0.37788  Biso   1.000  O
  O9       1.0000 0.98980  0.83687  0.31375  Biso   1.000  O
  O10      1.0000 0.41570  0.48270  0.23425  Biso   1.000  O
  O11      1.0000 0.35860  0.22940  0.46335  Biso   1.000  O
  O12      1.0000 0.90350  0.16380  0.39101  Biso   1.000  O
