data_image0
_cell_length_a       11.5733
_cell_length_b       14.6066
_cell_length_c       14.6066
_cell_angle_alpha    66.7111
_cell_angle_beta     74.6858
_cell_angle_gamma    105.314

_symmetry_space_group_name_H-M    P 1
_symmetry_int_tables_number       1

loop_
  _symmetry_equiv_pos_as_xyz
  'x, y, z'

loop_
  _atom_site_label
  _atom_site_occupancy
  _atom_site_fract_x
  _atom_site_fract_y
  _atom_site_fract_z
  _atom_site_thermal_displace_type
  _atom_site_B_iso_or_equiv
  _atom_site_type_symbol
  Cu1      1.0000 0.08442  0.88186  0.51668  Biso   1.000  Cu
  Cu2      1.0000 0.60110  0.51668  0.60146  Biso   1.000  Cu
  Cu3      1.0000 0.20256  0.60146  0.88186  Biso   1.000  Cu
  Cu4      1.0000 0.60110  0.39854  0.48332  Biso   1.000  Cu
  Cu5      1.0000 0.20256  0.11814  0.39854  Biso   1.000  Cu
  Cu6      1.0000 0.08442  0.48332  0.11814  Biso   1.000  Cu
  Cu7      1.0000 0.91586  0.00000  0.40469  Biso   1.000  Cu
  Cu8      1.0000 0.32055  0.40469  0.59531  Biso   1.000  Cu
  Cu9      1.0000 0.91586  0.59531  0.00000  Biso   1.000  Cu
  H1       1.0000 0.91030  0.94480  0.24410  Biso   1.000  H
  H2       1.0000 0.66150  0.85940  0.41880  Biso   1.000  H
  H3       1.0000 0.55110  0.74880  0.52720  Biso   1.000  H
  H4       1.0000 0.62380  0.74520  0.41980  Biso   1.000  H
  H5       1.0000 0.82650  0.54850  0.70790  Biso   1.000  H
  H6       1.0000 0.97710  0.62930  0.62490  Biso   1.000  H
  H7       1.0000 0.88980  0.54910  0.59600  Biso   1.000  H
  H8       1.0000 0.51590  0.93570  0.66250  Biso   1.000  H
  H9       1.0000 0.15440  0.24410  0.81110  Biso   1.000  H
  H10      1.0000 0.08030  0.41880  0.72180  Biso   1.000  H
  H11      1.0000 0.07830  0.52720  0.72400  Biso   1.000  H
  H12      1.0000 0.04360  0.41980  0.83500  Biso   1.000  H
  H13      1.0000 0.53440  0.70790  0.74360  Biso   1.000  H
  H14      1.0000 0.60200  0.62490  0.74580  Biso   1.000  H
  H15      1.0000 0.48580  0.59600  0.85490  Biso   1.000  H
  H16      1.0000 0.17840  0.66250  0.40180  Biso   1.000  H
  H17      1.0000 0.96550  0.81110  0.94480  Biso   1.000  H
  H18      1.0000 0.80210  0.72180  0.85940  Biso   1.000  H
  H19      1.0000 0.80230  0.72400  0.74880  Biso   1.000  H
  H20      1.0000 0.87860  0.83500  0.74520  Biso   1.000  H
  H21      1.0000 0.27800  0.74360  0.54850  Biso   1.000  H
  H22      1.0000 0.34780  0.74580  0.62930  Biso   1.000  H
  H23      1.0000 0.34070  0.85490  0.54910  Biso   1.000  H
  H24      1.0000 0.58020  0.40180  0.93570  Biso   1.000  H
  H25      1.0000 0.15440  0.18890  0.75590  Biso   1.000  H
  H26      1.0000 0.08030  0.27820  0.58120  Biso   1.000  H
  H27      1.0000 0.07830  0.27600  0.47280  Biso   1.000  H
  H28      1.0000 0.04360  0.16500  0.58020  Biso   1.000  H
  H29      1.0000 0.53440  0.25640  0.29210  Biso   1.000  H
  H30      1.0000 0.60200  0.25420  0.37510  Biso   1.000  H
  H31      1.0000 0.48580  0.14510  0.40400  Biso   1.000  H
  H32      1.0000 0.17840  0.59820  0.33750  Biso   1.000  H
  H33      1.0000 0.96550  0.05520  0.18890  Biso   1.000  H
  H34      1.0000 0.80210  0.14060  0.27820  Biso   1.000  H
  H35      1.0000 0.80230  0.25120  0.27600  Biso   1.000  H
  H36      1.0000 0.87860  0.25480  0.16500  Biso   1.000  H
  H37      1.0000 0.27800  0.45150  0.25640  Biso   1.000  H
  H38      1.0000 0.34780  0.37070  0.25420  Biso   1.000  H
  H39      1.0000 0.34070  0.45090  0.14510  Biso   1.000  H
  H40      1.0000 0.58020  0.06430  0.59820  Biso   1.000  H
  H41      1.0000 0.91030  0.75590  0.05520  Biso   1.000  H
  H42      1.0000 0.66150  0.58120  0.14060  Biso   1.000  H
  H43      1.0000 0.55110  0.47280  0.25120  Biso   1.000  H
  H44      1.0000 0.62380  0.58020  0.25480  Biso   1.000  H
  H45      1.0000 0.82650  0.29210  0.45150  Biso   1.000  H
  H46      1.0000 0.97710  0.37510  0.37070  Biso   1.000  H
  H47      1.0000 0.88980  0.40400  0.45090  Biso   1.000  H
  H48      1.0000 0.51590  0.33750  0.06430  Biso   1.000  H
  H49      1.0000 0.13290  0.00000  0.32990  Biso   1.000  H
  H50      1.0000 0.52670  0.00000  0.54380  Biso   1.000  H
  H51      1.0000 0.46280  0.32990  0.67010  Biso   1.000  H
  H52      1.0000 0.07050  0.54380  0.45620  Biso   1.000  H
  H53      1.0000 0.13290  0.67010  0.00000  Biso   1.000  H
  H54      1.0000 0.52670  0.45620  0.00000  Biso   1.000  H
  C1       1.0000 0.63470  0.78040  0.46370  Biso   1.000  C
  C2       1.0000 0.73810  0.76190  0.50220  Biso   1.000  C
  C3       1.0000 0.84660  0.68130  0.57340  Biso   1.000  C
  C4       1.0000 0.88870  0.59460  0.63040  Biso   1.000  C
  C5       1.0000 0.09840  0.46370  0.75590  Biso   1.000  C
  C6       1.0000 0.24030  0.50220  0.73590  Biso   1.000  C
  C7       1.0000 0.42000  0.57340  0.74530  Biso   1.000  C
  C8       1.0000 0.51910  0.63040  0.77500  Biso   1.000  C
  C9       1.0000 0.85430  0.75590  0.78040  Biso   1.000  C
  C10      1.0000 0.97620  0.73590  0.76190  Biso   1.000  C
  C11      1.0000 0.16530  0.74530  0.68130  Biso   1.000  C
  C12      1.0000 0.29410  0.77500  0.59460  Biso   1.000  C
  C13      1.0000 0.09840  0.24410  0.53630  Biso   1.000  C
  C14      1.0000 0.24030  0.26410  0.49780  Biso   1.000  C
  C15      1.0000 0.42000  0.25470  0.42660  Biso   1.000  C
  C16      1.0000 0.51910  0.22500  0.36960  Biso   1.000  C
  C17      1.0000 0.85430  0.21960  0.24410  Biso   1.000  C
  C18      1.0000 0.97620  0.23810  0.26410  Biso   1.000  C
  C19      1.0000 0.16530  0.31870  0.25470  Biso   1.000  C
  C20      1.0000 0.29410  0.40540  0.22500  Biso   1.000  C
  C21      1.0000 0.63470  0.53630  0.21960  Biso   1.000  C
  C22      1.0000 0.73810  0.49780  0.23810  Biso   1.000  C
  C23      1.0000 0.84660  0.42660  0.31870  Biso   1.000  C
  C24      1.0000 0.88870  0.36960  0.40540  Biso   1.000  C
  C25      1.0000 0.56935  0.00000  0.59195  Biso   1.000  C
  C26      1.0000 0.70895  1.00000  0.54515  Biso   1.000  C
  C27      1.0000 0.16130  0.59195  0.40805  Biso   1.000  C
  C28      1.0000 0.25410  0.54515  0.45485  Biso   1.000  C
  C29      1.0000 0.56935  0.40805  0.00000  Biso   1.000  C
  C30      1.0000 0.70895  0.45485  1.00000  Biso   1.000  C
  N1       1.0000 0.84390  0.83740  0.48440  Biso   1.000  N
  N2       1.0000 0.91510  0.78810  0.53080  Biso   1.000  N
  N3       1.0000 0.73320  0.66040  0.55820  Biso   1.000  N
  N4       1.0000 0.32830  0.48440  0.67820  Biso   1.000  N
  N5       1.0000 0.44590  0.53080  0.68110  Biso   1.000  N
  N6       1.0000 0.29140  0.55820  0.78140  Biso   1.000  N
  N7       1.0000 0.00650  0.67820  0.83740  Biso   1.000  N
  N8       1.0000 0.12700  0.68110  0.78810  Biso   1.000  N
  N9       1.0000 0.07280  0.78140  0.66040  Biso   1.000  N
  N10      1.0000 0.32830  0.32180  0.51560  Biso   1.000  N
  N11      1.0000 0.44590  0.31890  0.46920  Biso   1.000  N
  N12      1.0000 0.29140  0.21860  0.44180  Biso   1.000  N
  N13      1.0000 0.00650  0.16260  0.32180  Biso   1.000  N
  N14      1.0000 0.12700  0.21190  0.31890  Biso   1.000  N
  N15      1.0000 0.07280  0.33960  0.21860  Biso   1.000  N
  N16      1.0000 0.84390  0.51560  0.16260  Biso   1.000  N
  N17      1.0000 0.91510  0.46920  0.21190  Biso   1.000  N
  N18      1.0000 0.73320  0.44180  0.33960  Biso   1.000  N
  O1       1.0000 0.08925  0.00000  0.38645  Biso   1.000  O
  O2       1.0000 0.24110  0.00000  0.48260  Biso   1.000  O
  O3       1.0000 0.74115  1.00000  0.46505  Biso   1.000  O
  O4       1.0000 0.76645  0.00000  0.60365  Biso   1.000  O
  O5       1.0000 0.90790  1.00000  0.25130  Biso   1.000  O
  O6       1.0000 0.47570  0.38645  0.61355  Biso   1.000  O
  O7       1.0000 0.72370  0.48260  0.51740  Biso   1.000  O
  O8       1.0000 0.20620  0.46505  0.53495  Biso   1.000  O
  O9       1.0000 0.37010  0.60365  0.39635  Biso   1.000  O
  O10      1.0000 0.15920  0.25130  0.74870  Biso   1.000  O
  O11      1.0000 0.08925  0.61355  0.00000  Biso   1.000  O
  O12      1.0000 0.24110  0.51740  0.00000  Biso   1.000  O
  O13      1.0000 0.74115  0.53495  0.00000  Biso   1.000  O
  O14      1.0000 0.76645  0.39635  0.00000  Biso   1.000  O
  O15      1.0000 0.90790  0.74870  0.00000  Biso   1.000  O
