data_image0
_cell_length_a       16.5598
_cell_length_b       17.6211
_cell_length_c       17.6211
_cell_angle_alpha    77.2444
_cell_angle_beta     61.9732
_cell_angle_gamma    61.9731

_symmetry_space_group_name_H-M    P 1
_symmetry_int_tables_number       1

loop_
  _symmetry_equiv_pos_as_xyz
  'x, y, z'

loop_
  _atom_site_label
  _atom_site_occupancy
  _atom_site_fract_x
  _atom_site_fract_y
  _atom_site_fract_z
  _atom_site_thermal_displace_type
  _atom_site_B_iso_or_equiv
  _atom_site_type_symbol
  Cd1      1.0000 0.03223  0.90818  0.43130  Biso   1.000  Cd
  Cd2      1.0000 0.87171  0.59182  0.06870  Biso   1.000  Cd
  Cd3      1.0000 0.46352  0.56871  0.40818  Biso   1.000  Cd
  Cd4      1.0000 0.94042  0.93129  0.09182  Biso   1.000  Cd
  Cd5      1.0000 0.96777  0.09182  0.56870  Biso   1.000  Cd
  Cd6      1.0000 0.12829  0.40818  0.93130  Biso   1.000  Cd
  Cd7      1.0000 0.53648  0.43129  0.59182  Biso   1.000  Cd
  Cd8      1.0000 0.05958  0.06871  0.90818  Biso   1.000  Cd
  H1       1.0000 0.25430  0.56740  0.41580  Biso   1.000  H
  H2       1.0000 0.23120  0.49970  0.33290  Biso   1.000  H
  H3       1.0000 0.19340  0.70480  0.17900  Biso   1.000  H
  H4       1.0000 0.21260  0.77380  0.26280  Biso   1.000  H
  H5       1.0000 0.04370  0.72150  0.51190  Biso   1.000  H
  H6       1.0000 0.98920  0.65970  0.64310  Biso   1.000  H
  H7       1.0000 0.76080  0.88850  0.73310  Biso   1.000  H
  H8       1.0000 0.82300  0.94460  0.59840  Biso   1.000  H
  H9       1.0000 0.73750  0.93260  0.08420  Biso   1.000  H
  H10      1.0000 0.56380  0.00030  0.16710  Biso   1.000  H
  H11      1.0000 0.57720  0.79520  0.32100  Biso   1.000  H
  H12      1.0000 0.74920  0.72620  0.23720  Biso   1.000  H
  H13      1.0000 0.77710  0.77850  0.98810  Biso   1.000  H
  H14      1.0000 0.79200  0.84030  0.85690  Biso   1.000  H
  H15      1.0000 0.88240  0.61150  0.76690  Biso   1.000  H
  H16      1.0000 0.86600  0.55540  0.90160  Biso   1.000  H
  H17      1.0000 0.67010  0.58420  0.06740  Biso   1.000  H
  H18      1.0000 0.56410  0.66710  0.99970  Biso   1.000  H
  H19      1.0000 0.37240  0.82100  0.20480  Biso   1.000  H
  H20      1.0000 0.47540  0.73720  0.27380  Biso   1.000  H
  H21      1.0000 0.55560  0.48810  0.22150  Biso   1.000  H
  H22      1.0000 0.63230  0.35690  0.15970  Biso   1.000  H
  H23      1.0000 0.49390  0.26690  0.38850  Biso   1.000  H
  H24      1.0000 0.42140  0.40160  0.44460  Biso   1.000  H
  H25      1.0000 0.82170  0.91580  0.43260  Biso   1.000  H
  H26      1.0000 0.73090  0.83290  0.50030  Biso   1.000  H
  H27      1.0000 0.89820  0.67900  0.29520  Biso   1.000  H
  H28      1.0000 0.98640  0.76280  0.22620  Biso   1.000  H
  H29      1.0000 0.76520  0.01190  0.27850  Biso   1.000  H
  H30      1.0000 0.64890  0.14310  0.34030  Biso   1.000  H
  H31      1.0000 0.64930  0.23310  0.11150  Biso   1.000  H
  H32      1.0000 0.76760  0.09840  0.05540  Biso   1.000  H
  H33      1.0000 0.74570  0.43260  0.58420  Biso   1.000  H
  H34      1.0000 0.76880  0.50030  0.66710  Biso   1.000  H
  H35      1.0000 0.80660  0.29520  0.82100  Biso   1.000  H
  H36      1.0000 0.78740  0.22620  0.73720  Biso   1.000  H
  H37      1.0000 0.95630  0.27850  0.48810  Biso   1.000  H
  H38      1.0000 0.01080  0.34030  0.35690  Biso   1.000  H
  H39      1.0000 0.23920  0.11150  0.26690  Biso   1.000  H
  H40      1.0000 0.17700  0.05540  0.40160  Biso   1.000  H
  H41      1.0000 0.26250  0.06740  0.91580  Biso   1.000  H
  H42      1.0000 0.43620  0.99970  0.83290  Biso   1.000  H
  H43      1.0000 0.42280  0.20480  0.67900  Biso   1.000  H
  H44      1.0000 0.25080  0.27380  0.76280  Biso   1.000  H
  H45      1.0000 0.22290  0.22150  0.01190  Biso   1.000  H
  H46      1.0000 0.20800  0.15970  0.14310  Biso   1.000  H
  H47      1.0000 0.11760  0.38850  0.23310  Biso   1.000  H
  H48      1.0000 0.13400  0.44460  0.09840  Biso   1.000  H
  H49      1.0000 0.32990  0.41580  0.93260  Biso   1.000  H
  H50      1.0000 0.43590  0.33290  0.00030  Biso   1.000  H
  H51      1.0000 0.62760  0.17900  0.79520  Biso   1.000  H
  H52      1.0000 0.52460  0.26280  0.72620  Biso   1.000  H
  H53      1.0000 0.44440  0.51190  0.77850  Biso   1.000  H
  H54      1.0000 0.36770  0.64310  0.84030  Biso   1.000  H
  H55      1.0000 0.50610  0.73310  0.61150  Biso   1.000  H
  H56      1.0000 0.57860  0.59840  0.55540  Biso   1.000  H
  H57      1.0000 0.17830  0.08420  0.56740  Biso   1.000  H
  H58      1.0000 0.26910  0.16710  0.49970  Biso   1.000  H
  H59      1.0000 0.10180  0.32100  0.70480  Biso   1.000  H
  H60      1.0000 0.01360  0.23720  0.77380  Biso   1.000  H
  H61      1.0000 0.23480  0.98810  0.72150  Biso   1.000  H
  H62      1.0000 0.35110  0.85690  0.65970  Biso   1.000  H
  H63      1.0000 0.35070  0.76690  0.88850  Biso   1.000  H
  H64      1.0000 0.23240  0.90160  0.94460  Biso   1.000  H
  C1       1.0000 0.16931  0.90962  0.51056  Biso   1.000  C
  C2       1.0000 0.22259  0.82587  0.46835  Biso   1.000  C
  C3       1.0000 0.31287  0.75680  0.46126  Biso   1.000  C
  C4       1.0000 0.39092  0.74646  0.48570  Biso   1.000  C
  C5       1.0000 0.24776  0.72326  0.39982  Biso   1.000  C
  C6       1.0000 0.23525  0.67734  0.34776  Biso   1.000  C
  C7       1.0000 0.24130  0.59550  0.36870  Biso   1.000  C
  C8       1.0000 0.22780  0.55490  0.31910  Biso   1.000  C
  C9       1.0000 0.20950  0.59700  0.25000  Biso   1.000  C
  C10      1.0000 0.20460  0.67780  0.22700  Biso   1.000  C
  C11      1.0000 0.21680  0.71840  0.27680  Biso   1.000  C
  C12      1.0000 0.98730  0.75610  0.55750  Biso   1.000  C
  C13      1.0000 0.95510  0.71848  0.63632  Biso   1.000  C
  C14      1.0000 0.87149  0.76826  0.70616  Biso   1.000  C
  C15      1.0000 0.82028  0.85347  0.68977  Biso   1.000  C
  C16      1.0000 0.85808  0.88676  0.60788  Biso   1.000  C
  C17      1.0000 0.08949  0.59038  0.98944  Biso   1.000  C
  C18      1.0000 0.01681  0.67413  0.03165  Biso   1.000  C
  C19      1.0000 0.03093  0.74320  0.03874  Biso   1.000  C
  C20      1.0000 0.12308  0.75354  0.01430  Biso   1.000  C
  C21      1.0000 0.87084  0.77674  0.10018  Biso   1.000  C
  C22      1.0000 0.76035  0.82266  0.15224  Biso   1.000  C
  C23      1.0000 0.70550  0.90450  0.13130  Biso   1.000  C
  C24      1.0000 0.60180  0.94510  0.18090  Biso   1.000  C
  C25      1.0000 0.55650  0.90300  0.25000  Biso   1.000  C
  C26      1.0000 0.60940  0.82220  0.27300  Biso   1.000  C
  C27      1.0000 0.71200  0.78160  0.22320  Biso   1.000  C
  C28      1.0000 0.80090  0.74390  0.94250  Biso   1.000  C
  C29      1.0000 0.80990  0.78152  0.86368  Biso   1.000  C
  C30      1.0000 0.84591  0.73174  0.79384  Biso   1.000  C
  C31      1.0000 0.86352  0.64653  0.81023  Biso   1.000  C
  C32      1.0000 0.85272  0.61324  0.89212  Biso   1.000  C
  C33      1.0000 0.67987  0.48944  0.40962  Biso   1.000  C
  C34      1.0000 0.69094  0.53165  0.32587  Biso   1.000  C
  C35      1.0000 0.77413  0.53874  0.25680  Biso   1.000  C
  C36      1.0000 0.87662  0.51430  0.24646  Biso   1.000  C
  C37      1.0000 0.64758  0.60018  0.22326  Biso   1.000  C
  C38      1.0000 0.58301  0.65224  0.17734  Biso   1.000  C
  C39      1.0000 0.61000  0.63130  0.09550  Biso   1.000  C
  C40      1.0000 0.54690  0.68090  0.05490  Biso   1.000  C
  C41      1.0000 0.45950  0.75000  0.09700  Biso   1.000  C
  C42      1.0000 0.43160  0.77300  0.17780  Biso   1.000  C
  C43      1.0000 0.49360  0.72320  0.21840  Biso   1.000  C
  C44      1.0000 0.54480  0.44250  0.25610  Biso   1.000  C
  C45      1.0000 0.59142  0.36368  0.21848  Biso   1.000  C
  C46      1.0000 0.57765  0.29384  0.26826  Biso   1.000  C
  C47      1.0000 0.51005  0.31023  0.35347  Biso   1.000  C
  C48      1.0000 0.46596  0.39212  0.38676  Biso   1.000  C
  C49      1.0000 0.07893  0.01056  0.09038  Biso   1.000  C
  C50      1.0000 0.04846  0.96835  0.17413  Biso   1.000  C
  C51      1.0000 0.06967  0.96126  0.24320  Biso   1.000  C
  C52      1.0000 0.13738  0.98570  0.25354  Biso   1.000  C
  C53      1.0000 0.97102  0.89982  0.27674  Biso   1.000  C
  C54      1.0000 0.91259  0.84776  0.32266  Biso   1.000  C
  C55      1.0000 0.83680  0.86870  0.40450  Biso   1.000  C
  C56      1.0000 0.78270  0.81910  0.44510  Biso   1.000  C
  C57      1.0000 0.80650  0.75000  0.40300  Biso   1.000  C
  C58      1.0000 0.88240  0.72700  0.32220  Biso   1.000  C
  C59      1.0000 0.93520  0.77680  0.28160  Biso   1.000  C
  C60      1.0000 0.74340  0.05750  0.24390  Biso   1.000  C
  C61      1.0000 0.67358  0.13632  0.28152  Biso   1.000  C
  C62      1.0000 0.63975  0.20616  0.23174  Biso   1.000  C
  C63      1.0000 0.67375  0.18977  0.14653  Biso   1.000  C
  C64      1.0000 0.74484  0.10788  0.11324  Biso   1.000  C
  C65      1.0000 0.83069  0.09038  0.48944  Biso   1.000  C
  C66      1.0000 0.77741  0.17413  0.53165  Biso   1.000  C
  C67      1.0000 0.68713  0.24320  0.53874  Biso   1.000  C
  C68      1.0000 0.60908  0.25354  0.51430  Biso   1.000  C
  C69      1.0000 0.75224  0.27674  0.60018  Biso   1.000  C
  C70      1.0000 0.76475  0.32266  0.65224  Biso   1.000  C
  C71      1.0000 0.75870  0.40450  0.63130  Biso   1.000  C
  C72      1.0000 0.77220  0.44510  0.68090  Biso   1.000  C
  C73      1.0000 0.79050  0.40300  0.75000  Biso   1.000  C
  C74      1.0000 0.79540  0.32220  0.77300  Biso   1.000  C
  C75      1.0000 0.78320  0.28160  0.72320  Biso   1.000  C
  C76      1.0000 0.01270  0.24390  0.44250  Biso   1.000  C
  C77      1.0000 0.04490  0.28152  0.36368  Biso   1.000  C
  C78      1.0000 0.12851  0.23174  0.29384  Biso   1.000  C
  C79      1.0000 0.17972  0.14653  0.31023  Biso   1.000  C
  C80      1.0000 0.14192  0.11324  0.39212  Biso   1.000  C
  C81      1.0000 0.91051  0.40962  0.01056  Biso   1.000  C
  C82      1.0000 0.98319  0.32587  0.96835  Biso   1.000  C
  C83      1.0000 0.96907  0.25680  0.96126  Biso   1.000  C
  C84      1.0000 0.87692  0.24646  0.98570  Biso   1.000  C
  C85      1.0000 0.12916  0.22326  0.89982  Biso   1.000  C
  C86      1.0000 0.23965  0.17734  0.84776  Biso   1.000  C
  C87      1.0000 0.29450  0.09550  0.86870  Biso   1.000  C
  C88      1.0000 0.39820  0.05490  0.81910  Biso   1.000  C
  C89      1.0000 0.44350  0.09700  0.75000  Biso   1.000  C
  C90      1.0000 0.39060  0.17780  0.72700  Biso   1.000  C
  C91      1.0000 0.28800  0.21840  0.77680  Biso   1.000  C
  C92      1.0000 0.19910  0.25610  0.05750  Biso   1.000  C
  C93      1.0000 0.19010  0.21848  0.13632  Biso   1.000  C
  C94      1.0000 0.15409  0.26826  0.20616  Biso   1.000  C
  C95      1.0000 0.13648  0.35347  0.18977  Biso   1.000  C
  C96      1.0000 0.14728  0.38676  0.10788  Biso   1.000  C
  C97      1.0000 0.32013  0.51056  0.59038  Biso   1.000  C
  C98      1.0000 0.30906  0.46835  0.67413  Biso   1.000  C
  C99      1.0000 0.22587  0.46126  0.74320  Biso   1.000  C
  C100     1.0000 0.12338  0.48570  0.75354  Biso   1.000  C
  C101     1.0000 0.35242  0.39982  0.77674  Biso   1.000  C
  C102     1.0000 0.41699  0.34776  0.82266  Biso   1.000  C
  C103     1.0000 0.39000  0.36870  0.90450  Biso   1.000  C
  C104     1.0000 0.45310  0.31910  0.94510  Biso   1.000  C
  C105     1.0000 0.54050  0.25000  0.90300  Biso   1.000  C
  C106     1.0000 0.56840  0.22700  0.82220  Biso   1.000  C
  C107     1.0000 0.50640  0.27680  0.78160  Biso   1.000  C
  C108     1.0000 0.45520  0.55750  0.74390  Biso   1.000  C
  C109     1.0000 0.40858  0.63632  0.78152  Biso   1.000  C
  C110     1.0000 0.42235  0.70616  0.73174  Biso   1.000  C
  C111     1.0000 0.48995  0.68977  0.64653  Biso   1.000  C
  C112     1.0000 0.53404  0.60788  0.61324  Biso   1.000  C
  C113     1.0000 0.92107  0.98944  0.90962  Biso   1.000  C
  C114     1.0000 0.95154  0.03165  0.82587  Biso   1.000  C
  C115     1.0000 0.93033  0.03874  0.75680  Biso   1.000  C
  C116     1.0000 0.86262  0.01430  0.74646  Biso   1.000  C
  C117     1.0000 0.02898  0.10018  0.72326  Biso   1.000  C
  C118     1.0000 0.08741  0.15224  0.67734  Biso   1.000  C
  C119     1.0000 0.16320  0.13130  0.59550  Biso   1.000  C
  C120     1.0000 0.21730  0.18090  0.55490  Biso   1.000  C
  C121     1.0000 0.19350  0.25000  0.59700  Biso   1.000  C
  C122     1.0000 0.11760  0.27300  0.67780  Biso   1.000  C
  C123     1.0000 0.06480  0.22320  0.71840  Biso   1.000  C
  C124     1.0000 0.25660  0.94250  0.75610  Biso   1.000  C
  C125     1.0000 0.32642  0.86368  0.71848  Biso   1.000  C
  C126     1.0000 0.36025  0.79384  0.76826  Biso   1.000  C
  C127     1.0000 0.32625  0.81023  0.85347  Biso   1.000  C
  C128     1.0000 0.25516  0.89212  0.88676  Biso   1.000  C
  Br1      1.0000 0.18814  0.54303  0.18321  Biso   1.000  Br
  Br2      1.0000 0.41438  0.95697  0.31679  Biso   1.000  Br
  Br3      1.0000 0.37135  0.81679  0.04303  Biso   1.000  Br
  Br4      1.0000 0.73117  0.68321  0.45697  Biso   1.000  Br
  Br5      1.0000 0.81186  0.45697  0.81679  Biso   1.000  Br
  Br6      1.0000 0.58562  0.04303  0.68321  Biso   1.000  Br
  Br7      1.0000 0.62865  0.18321  0.95697  Biso   1.000  Br
  Br8      1.0000 0.26883  0.31679  0.54303  Biso   1.000  Br
  N1       1.0000 0.18197  0.80395  0.42871  Biso   1.000  N
  N2       1.0000 0.32787  0.69155  0.41825  Biso   1.000  N
  N3       1.0000 0.94130  0.84039  0.54301  Biso   1.000  N
  N4       1.0000 0.91463  0.69605  0.07129  Biso   1.000  N
  N5       1.0000 0.93767  0.80845  0.08175  Biso   1.000  N
  N6       1.0000 0.82470  0.65961  0.95699  Biso   1.000  N
  N7       1.0000 0.61068  0.57129  0.30395  Biso   1.000  N
  N8       1.0000 0.74612  0.58175  0.19155  Biso   1.000  N
  N9       1.0000 0.48431  0.45699  0.34039  Biso   1.000  N
  N10      1.0000 0.98592  0.92871  0.19605  Biso   1.000  N
  N11      1.0000 0.01942  0.91825  0.30845  Biso   1.000  N
  N12      1.0000 0.78169  0.04301  0.15961  Biso   1.000  N
  N13      1.0000 0.81803  0.19605  0.57129  Biso   1.000  N
  N14      1.0000 0.67213  0.30845  0.58175  Biso   1.000  N
  N15      1.0000 0.05870  0.15961  0.45699  Biso   1.000  N
  N16      1.0000 0.08537  0.30395  0.92871  Biso   1.000  N
  N17      1.0000 0.06233  0.19155  0.91825  Biso   1.000  N
  N18      1.0000 0.17530  0.34039  0.04301  Biso   1.000  N
  N19      1.0000 0.38932  0.42871  0.69605  Biso   1.000  N
  N20      1.0000 0.25388  0.41825  0.80845  Biso   1.000  N
  N21      1.0000 0.51569  0.54301  0.65961  Biso   1.000  N
  N22      1.0000 0.01408  0.07129  0.80395  Biso   1.000  N
  N23      1.0000 0.98058  0.08175  0.69155  Biso   1.000  N
  N24      1.0000 0.21831  0.95699  0.84039  Biso   1.000  N
  O1       1.0000 0.46761  0.67765  0.47073  Biso   1.000  O
  O2       1.0000 0.37802  0.81130  0.52074  Biso   1.000  O
  O3       1.0000 0.21199  0.93193  0.53877  Biso   1.000  O
  O4       1.0000 0.08098  0.95645  0.51549  Biso   1.000  O
  O5       1.0000 0.11599  0.82235  0.02927  Biso   1.000  O
  O6       1.0000 0.21006  0.68870  0.97926  Biso   1.000  O
  O7       1.0000 0.18269  0.56807  0.96123  Biso   1.000  O
  O8       1.0000 0.05292  0.54355  0.98451  Biso   1.000  O
  O9       1.0000 0.93834  0.52927  0.17765  Biso   1.000  O
  O10      1.0000 0.89876  0.47926  0.31130  Biso   1.000  O
  O11      1.0000 0.75076  0.46123  0.43193  Biso   1.000  O
  O12      1.0000 0.59647  0.48451  0.45645  Biso   1.000  O
  O13      1.0000 0.14526  0.97073  0.32235  Biso   1.000  O
  O14      1.0000 0.18932  0.02074  0.18870  Biso   1.000  O
  O15      1.0000 0.14392  0.03877  0.06807  Biso   1.000  O
  O16      1.0000 0.03743  0.01549  0.04355  Biso   1.000  O
  O17      1.0000 0.53239  0.32235  0.52927  Biso   1.000  O
  O18      1.0000 0.62198  0.18870  0.47926  Biso   1.000  O
  O19      1.0000 0.78801  0.06807  0.46123  Biso   1.000  O
  O20      1.0000 0.91902  0.04355  0.48451  Biso   1.000  O
  O21      1.0000 0.88401  0.17765  0.97073  Biso   1.000  O
  O22      1.0000 0.78994  0.31130  0.02074  Biso   1.000  O
  O23      1.0000 0.81731  0.43193  0.03877  Biso   1.000  O
  O24      1.0000 0.94708  0.45645  0.01549  Biso   1.000  O
  O25      1.0000 0.06166  0.47073  0.82235  Biso   1.000  O
  O26      1.0000 0.10124  0.52074  0.68870  Biso   1.000  O
  O27      1.0000 0.24924  0.53877  0.56807  Biso   1.000  O
  O28      1.0000 0.40353  0.51549  0.54355  Biso   1.000  O
  O29      1.0000 0.85474  0.02927  0.67765  Biso   1.000  O
  O30      1.0000 0.81068  0.97926  0.81130  Biso   1.000  O
  O31      1.0000 0.85608  0.96123  0.93193  Biso   1.000  O
  O32      1.0000 0.96257  0.98451  0.95645  Biso   1.000  O
