data_image0
_cell_length_a       30.926
_cell_length_b       30.926
_cell_length_c       31.413
_cell_angle_alpha    60.5115
_cell_angle_beta     60.5115
_cell_angle_gamma    89.9999

_symmetry_space_group_name_H-M    P 1
_symmetry_int_tables_number       1

loop_
  _symmetry_equiv_pos_as_xyz
  'x, y, z'

loop_
  _atom_site_label
  _atom_site_occupancy
  _atom_site_fract_x
  _atom_site_fract_y
  _atom_site_fract_z
  _atom_site_thermal_displace_type
  _atom_site_B_iso_or_equiv
  _atom_site_type_symbol
  Cu1      1.0000 0.53001  0.19324  0.33784  Biso   1.000  Cu
  Cu2      1.0000 0.51968  0.27000  0.25608  Biso   1.000  Cu
  Cu3      1.0000 0.13215  0.46891  0.33785  Biso   1.000  Cu
  Cu4      1.0000 0.22425  0.47392  0.25607  Biso   1.000  Cu
  Cu5      1.0000 0.19324  0.13216  0.33784  Biso   1.000  Cu
  Cu6      1.0000 0.27001  0.22425  0.25607  Biso   1.000  Cu
  Cu7      1.0000 0.46891  0.53000  0.33785  Biso   1.000  Cu
  Cu8      1.0000 0.47391  0.51968  0.25608  Biso   1.000  Cu
  Cu9      1.0000 0.46999  0.80676  0.66216  Biso   1.000  Cu
  Cu10     1.0000 0.48032  0.73000  0.74392  Biso   1.000  Cu
  Cu11     1.0000 0.86785  0.53109  0.66215  Biso   1.000  Cu
  Cu12     1.0000 0.77575  0.52608  0.74393  Biso   1.000  Cu
  Cu13     1.0000 0.80676  0.86784  0.66216  Biso   1.000  Cu
  Cu14     1.0000 0.72999  0.77575  0.74393  Biso   1.000  Cu
  Cu15     1.0000 0.53109  0.47000  0.66215  Biso   1.000  Cu
  Cu16     1.0000 0.52608  0.48032  0.74393  Biso   1.000  Cu
  Cu17     1.0000 0.45694  0.74942  0.00000  Biso   1.000  Cu
  Cu18     1.0000 0.44246  0.83459  0.00000  Biso   1.000  Cu
  Cu19     1.0000 0.54306  0.25058  0.00000  Biso   1.000  Cu
  Cu20     1.0000 0.55754  0.16541  0.00000  Biso   1.000  Cu
  Cu21     1.0000 0.74942  0.54306  0.00000  Biso   1.000  Cu
  Cu22     1.0000 0.83459  0.55754  0.00000  Biso   1.000  Cu
  Cu23     1.0000 0.25058  0.45694  0.00000  Biso   1.000  Cu
  Cu24     1.0000 0.16541  0.44246  1.00000  Biso   1.000  Cu
  H1       1.0000 0.48010  0.24220  0.45920  Biso   1.000  H
  H2       1.0000 0.45640  0.37260  0.45660  Biso   1.000  H
  H3       1.0000 0.48330  0.36400  0.32200  Biso   1.000  H
  H4       1.0000 0.40780  0.12400  0.66260  Biso   1.000  H
  H5       1.0000 0.42590  0.07370  0.79880  Biso   1.000  H
  H6       1.0000 0.44790  0.22810  0.68980  Biso   1.000  H
  H7       1.0000 0.47880  0.24400  0.73800  Biso   1.000  H
  H8       1.0000 0.44090  0.19890  0.56500  Biso   1.000  H
  H9       1.0000 0.43340  0.99640  0.80080  Biso   1.000  H
  H10      1.0000 0.50220  0.30290  0.75280  Biso   1.000  H
  H11      1.0000 0.53350  0.32960  0.85080  Biso   1.000  H
  H12      1.0000 0.50830  0.18400  0.88440  Biso   1.000  H
  H13      1.0000 0.44200  0.78100  0.85900  Biso   1.000  H
  H14      1.0000 0.42790  0.89920  0.73320  Biso   1.000  H
  H15      1.0000 0.41580  0.90760  0.86420  Biso   1.000  H
  H16      1.0000 0.06070  0.29860  0.45920  Biso   1.000  H
  H17      1.0000 0.08700  0.17080  0.45660  Biso   1.000  H
  H18      1.0000 0.19470  0.31400  0.32200  Biso   1.000  H
  H19      1.0000 0.92960  0.21340  0.66260  Biso   1.000  H
  H20      1.0000 0.77530  0.12750  0.79880  Biso   1.000  H
  H21      1.0000 0.86230  0.08210  0.68980  Biso   1.000  H
  H22      1.0000 0.78320  0.01800  0.73800  Biso   1.000  H
  H23      1.0000 0.99410  0.23610  0.56500  Biso   1.000  H
  H24      1.0000 0.76580  0.20280  0.80080  Biso   1.000  H
  H25      1.0000 0.74500  0.94430  0.75280  Biso   1.000  H
  H26      1.0000 0.61570  0.81960  0.85080  Biso   1.000  H
  H27      1.0000 0.60730  0.93160  0.88440  Biso   1.000  H
  H28      1.0000 0.69900  0.36000  0.85900  Biso   1.000  H
  H29      1.0000 0.83890  0.36760  0.73320  Biso   1.000  H
  H30      1.0000 0.72000  0.22820  0.86420  Biso   1.000  H
  H31      1.0000 0.24220  0.06070  0.45920  Biso   1.000  H
  H32      1.0000 0.37260  0.08700  0.45660  Biso   1.000  H
  H33      1.0000 0.36400  0.19470  0.32200  Biso   1.000  H
  H34      1.0000 0.12400  0.92960  0.66260  Biso   1.000  H
  H35      1.0000 0.07370  0.77530  0.79880  Biso   1.000  H
  H36      1.0000 0.22810  0.86230  0.68980  Biso   1.000  H
  H37      1.0000 0.24400  0.78320  0.73800  Biso   1.000  H
  H38      1.0000 0.19890  0.99410  0.56500  Biso   1.000  H
  H39      1.0000 0.99640  0.76580  0.80080  Biso   1.000  H
  H40      1.0000 0.30290  0.74500  0.75280  Biso   1.000  H
  H41      1.0000 0.32960  0.61570  0.85080  Biso   1.000  H
  H42      1.0000 0.18400  0.60730  0.88440  Biso   1.000  H
  H43      1.0000 0.78100  0.69900  0.85900  Biso   1.000  H
  H44      1.0000 0.89920  0.83890  0.73320  Biso   1.000  H
  H45      1.0000 0.90760  0.72000  0.86420  Biso   1.000  H
  H46      1.0000 0.29860  0.48010  0.45920  Biso   1.000  H
  H47      1.0000 0.17080  0.45640  0.45660  Biso   1.000  H
  H48      1.0000 0.31400  0.48330  0.32200  Biso   1.000  H
  H49      1.0000 0.21340  0.40780  0.66260  Biso   1.000  H
  H50      1.0000 0.12750  0.42590  0.79880  Biso   1.000  H
  H51      1.0000 0.08210  0.44790  0.68980  Biso   1.000  H
  H52      1.0000 0.01800  0.47880  0.73800  Biso   1.000  H
  H53      1.0000 0.23610  0.44090  0.56500  Biso   1.000  H
  H54      1.0000 0.20280  0.43340  0.80080  Biso   1.000  H
  H55      1.0000 0.94430  0.50220  0.75280  Biso   1.000  H
  H56      1.0000 0.81960  0.53350  0.85080  Biso   1.000  H
  H57      1.0000 0.93160  0.50830  0.88440  Biso   1.000  H
  H58      1.0000 0.36000  0.44200  0.85900  Biso   1.000  H
  H59      1.0000 0.36760  0.42790  0.73320  Biso   1.000  H
  H60      1.0000 0.22820  0.41580  0.86420  Biso   1.000  H
  H61      1.0000 0.51990  0.75780  0.54080  Biso   1.000  H
  H62      1.0000 0.54360  0.62740  0.54340  Biso   1.000  H
  H63      1.0000 0.51670  0.63600  0.67800  Biso   1.000  H
  H64      1.0000 0.59220  0.87600  0.33740  Biso   1.000  H
  H65      1.0000 0.57410  0.92630  0.20120  Biso   1.000  H
  H66      1.0000 0.55210  0.77190  0.31020  Biso   1.000  H
  H67      1.0000 0.52120  0.75600  0.26200  Biso   1.000  H
  H68      1.0000 0.55910  0.80110  0.43500  Biso   1.000  H
  H69      1.0000 0.56660  0.00360  0.19920  Biso   1.000  H
  H70      1.0000 0.49780  0.69710  0.24720  Biso   1.000  H
  H71      1.0000 0.46650  0.67040  0.14920  Biso   1.000  H
  H72      1.0000 0.49170  0.81600  0.11560  Biso   1.000  H
  H73      1.0000 0.55800  0.21900  0.14100  Biso   1.000  H
  H74      1.0000 0.57210  0.10080  0.26680  Biso   1.000  H
  H75      1.0000 0.58420  0.09240  0.13580  Biso   1.000  H
  H76      1.0000 0.93930  0.70140  0.54080  Biso   1.000  H
  H77      1.0000 0.91300  0.82920  0.54340  Biso   1.000  H
  H78      1.0000 0.80530  0.68600  0.67800  Biso   1.000  H
  H79      1.0000 0.07040  0.78660  0.33740  Biso   1.000  H
  H80      1.0000 0.22470  0.87250  0.20120  Biso   1.000  H
  H81      1.0000 0.13770  0.91790  0.31020  Biso   1.000  H
  H82      1.0000 0.21680  0.98200  0.26200  Biso   1.000  H
  H83      1.0000 0.00590  0.76390  0.43500  Biso   1.000  H
  H84      1.0000 0.23420  0.79720  0.19920  Biso   1.000  H
  H85      1.0000 0.25500  0.05570  0.24720  Biso   1.000  H
  H86      1.0000 0.38430  0.18040  0.14920  Biso   1.000  H
  H87      1.0000 0.39270  0.06840  0.11560  Biso   1.000  H
  H88      1.0000 0.30100  0.64000  0.14100  Biso   1.000  H
  H89      1.0000 0.16110  0.63240  0.26680  Biso   1.000  H
  H90      1.0000 0.28000  0.77180  0.13580  Biso   1.000  H
  H91      1.0000 0.75780  0.93930  0.54080  Biso   1.000  H
  H92      1.0000 0.62740  0.91300  0.54340  Biso   1.000  H
  H93      1.0000 0.63600  0.80530  0.67800  Biso   1.000  H
  H94      1.0000 0.87600  0.07040  0.33740  Biso   1.000  H
  H95      1.0000 0.92630  0.22470  0.20120  Biso   1.000  H
  H96      1.0000 0.77190  0.13770  0.31020  Biso   1.000  H
  H97      1.0000 0.75600  0.21680  0.26200  Biso   1.000  H
  H98      1.0000 0.80110  0.00590  0.43500  Biso   1.000  H
  H99      1.0000 0.00360  0.23420  0.19920  Biso   1.000  H
  H100     1.0000 0.69710  0.25500  0.24720  Biso   1.000  H
  H101     1.0000 0.67040  0.38430  0.14920  Biso   1.000  H
  H102     1.0000 0.81600  0.39270  0.11560  Biso   1.000  H
  H103     1.0000 0.21900  0.30100  0.14100  Biso   1.000  H
  H104     1.0000 0.10080  0.16110  0.26680  Biso   1.000  H
  H105     1.0000 0.09240  0.28000  0.13580  Biso   1.000  H
  H106     1.0000 0.70140  0.51990  0.54080  Biso   1.000  H
  H107     1.0000 0.82920  0.54360  0.54340  Biso   1.000  H
  H108     1.0000 0.68600  0.51670  0.67800  Biso   1.000  H
  H109     1.0000 0.78660  0.59220  0.33740  Biso   1.000  H
  H110     1.0000 0.87250  0.57410  0.20120  Biso   1.000  H
  H111     1.0000 0.91790  0.55210  0.31020  Biso   1.000  H
  H112     1.0000 0.98200  0.52120  0.26200  Biso   1.000  H
  H113     1.0000 0.76390  0.55910  0.43500  Biso   1.000  H
  H114     1.0000 0.79720  0.56660  0.19920  Biso   1.000  H
  H115     1.0000 0.05570  0.49780  0.24720  Biso   1.000  H
  H116     1.0000 0.18040  0.46650  0.14920  Biso   1.000  H
  H117     1.0000 0.06840  0.49170  0.11560  Biso   1.000  H
  H118     1.0000 0.64000  0.55800  0.14100  Biso   1.000  H
  H119     1.0000 0.63240  0.57210  0.26680  Biso   1.000  H
  H120     1.0000 0.77180  0.58420  0.13580  Biso   1.000  H
  C1       1.0000 0.49795  0.27188  0.35460  Biso   1.000  C
  C2       1.0000 0.48404  0.29957  0.38570  Biso   1.000  C
  C3       1.0000 0.47745  0.27631  0.44018  Biso   1.000  C
  C4       1.0000 0.46708  0.30374  0.46606  Biso   1.000  C
  C5       1.0000 0.46354  0.35414  0.43836  Biso   1.000  C
  C6       1.0000 0.47055  0.37667  0.38418  Biso   1.000  C
  C7       1.0000 0.47984  0.34890  0.35862  Biso   1.000  C
  C8       1.0000 0.42829  0.18239  0.66942  Biso   1.000  C
  C9       1.0000 0.41561  0.13101  0.68478  Biso   1.000  C
  C10      1.0000 0.41458  0.09008  0.73324  Biso   1.000  C
  C11      1.0000 0.42645  0.10125  0.76610  Biso   1.000  C
  C12      1.0000 0.43885  0.15235  0.75030  Biso   1.000  C
  C13      1.0000 0.43956  0.19306  0.70088  Biso   1.000  C
  C14      1.0000 0.44750  0.16440  0.78500  Biso   1.000  C
  C15      1.0000 0.46880  0.21040  0.77220  Biso   1.000  C
  C16      1.0000 0.43935  0.22675  0.57010  Biso   1.000  C
  C17      1.0000 0.43225  0.22475  0.61710  Biso   1.000  C
  C18      1.0000 0.41768  0.99618  0.78144  Biso   1.000  C
  C19      1.0000 0.40477  0.03677  0.74886  Biso   1.000  C
  C20      1.0000 0.50340  0.23842  0.81780  Biso   1.000  C
  C21      1.0000 0.50766  0.29083  0.78352  Biso   1.000  C
  C22      1.0000 0.52010  0.32516  0.79542  Biso   1.000  C
  C23      1.0000 0.52675  0.30663  0.84142  Biso   1.000  C
  C24      1.0000 0.52357  0.25400  0.87384  Biso   1.000  C
  C25      1.0000 0.51125  0.21996  0.86192  Biso   1.000  C
  C26      1.0000 0.52432  0.38103  0.76022  Biso   1.000  C
  C27      1.0000 0.43685  0.81416  0.84254  Biso   1.000  C
  C28      1.0000 0.43640  0.83582  0.79192  Biso   1.000  C
  C29      1.0000 0.42799  0.88434  0.76774  Biso   1.000  C
  C30      1.0000 0.41974  0.91021  0.79558  Biso   1.000  C
  C31      1.0000 0.42094  0.88925  0.84600  Biso   1.000  C
  C32      1.0000 0.42973  0.84136  0.86886  Biso   1.000  C
  C33      1.0000 0.44816  0.80916  0.76060  Biso   1.000  C
  C34      1.0000 0.43459  0.82090  0.91982  Biso   1.000  C
  C35      1.0000 0.53341  0.23554  0.92204  Biso   1.000  C
  C36      1.0000 0.46956  0.43189  0.35202  Biso   1.000  C
  C37      1.0000 0.14745  0.37352  0.35460  Biso   1.000  C
  C38      1.0000 0.13026  0.31473  0.38570  Biso   1.000  C
  C39      1.0000 0.08237  0.28351  0.44018  Biso   1.000  C
  C40      1.0000 0.06686  0.23020  0.46606  Biso   1.000  C
  C41      1.0000 0.09810  0.20750  0.43836  Biso   1.000  C
  C42      1.0000 0.14527  0.23915  0.38418  Biso   1.000  C
  C43      1.0000 0.16154  0.29248  0.35862  Biso   1.000  C
  C44      1.0000 0.90229  0.14819  0.66942  Biso   1.000  C
  C45      1.0000 0.89961  0.18421  0.68478  Biso   1.000  C
  C46      1.0000 0.85218  0.17668  0.73324  Biso   1.000  C
  C47      1.0000 0.80745  0.13265  0.76610  Biso   1.000  C
  C48      1.0000 0.81085  0.09735  0.75030  Biso   1.000  C
  C49      1.0000 0.85956  0.10606  0.70088  Biso   1.000  C
  C50      1.0000 0.76750  0.05060  0.78500  Biso   1.000  C
  C51      1.0000 0.75900  0.01740  0.77220  Biso   1.000  C
  C52      1.0000 0.99055  0.20315  0.57010  Biso   1.000  C
  C53      1.0000 0.95065  0.15815  0.61710  Biso   1.000  C
  C54      1.0000 0.80088  0.22238  0.78144  Biso   1.000  C
  C55      1.0000 0.84637  0.21437  0.74886  Biso   1.000  C
  C56      1.0000 0.67880  0.94378  0.81780  Biso   1.000  C
  C57      1.0000 0.70882  0.92565  0.78352  Biso   1.000  C
  C58      1.0000 0.68448  0.87942  0.79542  Biso   1.000  C
  C59      1.0000 0.63183  0.85195  0.84142  Biso   1.000  C
  C60      1.0000 0.60259  0.87216  0.87384  Biso   1.000  C
  C61      1.0000 0.62683  0.91812  0.86192  Biso   1.000  C
  C62      1.0000 0.71546  0.85875  0.76022  Biso   1.000  C
  C63      1.0000 0.72061  0.34330  0.84254  Biso   1.000  C
  C64      1.0000 0.77168  0.37226  0.79192  Biso   1.000  C
  C65      1.0000 0.80427  0.34792  0.76774  Biso   1.000  C
  C66      1.0000 0.78468  0.29421  0.79558  Biso   1.000  C
  C67      1.0000 0.73306  0.26475  0.84600  Biso   1.000  C
  C68      1.0000 0.70141  0.28978  0.86886  Biso   1.000  C
  C69      1.0000 0.79124  0.43024  0.76060  Biso   1.000  C
  C70      1.0000 0.64559  0.25928  0.91982  Biso   1.000  C
  C71      1.0000 0.54455  0.84242  0.92204  Biso   1.000  C
  C72      1.0000 0.17842  0.21609  0.35202  Biso   1.000  C
  C73      1.0000 0.27188  0.14745  0.35460  Biso   1.000  C
  C74      1.0000 0.29957  0.13026  0.38570  Biso   1.000  C
  C75      1.0000 0.27631  0.08237  0.44018  Biso   1.000  C
  C76      1.0000 0.30374  0.06686  0.46606  Biso   1.000  C
  C77      1.0000 0.35414  0.09810  0.43836  Biso   1.000  C
  C78      1.0000 0.37667  0.14527  0.38418  Biso   1.000  C
  C79      1.0000 0.34890  0.16154  0.35862  Biso   1.000  C
  C80      1.0000 0.18239  0.90229  0.66942  Biso   1.000  C
  C81      1.0000 0.13101  0.89961  0.68478  Biso   1.000  C
  C82      1.0000 0.09008  0.85218  0.73324  Biso   1.000  C
  C83      1.0000 0.10125  0.80745  0.76610  Biso   1.000  C
  C84      1.0000 0.15235  0.81085  0.75030  Biso   1.000  C
  C85      1.0000 0.19306  0.85956  0.70088  Biso   1.000  C
  C86      1.0000 0.16440  0.76750  0.78500  Biso   1.000  C
  C87      1.0000 0.21040  0.75900  0.77220  Biso   1.000  C
  C88      1.0000 0.22675  0.99055  0.57010  Biso   1.000  C
  C89      1.0000 0.22475  0.95065  0.61710  Biso   1.000  C
  C90      1.0000 0.99618  0.80088  0.78144  Biso   1.000  C
  C91      1.0000 0.03677  0.84637  0.74886  Biso   1.000  C
  C92      1.0000 0.23842  0.67880  0.81780  Biso   1.000  C
  C93      1.0000 0.29083  0.70882  0.78352  Biso   1.000  C
  C94      1.0000 0.32516  0.68448  0.79542  Biso   1.000  C
  C95      1.0000 0.30663  0.63183  0.84142  Biso   1.000  C
  C96      1.0000 0.25400  0.60259  0.87384  Biso   1.000  C
  C97      1.0000 0.21996  0.62683  0.86192  Biso   1.000  C
  C98      1.0000 0.38103  0.71546  0.76022  Biso   1.000  C
  C99      1.0000 0.81416  0.72061  0.84254  Biso   1.000  C
  C100     1.0000 0.83582  0.77168  0.79192  Biso   1.000  C
  C101     1.0000 0.88434  0.80427  0.76774  Biso   1.000  C
  C102     1.0000 0.91021  0.78468  0.79558  Biso   1.000  C
  C103     1.0000 0.88925  0.73306  0.84600  Biso   1.000  C
  C104     1.0000 0.84136  0.70141  0.86886  Biso   1.000  C
  C105     1.0000 0.80916  0.79124  0.76060  Biso   1.000  C
  C106     1.0000 0.82090  0.64559  0.91982  Biso   1.000  C
  C107     1.0000 0.23554  0.54455  0.92204  Biso   1.000  C
  C108     1.0000 0.43189  0.17842  0.35202  Biso   1.000  C
  C109     1.0000 0.37352  0.49795  0.35460  Biso   1.000  C
  C110     1.0000 0.31473  0.48404  0.38570  Biso   1.000  C
  C111     1.0000 0.28351  0.47745  0.44018  Biso   1.000  C
  C112     1.0000 0.23020  0.46708  0.46606  Biso   1.000  C
  C113     1.0000 0.20750  0.46354  0.43836  Biso   1.000  C
  C114     1.0000 0.23915  0.47055  0.38418  Biso   1.000  C
  C115     1.0000 0.29248  0.47984  0.35862  Biso   1.000  C
  C116     1.0000 0.14819  0.42829  0.66942  Biso   1.000  C
  C117     1.0000 0.18421  0.41561  0.68478  Biso   1.000  C
  C118     1.0000 0.17668  0.41458  0.73324  Biso   1.000  C
  C119     1.0000 0.13265  0.42645  0.76610  Biso   1.000  C
  C120     1.0000 0.09735  0.43885  0.75030  Biso   1.000  C
  C121     1.0000 0.10606  0.43956  0.70088  Biso   1.000  C
  C122     1.0000 0.05060  0.44750  0.78500  Biso   1.000  C
  C123     1.0000 0.01740  0.46880  0.77220  Biso   1.000  C
  C124     1.0000 0.20315  0.43935  0.57010  Biso   1.000  C
  C125     1.0000 0.15815  0.43225  0.61710  Biso   1.000  C
  C126     1.0000 0.22238  0.41768  0.78144  Biso   1.000  C
  C127     1.0000 0.21437  0.40477  0.74886  Biso   1.000  C
  C128     1.0000 0.94378  0.50340  0.81780  Biso   1.000  C
  C129     1.0000 0.92565  0.50766  0.78352  Biso   1.000  C
  C130     1.0000 0.87942  0.52010  0.79542  Biso   1.000  C
  C131     1.0000 0.85195  0.52675  0.84142  Biso   1.000  C
  C132     1.0000 0.87216  0.52357  0.87384  Biso   1.000  C
  C133     1.0000 0.91812  0.51125  0.86192  Biso   1.000  C
  C134     1.0000 0.85875  0.52432  0.76022  Biso   1.000  C
  C135     1.0000 0.34330  0.43685  0.84254  Biso   1.000  C
  C136     1.0000 0.37226  0.43640  0.79192  Biso   1.000  C
  C137     1.0000 0.34792  0.42799  0.76774  Biso   1.000  C
  C138     1.0000 0.29421  0.41974  0.79558  Biso   1.000  C
  C139     1.0000 0.26475  0.42094  0.84600  Biso   1.000  C
  C140     1.0000 0.28978  0.42973  0.86886  Biso   1.000  C
  C141     1.0000 0.43024  0.44816  0.76060  Biso   1.000  C
  C142     1.0000 0.25928  0.43459  0.91982  Biso   1.000  C
  C143     1.0000 0.84242  0.53341  0.92204  Biso   1.000  C
  C144     1.0000 0.21609  0.46956  0.35202  Biso   1.000  C
  C145     1.0000 0.50205  0.72812  0.64540  Biso   1.000  C
  C146     1.0000 0.51596  0.70043  0.61430  Biso   1.000  C
  C147     1.0000 0.52255  0.72369  0.55982  Biso   1.000  C
  C148     1.0000 0.53292  0.69626  0.53394  Biso   1.000  C
  C149     1.0000 0.53646  0.64586  0.56164  Biso   1.000  C
  C150     1.0000 0.52945  0.62333  0.61582  Biso   1.000  C
  C151     1.0000 0.52016  0.65110  0.64138  Biso   1.000  C
  C152     1.0000 0.57171  0.81761  0.33058  Biso   1.000  C
  C153     1.0000 0.58439  0.86899  0.31522  Biso   1.000  C
  C154     1.0000 0.58542  0.90992  0.26676  Biso   1.000  C
  C155     1.0000 0.57355  0.89875  0.23390  Biso   1.000  C
  C156     1.0000 0.56115  0.84765  0.24970  Biso   1.000  C
  C157     1.0000 0.56044  0.80694  0.29912  Biso   1.000  C
  C158     1.0000 0.55250  0.83560  0.21500  Biso   1.000  C
  C159     1.0000 0.53120  0.78960  0.22780  Biso   1.000  C
  C160     1.0000 0.56065  0.77325  0.42990  Biso   1.000  C
  C161     1.0000 0.56775  0.77525  0.38290  Biso   1.000  C
  C162     1.0000 0.58232  0.00382  0.21856  Biso   1.000  C
  C163     1.0000 0.59523  0.96323  0.25114  Biso   1.000  C
  C164     1.0000 0.49660  0.76158  0.18220  Biso   1.000  C
  C165     1.0000 0.49234  0.70917  0.21648  Biso   1.000  C
  C166     1.0000 0.47990  0.67484  0.20458  Biso   1.000  C
  C167     1.0000 0.47325  0.69337  0.15858  Biso   1.000  C
  C168     1.0000 0.47643  0.74600  0.12616  Biso   1.000  C
  C169     1.0000 0.48875  0.78004  0.13808  Biso   1.000  C
  C170     1.0000 0.47568  0.61897  0.23978  Biso   1.000  C
  C171     1.0000 0.56315  0.18584  0.15746  Biso   1.000  C
  C172     1.0000 0.56360  0.16418  0.20808  Biso   1.000  C
  C173     1.0000 0.57201  0.11566  0.23226  Biso   1.000  C
  C174     1.0000 0.58026  0.08979  0.20442  Biso   1.000  C
  C175     1.0000 0.57906  0.11075  0.15400  Biso   1.000  C
  C176     1.0000 0.57027  0.15864  0.13114  Biso   1.000  C
  C177     1.0000 0.55184  0.19084  0.23940  Biso   1.000  C
  C178     1.0000 0.56541  0.17910  0.08018  Biso   1.000  C
  C179     1.0000 0.46659  0.76446  0.07796  Biso   1.000  C
  C180     1.0000 0.53044  0.56811  0.64798  Biso   1.000  C
  C181     1.0000 0.85255  0.62648  0.64540  Biso   1.000  C
  C182     1.0000 0.86974  0.68527  0.61430  Biso   1.000  C
  C183     1.0000 0.91763  0.71649  0.55982  Biso   1.000  C
  C184     1.0000 0.93314  0.76980  0.53394  Biso   1.000  C
  C185     1.0000 0.90190  0.79250  0.56164  Biso   1.000  C
  C186     1.0000 0.85473  0.76085  0.61582  Biso   1.000  C
  C187     1.0000 0.83846  0.70752  0.64138  Biso   1.000  C
  C188     1.0000 0.09771  0.85181  0.33058  Biso   1.000  C
  C189     1.0000 0.10039  0.81579  0.31522  Biso   1.000  C
  C190     1.0000 0.14782  0.82332  0.26676  Biso   1.000  C
  C191     1.0000 0.19255  0.86735  0.23390  Biso   1.000  C
  C192     1.0000 0.18915  0.90265  0.24970  Biso   1.000  C
  C193     1.0000 0.14044  0.89394  0.29912  Biso   1.000  C
  C194     1.0000 0.23250  0.94940  0.21500  Biso   1.000  C
  C195     1.0000 0.24100  0.98260  0.22780  Biso   1.000  C
  C196     1.0000 0.00945  0.79685  0.42990  Biso   1.000  C
  C197     1.0000 0.04935  0.84185  0.38290  Biso   1.000  C
  C198     1.0000 0.19912  0.77762  0.21856  Biso   1.000  C
  C199     1.0000 0.15363  0.78563  0.25114  Biso   1.000  C
  C200     1.0000 0.32120  0.05622  0.18220  Biso   1.000  C
  C201     1.0000 0.29118  0.07435  0.21648  Biso   1.000  C
  C202     1.0000 0.31552  0.12058  0.20458  Biso   1.000  C
  C203     1.0000 0.36817  0.14805  0.15858  Biso   1.000  C
  C204     1.0000 0.39741  0.12784  0.12616  Biso   1.000  C
  C205     1.0000 0.37317  0.08188  0.13808  Biso   1.000  C
  C206     1.0000 0.28454  0.14125  0.23978  Biso   1.000  C
  C207     1.0000 0.27939  0.65670  0.15746  Biso   1.000  C
  C208     1.0000 0.22832  0.62774  0.20808  Biso   1.000  C
  C209     1.0000 0.19573  0.65208  0.23226  Biso   1.000  C
  C210     1.0000 0.21532  0.70579  0.20442  Biso   1.000  C
  C211     1.0000 0.26694  0.73525  0.15400  Biso   1.000  C
  C212     1.0000 0.29859  0.71022  0.13114  Biso   1.000  C
  C213     1.0000 0.20876  0.56976  0.23940  Biso   1.000  C
  C214     1.0000 0.35441  0.74072  0.08018  Biso   1.000  C
  C215     1.0000 0.45545  0.15758  0.07796  Biso   1.000  C
  C216     1.0000 0.82158  0.78391  0.64798  Biso   1.000  C
  C217     1.0000 0.72812  0.85255  0.64540  Biso   1.000  C
  C218     1.0000 0.70043  0.86974  0.61430  Biso   1.000  C
  C219     1.0000 0.72369  0.91763  0.55982  Biso   1.000  C
  C220     1.0000 0.69626  0.93314  0.53394  Biso   1.000  C
  C221     1.0000 0.64586  0.90190  0.56164  Biso   1.000  C
  C222     1.0000 0.62333  0.85473  0.61582  Biso   1.000  C
  C223     1.0000 0.65110  0.83846  0.64138  Biso   1.000  C
  C224     1.0000 0.81761  0.09771  0.33058  Biso   1.000  C
  C225     1.0000 0.86899  0.10039  0.31522  Biso   1.000  C
  C226     1.0000 0.90992  0.14782  0.26676  Biso   1.000  C
  C227     1.0000 0.89875  0.19255  0.23390  Biso   1.000  C
  C228     1.0000 0.84765  0.18915  0.24970  Biso   1.000  C
  C229     1.0000 0.80694  0.14044  0.29912  Biso   1.000  C
  C230     1.0000 0.83560  0.23250  0.21500  Biso   1.000  C
  C231     1.0000 0.78960  0.24100  0.22780  Biso   1.000  C
  C232     1.0000 0.77325  0.00945  0.42990  Biso   1.000  C
  C233     1.0000 0.77525  0.04935  0.38290  Biso   1.000  C
  C234     1.0000 0.00382  0.19912  0.21856  Biso   1.000  C
  C235     1.0000 0.96323  0.15363  0.25114  Biso   1.000  C
  C236     1.0000 0.76158  0.32120  0.18220  Biso   1.000  C
  C237     1.0000 0.70917  0.29118  0.21648  Biso   1.000  C
  C238     1.0000 0.67484  0.31552  0.20458  Biso   1.000  C
  C239     1.0000 0.69337  0.36817  0.15858  Biso   1.000  C
  C240     1.0000 0.74600  0.39741  0.12616  Biso   1.000  C
  C241     1.0000 0.78004  0.37317  0.13808  Biso   1.000  C
  C242     1.0000 0.61897  0.28454  0.23978  Biso   1.000  C
  C243     1.0000 0.18584  0.27939  0.15746  Biso   1.000  C
  C244     1.0000 0.16418  0.22832  0.20808  Biso   1.000  C
  C245     1.0000 0.11566  0.19573  0.23226  Biso   1.000  C
  C246     1.0000 0.08979  0.21532  0.20442  Biso   1.000  C
  C247     1.0000 0.11075  0.26694  0.15400  Biso   1.000  C
  C248     1.0000 0.15864  0.29859  0.13114  Biso   1.000  C
  C249     1.0000 0.19084  0.20876  0.23940  Biso   1.000  C
  C250     1.0000 0.17910  0.35441  0.08018  Biso   1.000  C
  C251     1.0000 0.76446  0.45545  0.07796  Biso   1.000  C
  C252     1.0000 0.56811  0.82158  0.64798  Biso   1.000  C
  C253     1.0000 0.62648  0.50205  0.64540  Biso   1.000  C
  C254     1.0000 0.68527  0.51596  0.61430  Biso   1.000  C
  C255     1.0000 0.71649  0.52255  0.55982  Biso   1.000  C
  C256     1.0000 0.76980  0.53292  0.53394  Biso   1.000  C
  C257     1.0000 0.79250  0.53646  0.56164  Biso   1.000  C
  C258     1.0000 0.76085  0.52945  0.61582  Biso   1.000  C
  C259     1.0000 0.70752  0.52016  0.64138  Biso   1.000  C
  C260     1.0000 0.85181  0.57171  0.33058  Biso   1.000  C
  C261     1.0000 0.81579  0.58439  0.31522  Biso   1.000  C
  C262     1.0000 0.82332  0.58542  0.26676  Biso   1.000  C
  C263     1.0000 0.86735  0.57355  0.23390  Biso   1.000  C
  C264     1.0000 0.90265  0.56115  0.24970  Biso   1.000  C
  C265     1.0000 0.89394  0.56044  0.29912  Biso   1.000  C
  C266     1.0000 0.94940  0.55250  0.21500  Biso   1.000  C
  C267     1.0000 0.98260  0.53120  0.22780  Biso   1.000  C
  C268     1.0000 0.79685  0.56065  0.42990  Biso   1.000  C
  C269     1.0000 0.84185  0.56775  0.38290  Biso   1.000  C
  C270     1.0000 0.77762  0.58232  0.21856  Biso   1.000  C
  C271     1.0000 0.78563  0.59523  0.25114  Biso   1.000  C
  C272     1.0000 0.05622  0.49660  0.18220  Biso   1.000  C
  C273     1.0000 0.07435  0.49234  0.21648  Biso   1.000  C
  C274     1.0000 0.12058  0.47990  0.20458  Biso   1.000  C
  C275     1.0000 0.14805  0.47325  0.15858  Biso   1.000  C
  C276     1.0000 0.12784  0.47643  0.12616  Biso   1.000  C
  C277     1.0000 0.08188  0.48875  0.13808  Biso   1.000  C
  C278     1.0000 0.14125  0.47568  0.23978  Biso   1.000  C
  C279     1.0000 0.65670  0.56315  0.15746  Biso   1.000  C
  C280     1.0000 0.62774  0.56360  0.20808  Biso   1.000  C
  C281     1.0000 0.65208  0.57201  0.23226  Biso   1.000  C
  C282     1.0000 0.70579  0.58026  0.20442  Biso   1.000  C
  C283     1.0000 0.73525  0.57906  0.15400  Biso   1.000  C
  C284     1.0000 0.71022  0.57027  0.13114  Biso   1.000  C
  C285     1.0000 0.56976  0.55184  0.23940  Biso   1.000  C
  C286     1.0000 0.74072  0.56541  0.08018  Biso   1.000  C
  C287     1.0000 0.15758  0.46659  0.07796  Biso   1.000  C
  C288     1.0000 0.78391  0.53044  0.64798  Biso   1.000  C
  N1       1.0000 0.43910  0.12660  0.83800  Biso   1.000  N
  N2       1.0000 0.45460  0.14870  0.85780  Biso   1.000  N
  N3       1.0000 0.47370  0.20080  0.81640  Biso   1.000  N
  N4       1.0000 0.43230  0.27260  0.60680  Biso   1.000  N
  N5       1.0000 0.43916  0.30496  0.55368  Biso   1.000  N
  N6       1.0000 0.44365  0.27605  0.53170  Biso   1.000  N
  N7       1.0000 0.40300  0.95640  0.77940  Biso   1.000  N
  N8       1.0000 0.38220  0.97130  0.74740  Biso   1.000  N
  N9       1.0000 0.38333  0.01953  0.72934  Biso   1.000  N
  N10      1.0000 0.72290  0.03540  0.83800  Biso   1.000  N
  N11      1.0000 0.68760  0.99350  0.85780  Biso   1.000  N
  N12      1.0000 0.70990  0.98280  0.81640  Biso   1.000  N
  N13      1.0000 0.96090  0.12060  0.60680  Biso   1.000  N
  N14      1.0000 0.00716  0.14136  0.55368  Biso   1.000  N
  N15      1.0000 0.02465  0.19225  0.53170  Biso   1.000  N
  N16      1.0000 0.81760  0.26420  0.77940  Biso   1.000  N
  N17      1.0000 0.87040  0.28130  0.74740  Biso   1.000  N
  N18      1.0000 0.88733  0.25113  0.72934  Biso   1.000  N
  N19      1.0000 0.12660  0.72290  0.83800  Biso   1.000  N
  N20      1.0000 0.14870  0.68760  0.85780  Biso   1.000  N
  N21      1.0000 0.20080  0.70990  0.81640  Biso   1.000  N
  N22      1.0000 0.27260  0.96090  0.60680  Biso   1.000  N
  N23      1.0000 0.30496  0.00716  0.55368  Biso   1.000  N
  N24      1.0000 0.27605  0.02465  0.53170  Biso   1.000  N
  N25      1.0000 0.95640  0.81760  0.77940  Biso   1.000  N
  N26      1.0000 0.97130  0.87040  0.74740  Biso   1.000  N
  N27      1.0000 0.01953  0.88733  0.72934  Biso   1.000  N
  N28      1.0000 0.03540  0.43910  0.83800  Biso   1.000  N
  N29      1.0000 0.99350  0.45460  0.85780  Biso   1.000  N
  N30      1.0000 0.98280  0.47370  0.81640  Biso   1.000  N
  N31      1.0000 0.12060  0.43230  0.60680  Biso   1.000  N
  N32      1.0000 0.14136  0.43916  0.55368  Biso   1.000  N
  N33      1.0000 0.19225  0.44365  0.53170  Biso   1.000  N
  N34      1.0000 0.26420  0.40300  0.77940  Biso   1.000  N
  N35      1.0000 0.28130  0.38220  0.74740  Biso   1.000  N
  N36      1.0000 0.25113  0.38333  0.72934  Biso   1.000  N
  N37      1.0000 0.56090  0.87340  0.16200  Biso   1.000  N
  N38      1.0000 0.54540  0.85130  0.14220  Biso   1.000  N
  N39      1.0000 0.52630  0.79920  0.18360  Biso   1.000  N
  N40      1.0000 0.56770  0.72740  0.39320  Biso   1.000  N
  N41      1.0000 0.56084  0.69504  0.44632  Biso   1.000  N
  N42      1.0000 0.55635  0.72395  0.46830  Biso   1.000  N
  N43      1.0000 0.59700  0.04360  0.22060  Biso   1.000  N
  N44      1.0000 0.61780  0.02870  0.25260  Biso   1.000  N
  N45      1.0000 0.61667  0.98047  0.27066  Biso   1.000  N
  N46      1.0000 0.27710  0.96460  0.16200  Biso   1.000  N
  N47      1.0000 0.31240  0.00650  0.14220  Biso   1.000  N
  N48      1.0000 0.29010  0.01720  0.18360  Biso   1.000  N
  N49      1.0000 0.03910  0.87940  0.39320  Biso   1.000  N
  N50      1.0000 0.99284  0.85864  0.44632  Biso   1.000  N
  N51      1.0000 0.97535  0.80775  0.46830  Biso   1.000  N
  N52      1.0000 0.18240  0.73580  0.22060  Biso   1.000  N
  N53      1.0000 0.12960  0.71870  0.25260  Biso   1.000  N
  N54      1.0000 0.11267  0.74887  0.27066  Biso   1.000  N
  N55      1.0000 0.87340  0.27710  0.16200  Biso   1.000  N
  N56      1.0000 0.85130  0.31240  0.14220  Biso   1.000  N
  N57      1.0000 0.79920  0.29010  0.18360  Biso   1.000  N
  N58      1.0000 0.72740  0.03910  0.39320  Biso   1.000  N
  N59      1.0000 0.69504  0.99284  0.44632  Biso   1.000  N
  N60      1.0000 0.72395  0.97535  0.46830  Biso   1.000  N
  N61      1.0000 0.04360  0.18240  0.22060  Biso   1.000  N
  N62      1.0000 0.02870  0.12960  0.25260  Biso   1.000  N
  N63      1.0000 0.98047  0.11267  0.27066  Biso   1.000  N
  N64      1.0000 0.96460  0.56090  0.16200  Biso   1.000  N
  N65      1.0000 0.00650  0.54540  0.14220  Biso   1.000  N
  N66      1.0000 0.01720  0.52630  0.18360  Biso   1.000  N
  N67      1.0000 0.87940  0.56770  0.39320  Biso   1.000  N
  N68      1.0000 0.85864  0.56084  0.44632  Biso   1.000  N
  N69      1.0000 0.80775  0.55635  0.46830  Biso   1.000  N
  N70      1.0000 0.73580  0.59700  0.22060  Biso   1.000  N
  N71      1.0000 0.71870  0.61780  0.25260  Biso   1.000  N
  N72      1.0000 0.74887  0.61667  0.27066  Biso   1.000  N
  O1       1.0000 0.51068  0.23207  0.37498  Biso   1.000  O
  O2       1.0000 0.49527  0.29165  0.31074  Biso   1.000  O
  O3       1.0000 0.47515  0.44945  0.30396  Biso   1.000  O
  O4       1.0000 0.46320  0.45580  0.37696  Biso   1.000  O
  O5       1.0000 0.45260  0.83325  0.71238  Biso   1.000  O
  O6       1.0000 0.45401  0.76503  0.78492  Biso   1.000  O
  O7       1.0000 0.54146  0.12975  0.39828  Biso   1.000  O
  O8       1.0000 0.51562  0.33852  0.18972  Biso   1.000  O
  O9       1.0000 0.43162  0.84958  0.93844  Biso   1.000  O
  O10      1.0000 0.44255  0.77734  0.93922  Biso   1.000  O
  O11      1.0000 0.54213  0.19267  0.93952  Biso   1.000  O
  O12      1.0000 0.53195  0.26491  0.93868  Biso   1.000  O
  O13      1.0000 0.52388  0.39700  0.71494  Biso   1.000  O
  O14      1.0000 0.52763  0.40794  0.77876  Biso   1.000  O
  O15      1.0000 0.11434  0.39295  0.37498  Biso   1.000  O
  O16      1.0000 0.19399  0.39761  0.31074  Biso   1.000  O
  O17      1.0000 0.22089  0.24659  0.30396  Biso   1.000  O
  O18      1.0000 0.15984  0.16724  0.37696  Biso   1.000  O
  O19      1.0000 0.83502  0.45437  0.71238  Biso   1.000  O
  O20      1.0000 0.76107  0.45005  0.78492  Biso   1.000  O
  O21      1.0000 0.06026  0.47197  0.39828  Biso   1.000  O
  O22      1.0000 0.29466  0.47176  0.18972  Biso   1.000  O
  O23      1.0000 0.62994  0.21198  0.93844  Biso   1.000  O
  O24      1.0000 0.61823  0.28344  0.93922  Biso   1.000  O
  O25      1.0000 0.51835  0.86781  0.93952  Biso   1.000  O
  O26      1.0000 0.52937  0.79641  0.93868  Biso   1.000  O
  O27      1.0000 0.76118  0.88806  0.71494  Biso   1.000  O
  O28      1.0000 0.69361  0.81330  0.77876  Biso   1.000  O
  O29      1.0000 0.23207  0.11434  0.37498  Biso   1.000  O
  O30      1.0000 0.29165  0.19399  0.31074  Biso   1.000  O
  O31      1.0000 0.44945  0.22089  0.30396  Biso   1.000  O
  O32      1.0000 0.45580  0.15984  0.37696  Biso   1.000  O
  O33      1.0000 0.83325  0.83502  0.71238  Biso   1.000  O
  O34      1.0000 0.76503  0.76107  0.78492  Biso   1.000  O
  O35      1.0000 0.12975  0.06026  0.39828  Biso   1.000  O
  O36      1.0000 0.33852  0.29466  0.18972  Biso   1.000  O
  O37      1.0000 0.84958  0.62994  0.93844  Biso   1.000  O
  O38      1.0000 0.77734  0.61823  0.93922  Biso   1.000  O
  O39      1.0000 0.19267  0.51835  0.93952  Biso   1.000  O
  O40      1.0000 0.26491  0.52937  0.93868  Biso   1.000  O
  O41      1.0000 0.39700  0.76118  0.71494  Biso   1.000  O
  O42      1.0000 0.40794  0.69361  0.77876  Biso   1.000  O
  O43      1.0000 0.39295  0.51068  0.37498  Biso   1.000  O
  O44      1.0000 0.39761  0.49527  0.31074  Biso   1.000  O
  O45      1.0000 0.24659  0.47515  0.30396  Biso   1.000  O
  O46      1.0000 0.16724  0.46320  0.37696  Biso   1.000  O
  O47      1.0000 0.45437  0.45260  0.71238  Biso   1.000  O
  O48      1.0000 0.45005  0.45401  0.78492  Biso   1.000  O
  O49      1.0000 0.47197  0.54146  0.39828  Biso   1.000  O
  O50      1.0000 0.47176  0.51562  0.18972  Biso   1.000  O
  O51      1.0000 0.21198  0.43162  0.93844  Biso   1.000  O
  O52      1.0000 0.28344  0.44255  0.93922  Biso   1.000  O
  O53      1.0000 0.86781  0.54213  0.93952  Biso   1.000  O
  O54      1.0000 0.79641  0.53195  0.93868  Biso   1.000  O
  O55      1.0000 0.88806  0.52388  0.71494  Biso   1.000  O
  O56      1.0000 0.81330  0.52763  0.77876  Biso   1.000  O
  O57      1.0000 0.48932  0.76793  0.62502  Biso   1.000  O
  O58      1.0000 0.50473  0.70835  0.68926  Biso   1.000  O
  O59      1.0000 0.52485  0.55055  0.69604  Biso   1.000  O
  O60      1.0000 0.53680  0.54420  0.62304  Biso   1.000  O
  O61      1.0000 0.54740  0.16675  0.28762  Biso   1.000  O
  O62      1.0000 0.54599  0.23497  0.21508  Biso   1.000  O
  O63      1.0000 0.45854  0.87025  0.60172  Biso   1.000  O
  O64      1.0000 0.48438  0.66148  0.81028  Biso   1.000  O
  O65      1.0000 0.56838  0.15042  0.06156  Biso   1.000  O
  O66      1.0000 0.55745  0.22266  0.06078  Biso   1.000  O
  O67      1.0000 0.45787  0.80733  0.06048  Biso   1.000  O
  O68      1.0000 0.46805  0.73509  0.06132  Biso   1.000  O
  O69      1.0000 0.47612  0.60300  0.28506  Biso   1.000  O
  O70      1.0000 0.47237  0.59206  0.22124  Biso   1.000  O
  O71      1.0000 0.88566  0.60705  0.62502  Biso   1.000  O
  O72      1.0000 0.80601  0.60239  0.68926  Biso   1.000  O
  O73      1.0000 0.77911  0.75341  0.69604  Biso   1.000  O
  O74      1.0000 0.84016  0.83276  0.62304  Biso   1.000  O
  O75      1.0000 0.16498  0.54563  0.28762  Biso   1.000  O
  O76      1.0000 0.23893  0.54995  0.21508  Biso   1.000  O
  O77      1.0000 0.93974  0.52803  0.60172  Biso   1.000  O
  O78      1.0000 0.70534  0.52824  0.81028  Biso   1.000  O
  O79      1.0000 0.37006  0.78802  0.06156  Biso   1.000  O
  O80      1.0000 0.38177  0.71656  0.06078  Biso   1.000  O
  O81      1.0000 0.48165  0.13219  0.06048  Biso   1.000  O
  O82      1.0000 0.47063  0.20359  0.06132  Biso   1.000  O
  O83      1.0000 0.23882  0.11194  0.28506  Biso   1.000  O
  O84      1.0000 0.30639  0.18670  0.22124  Biso   1.000  O
  O85      1.0000 0.76793  0.88566  0.62502  Biso   1.000  O
  O86      1.0000 0.70835  0.80601  0.68926  Biso   1.000  O
  O87      1.0000 0.55055  0.77911  0.69604  Biso   1.000  O
  O88      1.0000 0.54420  0.84016  0.62304  Biso   1.000  O
  O89      1.0000 0.16675  0.16498  0.28762  Biso   1.000  O
  O90      1.0000 0.23497  0.23893  0.21508  Biso   1.000  O
  O91      1.0000 0.87025  0.93974  0.60172  Biso   1.000  O
  O92      1.0000 0.66148  0.70534  0.81028  Biso   1.000  O
  O93      1.0000 0.15042  0.37006  0.06156  Biso   1.000  O
  O94      1.0000 0.22266  0.38177  0.06078  Biso   1.000  O
  O95      1.0000 0.80733  0.48165  0.06048  Biso   1.000  O
  O96      1.0000 0.73509  0.47063  0.06132  Biso   1.000  O
  O97      1.0000 0.60300  0.23882  0.28506  Biso   1.000  O
  O98      1.0000 0.59206  0.30639  0.22124  Biso   1.000  O
  O99      1.0000 0.60705  0.48932  0.62502  Biso   1.000  O
  O100     1.0000 0.60239  0.50473  0.68926  Biso   1.000  O
  O101     1.0000 0.75341  0.52485  0.69604  Biso   1.000  O
  O102     1.0000 0.83276  0.53680  0.62304  Biso   1.000  O
  O103     1.0000 0.54563  0.54740  0.28762  Biso   1.000  O
  O104     1.0000 0.54995  0.54599  0.21508  Biso   1.000  O
  O105     1.0000 0.52803  0.45854  0.60172  Biso   1.000  O
  O106     1.0000 0.52824  0.48438  0.81028  Biso   1.000  O
  O107     1.0000 0.78802  0.56838  0.06156  Biso   1.000  O
  O108     1.0000 0.71656  0.55745  0.06078  Biso   1.000  O
  O109     1.0000 0.13219  0.45787  0.06048  Biso   1.000  O
  O110     1.0000 0.20359  0.46805  0.06132  Biso   1.000  O
  O111     1.0000 0.11194  0.47612  0.28506  Biso   1.000  O
  O112     1.0000 0.18670  0.47237  0.22124  Biso   1.000  O
  O113     1.0000 0.42690  0.90191  1.00000  Biso   1.000  O
  O114     1.0000 0.47031  0.68036  0.00000  Biso   1.000  O
  O115     1.0000 0.57310  0.09809  0.00000  Biso   1.000  O
  O116     1.0000 0.52969  0.31964  0.00000  Biso   1.000  O
  O117     1.0000 0.90191  0.57310  1.00000  Biso   1.000  O
  O118     1.0000 0.68036  0.52969  0.00000  Biso   1.000  O
  O119     1.0000 0.09809  0.42690  0.00000  Biso   1.000  O
  O120     1.0000 0.31964  0.47031  0.00000  Biso   1.000  O
