data_image0
_cell_length_a       8.63
_cell_length_b       13.5145
_cell_length_c       13.5145
_cell_angle_alpha    94.888
_cell_angle_beta     96.8852
_cell_angle_gamma    96.8852

_symmetry_space_group_name_H-M    P 1
_symmetry_int_tables_number       1

loop_
  _symmetry_equiv_pos_as_xyz
  'x, y, z'

loop_
  _atom_site_label
  _atom_site_occupancy
  _atom_site_fract_x
  _atom_site_fract_y
  _atom_site_fract_z
  _atom_site_thermal_displace_type
  _atom_site_B_iso_or_equiv
  _atom_site_type_symbol
  Ni1      1.0000 0.75000  0.67556  0.32444  Biso   1.000  Ni
  H1       1.0000 0.50320  0.60520  0.13680  Biso   1.000  H
  H2       1.0000 0.48500  0.60040  0.96320  Biso   1.000  H
  H3       1.0000 0.92990  0.74540  0.99480  Biso   1.000  H
  H4       1.0000 0.93860  0.74610  0.16870  Biso   1.000  H
  H5       1.0000 0.67150  0.59850  0.81970  Biso   1.000  H
  H6       1.0000 0.61170  0.70230  0.82270  Biso   1.000  H
  H7       1.0000 0.90210  0.57220  0.49880  Biso   1.000  H
  H8       1.0000 0.91740  0.57270  0.67230  Biso   1.000  H
  H9       1.0000 0.70500  0.82610  0.67650  Biso   1.000  H
  H10      1.0000 0.67740  0.80890  0.50130  Biso   1.000  H
  H11      1.0000 0.92260  0.67440  0.83140  Biso   1.000  H
  H12      1.0000 0.86220  0.77800  0.83360  Biso   1.000  H
  H13      1.0000 0.99680  0.86320  0.39480  Biso   1.000  H
  H14      1.0000 0.01500  0.03680  0.39960  Biso   1.000  H
  H15      1.0000 0.57010  0.00520  0.25460  Biso   1.000  H
  H16      1.0000 0.56140  0.83130  0.25390  Biso   1.000  H
  H17      1.0000 0.82850  0.18030  0.40150  Biso   1.000  H
  H18      1.0000 0.88830  0.17730  0.29770  Biso   1.000  H
  H19      1.0000 0.59790  0.50120  0.42780  Biso   1.000  H
  H20      1.0000 0.58260  0.32770  0.42730  Biso   1.000  H
  H21      1.0000 0.79500  0.32350  0.17390  Biso   1.000  H
  H22      1.0000 0.82260  0.49870  0.19110  Biso   1.000  H
  H23      1.0000 0.57740  0.16860  0.32560  Biso   1.000  H
  H24      1.0000 0.63780  0.16640  0.22200  Biso   1.000  H
  C1       1.0000 0.59200  0.63410  0.10730  Biso   1.000  C
  C2       1.0000 0.57900  0.63160  0.00420  Biso   1.000  C
  C3       1.0000 0.70400  0.67230  0.95990  Biso   1.000  C
  C4       1.0000 0.84100  0.71400  0.02280  Biso   1.000  C
  C5       1.0000 0.84400  0.71400  0.12480  Biso   1.000  C
  C6       1.0000 0.69400  0.66780  0.84700  Biso   1.000  C
  C7       1.0000 0.85500  0.62320  0.53600  Biso   1.000  C
  C8       1.0000 0.86800  0.62650  0.63870  Biso   1.000  C
  C9       1.0000 0.81500  0.70270  0.69330  Biso   1.000  C
  C10      1.0000 0.74600  0.77110  0.64190  Biso   1.000  C
  C11      1.0000 0.73100  0.76090  0.53790  Biso   1.000  C
  C12      1.0000 0.83300  0.70890  0.80650  Biso   1.000  C
  C13      1.0000 0.38300  0.65270  0.34710  Biso   1.000  C
  C14      1.0000 0.90800  0.89270  0.36590  Biso   1.000  C
  C15      1.0000 0.92100  0.99580  0.36840  Biso   1.000  C
  C16      1.0000 0.79600  0.04010  0.32770  Biso   1.000  C
  C17      1.0000 0.65900  0.97720  0.28600  Biso   1.000  C
  C18      1.0000 0.65600  0.87520  0.28600  Biso   1.000  C
  C19      1.0000 0.80600  0.15300  0.33220  Biso   1.000  C
  C20      1.0000 0.64500  0.46400  0.37680  Biso   1.000  C
  C21      1.0000 0.63200  0.36130  0.37350  Biso   1.000  C
  C22      1.0000 0.68500  0.30670  0.29730  Biso   1.000  C
  C23      1.0000 0.75400  0.35810  0.22890  Biso   1.000  C
  C24      1.0000 0.76900  0.46210  0.23910  Biso   1.000  C
  C25      1.0000 0.66700  0.19350  0.29110  Biso   1.000  C
  C26      1.0000 0.11700  0.65290  0.34730  Biso   1.000  C
  N1       1.0000 0.72440  0.67320  0.16800  Biso   1.000  N
  N2       1.0000 0.78300  0.68790  0.48450  Biso   1.000  N
  N3       1.0000 0.51050  0.66840  0.33060  Biso   1.000  N
  N4       1.0000 0.77560  0.83200  0.32680  Biso   1.000  N
  N5       1.0000 0.71700  0.51550  0.31210  Biso   1.000  N
  N6       1.0000 0.98950  0.66940  0.33160  Biso   1.000  N
  N7       1.0000 0.25000  0.62430  0.37570  Biso   1.000  N
  Ni2      1.0000 0.25000  0.32444  0.67556  Biso   1.000  Ni
  H25      1.0000 0.49680  0.39480  0.86320  Biso   1.000  H
  H26      1.0000 0.51500  0.39960  0.03680  Biso   1.000  H
  H27      1.0000 0.07010  0.25460  0.00520  Biso   1.000  H
  H28      1.0000 0.06140  0.25390  0.83130  Biso   1.000  H
  H29      1.0000 0.32850  0.40150  0.18030  Biso   1.000  H
  H30      1.0000 0.38830  0.29770  0.17730  Biso   1.000  H
  H31      1.0000 0.09790  0.42780  0.50120  Biso   1.000  H
  H32      1.0000 0.08260  0.42730  0.32770  Biso   1.000  H
  H33      1.0000 0.29500  0.17390  0.32350  Biso   1.000  H
  H34      1.0000 0.32260  0.19110  0.49870  Biso   1.000  H
  H35      1.0000 0.07740  0.32560  0.16860  Biso   1.000  H
  H36      1.0000 0.13780  0.22200  0.16640  Biso   1.000  H
  H37      1.0000 0.00320  0.13680  0.60520  Biso   1.000  H
  H38      1.0000 0.98500  0.96320  0.60040  Biso   1.000  H
  H39      1.0000 0.42990  0.99480  0.74540  Biso   1.000  H
  H40      1.0000 0.43860  0.16870  0.74610  Biso   1.000  H
  H41      1.0000 0.17150  0.81970  0.59850  Biso   1.000  H
  H42      1.0000 0.11170  0.82270  0.70230  Biso   1.000  H
  H43      1.0000 0.40210  0.49880  0.57220  Biso   1.000  H
  H44      1.0000 0.41740  0.67230  0.57270  Biso   1.000  H
  H45      1.0000 0.20500  0.67650  0.82610  Biso   1.000  H
  H46      1.0000 0.17740  0.50130  0.80890  Biso   1.000  H
  H47      1.0000 0.42260  0.83140  0.67440  Biso   1.000  H
  H48      1.0000 0.36220  0.83360  0.77800  Biso   1.000  H
  C27      1.0000 0.40800  0.36590  0.89270  Biso   1.000  C
  C28      1.0000 0.42100  0.36840  0.99580  Biso   1.000  C
  C29      1.0000 0.29600  0.32770  0.04010  Biso   1.000  C
  C30      1.0000 0.15900  0.28600  0.97720  Biso   1.000  C
  C31      1.0000 0.15600  0.28600  0.87520  Biso   1.000  C
  C32      1.0000 0.30600  0.33220  0.15300  Biso   1.000  C
  C33      1.0000 0.14500  0.37680  0.46400  Biso   1.000  C
  C34      1.0000 0.13200  0.37350  0.36130  Biso   1.000  C
  C35      1.0000 0.18500  0.29730  0.30670  Biso   1.000  C
  C36      1.0000 0.25400  0.22890  0.35810  Biso   1.000  C
  C37      1.0000 0.26900  0.23910  0.46210  Biso   1.000  C
  C38      1.0000 0.16700  0.29110  0.19350  Biso   1.000  C
  C39      1.0000 0.61700  0.34730  0.65290  Biso   1.000  C
  C40      1.0000 0.09200  0.10730  0.63410  Biso   1.000  C
  C41      1.0000 0.07900  0.00420  0.63160  Biso   1.000  C
  C42      1.0000 0.20400  0.95990  0.67230  Biso   1.000  C
  C43      1.0000 0.34100  0.02280  0.71400  Biso   1.000  C
  C44      1.0000 0.34400  0.12480  0.71400  Biso   1.000  C
  C45      1.0000 0.19400  0.84700  0.66780  Biso   1.000  C
  C46      1.0000 0.35500  0.53600  0.62320  Biso   1.000  C
  C47      1.0000 0.36800  0.63870  0.62650  Biso   1.000  C
  C48      1.0000 0.31500  0.69330  0.70270  Biso   1.000  C
  C49      1.0000 0.24600  0.64190  0.77110  Biso   1.000  C
  C50      1.0000 0.23100  0.53790  0.76090  Biso   1.000  C
  C51      1.0000 0.33300  0.80650  0.70890  Biso   1.000  C
  C52      1.0000 0.88300  0.34710  0.65270  Biso   1.000  C
  N8       1.0000 0.27560  0.32680  0.83200  Biso   1.000  N
  N9       1.0000 0.21700  0.31210  0.51550  Biso   1.000  N
  N10      1.0000 0.48950  0.33160  0.66940  Biso   1.000  N
  N11      1.0000 0.22440  0.16800  0.67320  Biso   1.000  N
  N12      1.0000 0.28300  0.48450  0.68790  Biso   1.000  N
  N13      1.0000 0.01050  0.33060  0.66840  Biso   1.000  N
  N14      1.0000 0.75000  0.37570  0.62430  Biso   1.000  N
