data_image0
_cell_length_a       8.632
_cell_length_b       13.5204
_cell_length_c       13.5204
_cell_angle_alpha    95.3357
_cell_angle_beta     96.9758
_cell_angle_gamma    96.9758

_symmetry_space_group_name_H-M    P 1
_symmetry_int_tables_number       1

loop_
  _symmetry_equiv_pos_as_xyz
  'x, y, z'

loop_
  _atom_site_label
  _atom_site_occupancy
  _atom_site_fract_x
  _atom_site_fract_y
  _atom_site_fract_z
  _atom_site_thermal_displace_type
  _atom_site_B_iso_or_equiv
  _atom_site_type_symbol
  Ni1      1.0000 0.75000  0.67731  0.32269  Biso   1.000  Ni
  H1       1.0000 0.50870  0.60200  0.13380  Biso   1.000  H
  H2       1.0000 0.48730  0.60130  0.96050  Biso   1.000  H
  H3       1.0000 0.92650  0.75600  0.99600  Biso   1.000  H
  H4       1.0000 0.93640  0.75130  0.16770  Biso   1.000  H
  H5       1.0000 0.61210  0.70850  0.82230  Biso   1.000  H
  H6       1.0000 0.66630  0.60310  0.81770  Biso   1.000  H
  H7       1.0000 0.67500  0.81290  0.50010  Biso   1.000  H
  H8       1.0000 0.70750  0.82980  0.67600  Biso   1.000  H
  H9       1.0000 0.92080  0.57860  0.67140  Biso   1.000  H
  H10      1.0000 0.89940  0.57320  0.49820  Biso   1.000  H
  H11      1.0000 0.86580  0.77970  0.83330  Biso   1.000  H
  H12      1.0000 0.91990  0.67430  0.82850  Biso   1.000  H
  H13      1.0000 0.99130  0.86620  0.39800  Biso   1.000  H
  H14      1.0000 0.01270  0.03950  0.39870  Biso   1.000  H
  H15      1.0000 0.57350  0.00400  0.24400  Biso   1.000  H
  H16      1.0000 0.56360  0.83230  0.24870  Biso   1.000  H
  H17      1.0000 0.88790  0.17770  0.29150  Biso   1.000  H
  H18      1.0000 0.83370  0.18230  0.39690  Biso   1.000  H
  H19      1.0000 0.82500  0.49990  0.18710  Biso   1.000  H
  H20      1.0000 0.79250  0.32400  0.17020  Biso   1.000  H
  H21      1.0000 0.57920  0.32860  0.42140  Biso   1.000  H
  H22      1.0000 0.60060  0.50180  0.42680  Biso   1.000  H
  H23      1.0000 0.63420  0.16670  0.22030  Biso   1.000  H
  H24      1.0000 0.58010  0.17150  0.32570  Biso   1.000  H
  C1       1.0000 0.59550  0.63310  0.10490  Biso   1.000  C
  C2       1.0000 0.58360  0.63260  0.00260  Biso   1.000  C
  C3       1.0000 0.70620  0.67700  0.95880  Biso   1.000  C
  C4       1.0000 0.83880  0.72280  0.02260  Biso   1.000  C
  C5       1.0000 0.84450  0.71960  0.12480  Biso   1.000  C
  C6       1.0000 0.69520  0.67420  0.84580  Biso   1.000  C
  C7       1.0000 0.85540  0.62550  0.53450  Biso   1.000  C
  C8       1.0000 0.86930  0.62910  0.63830  Biso   1.000  C
  C9       1.0000 0.81580  0.70450  0.69310  Biso   1.000  C
  C10      1.0000 0.74490  0.77380  0.64020  Biso   1.000  C
  C11      1.0000 0.72830  0.76420  0.53560  Biso   1.000  C
  C12      1.0000 0.83350  0.71220  0.80580  Biso   1.000  C
  C13      1.0000 0.38460  0.65350  0.34510  Biso   1.000  C
  C14      1.0000 0.90450  0.89510  0.36690  Biso   1.000  C
  C15      1.0000 0.91640  0.99740  0.36740  Biso   1.000  C
  C16      1.0000 0.79380  0.04120  0.32300  Biso   1.000  C
  C17      1.0000 0.66120  0.97740  0.27720  Biso   1.000  C
  C18      1.0000 0.65550  0.87520  0.28040  Biso   1.000  C
  C19      1.0000 0.80480  0.15420  0.32580  Biso   1.000  C
  C20      1.0000 0.64460  0.46550  0.37450  Biso   1.000  C
  C21      1.0000 0.63070  0.36170  0.37090  Biso   1.000  C
  C22      1.0000 0.68420  0.30690  0.29550  Biso   1.000  C
  C23      1.0000 0.75510  0.35980  0.22620  Biso   1.000  C
  C24      1.0000 0.77170  0.46440  0.23580  Biso   1.000  C
  C25      1.0000 0.66650  0.19420  0.28780  Biso   1.000  C
  C26      1.0000 0.11540  0.65490  0.34650  Biso   1.000  C
  N1       1.0000 0.72550  0.67460  0.16640  Biso   1.000  N
  N2       1.0000 0.78310  0.69100  0.48280  Biso   1.000  N
  N3       1.0000 0.50980  0.66970  0.32830  Biso   1.000  N
  N4       1.0000 0.77450  0.83360  0.32540  Biso   1.000  N
  N5       1.0000 0.71690  0.51720  0.30900  Biso   1.000  N
  N6       1.0000 0.99020  0.67170  0.33030  Biso   1.000  N
  N7       1.0000 0.25000  0.62560  0.37440  Biso   1.000  N
  Ni2      1.0000 0.25000  0.32269  0.67731  Biso   1.000  Ni
  H25      1.0000 0.49130  0.39800  0.86620  Biso   1.000  H
  H26      1.0000 0.51270  0.39870  0.03950  Biso   1.000  H
  H27      1.0000 0.07350  0.24400  0.00400  Biso   1.000  H
  H28      1.0000 0.06360  0.24870  0.83230  Biso   1.000  H
  H29      1.0000 0.38790  0.29150  0.17770  Biso   1.000  H
  H30      1.0000 0.33370  0.39690  0.18230  Biso   1.000  H
  H31      1.0000 0.32500  0.18710  0.49990  Biso   1.000  H
  H32      1.0000 0.29250  0.17020  0.32400  Biso   1.000  H
  H33      1.0000 0.07920  0.42140  0.32860  Biso   1.000  H
  H34      1.0000 0.10060  0.42680  0.50180  Biso   1.000  H
  H35      1.0000 0.13420  0.22030  0.16670  Biso   1.000  H
  H36      1.0000 0.08010  0.32570  0.17150  Biso   1.000  H
  H37      1.0000 0.00870  0.13380  0.60200  Biso   1.000  H
  H38      1.0000 0.98730  0.96050  0.60130  Biso   1.000  H
  H39      1.0000 0.42650  0.99600  0.75600  Biso   1.000  H
  H40      1.0000 0.43640  0.16770  0.75130  Biso   1.000  H
  H41      1.0000 0.11210  0.82230  0.70850  Biso   1.000  H
  H42      1.0000 0.16630  0.81770  0.60310  Biso   1.000  H
  H43      1.0000 0.17500  0.50010  0.81290  Biso   1.000  H
  H44      1.0000 0.20750  0.67600  0.82980  Biso   1.000  H
  H45      1.0000 0.42080  0.67140  0.57860  Biso   1.000  H
  H46      1.0000 0.39940  0.49820  0.57320  Biso   1.000  H
  H47      1.0000 0.36580  0.83330  0.77970  Biso   1.000  H
  H48      1.0000 0.41990  0.82850  0.67430  Biso   1.000  H
  C27      1.0000 0.40450  0.36690  0.89510  Biso   1.000  C
  C28      1.0000 0.41640  0.36740  0.99740  Biso   1.000  C
  C29      1.0000 0.29380  0.32300  0.04120  Biso   1.000  C
  C30      1.0000 0.16120  0.27720  0.97740  Biso   1.000  C
  C31      1.0000 0.15550  0.28040  0.87520  Biso   1.000  C
  C32      1.0000 0.30480  0.32580  0.15420  Biso   1.000  C
  C33      1.0000 0.14460  0.37450  0.46550  Biso   1.000  C
  C34      1.0000 0.13070  0.37090  0.36170  Biso   1.000  C
  C35      1.0000 0.18420  0.29550  0.30690  Biso   1.000  C
  C36      1.0000 0.25510  0.22620  0.35980  Biso   1.000  C
  C37      1.0000 0.27170  0.23580  0.46440  Biso   1.000  C
  C38      1.0000 0.16650  0.28780  0.19420  Biso   1.000  C
  C39      1.0000 0.61540  0.34650  0.65490  Biso   1.000  C
  C40      1.0000 0.09550  0.10490  0.63310  Biso   1.000  C
  C41      1.0000 0.08360  0.00260  0.63260  Biso   1.000  C
  C42      1.0000 0.20620  0.95880  0.67700  Biso   1.000  C
  C43      1.0000 0.33880  0.02260  0.72280  Biso   1.000  C
  C44      1.0000 0.34450  0.12480  0.71960  Biso   1.000  C
  C45      1.0000 0.19520  0.84580  0.67420  Biso   1.000  C
  C46      1.0000 0.35540  0.53450  0.62550  Biso   1.000  C
  C47      1.0000 0.36930  0.63830  0.62910  Biso   1.000  C
  C48      1.0000 0.31580  0.69310  0.70450  Biso   1.000  C
  C49      1.0000 0.24490  0.64020  0.77380  Biso   1.000  C
  C50      1.0000 0.22830  0.53560  0.76420  Biso   1.000  C
  C51      1.0000 0.33350  0.80580  0.71220  Biso   1.000  C
  C52      1.0000 0.88460  0.34510  0.65350  Biso   1.000  C
  N8       1.0000 0.27450  0.32540  0.83360  Biso   1.000  N
  N9       1.0000 0.21690  0.30900  0.51720  Biso   1.000  N
  N10      1.0000 0.49020  0.33030  0.67170  Biso   1.000  N
  N11      1.0000 0.22550  0.16640  0.67460  Biso   1.000  N
  N12      1.0000 0.28310  0.48280  0.69100  Biso   1.000  N
  N13      1.0000 0.00980  0.32830  0.66970  Biso   1.000  N
  N14      1.0000 0.75000  0.37440  0.62560  Biso   1.000  N
