data_image0
_cell_length_a       12.2624
_cell_length_b       12.2624
_cell_length_c       16.375
_cell_angle_alpha    77.6267
_cell_angle_beta     70.5271
_cell_angle_gamma    105.586

_symmetry_space_group_name_H-M    P 1
_symmetry_int_tables_number       1

loop_
  _symmetry_equiv_pos_as_xyz
  'x, y, z'

loop_
  _atom_site_label
  _atom_site_occupancy
  _atom_site_fract_x
  _atom_site_fract_y
  _atom_site_fract_z
  _atom_site_thermal_displace_type
  _atom_site_B_iso_or_equiv
  _atom_site_type_symbol
  Cd1      1.0000 0.83095  0.45691  0.36856  Biso   1.000  Cd
  Cd2      1.0000 0.32547  0.19951  0.13144  Biso   1.000  Cd
  Cd3      1.0000 0.16905  0.54309  0.63144  Biso   1.000  Cd
  Cd4      1.0000 0.67453  0.80049  0.86856  Biso   1.000  Cd
  H1       1.0000 0.14530  0.68810  0.41640  Biso   1.000  H
  H2       1.0000 0.29710  0.84580  0.42610  Biso   1.000  H
  H3       1.0000 0.36180  0.04030  0.32050  Biso   1.000  H
  H4       1.0000 0.55290  0.28660  0.50990  Biso   1.000  H
  H5       1.0000 0.75550  0.58550  0.51720  Biso   1.000  H
  H6       1.0000 0.55830  0.51570  0.64140  Biso   1.000  H
  H7       1.0000 0.35870  0.23550  0.62720  Biso   1.000  H
  H8       1.0000 0.33360  0.33420  0.66980  Biso   1.000  H
  H9       1.0000 0.41160  0.27180  0.78100  Biso   1.000  H
  H10      1.0000 0.30150  0.16260  0.79090  Biso   1.000  H
  H11      1.0000 0.05270  0.94400  0.44630  Biso   1.000  H
  H12      1.0000 0.12340  0.05560  0.46480  Biso   1.000  H
  H13      1.0000 0.12690  0.12160  0.31750  Biso   1.000  H
  H14      1.0000 0.98260  0.06040  0.35580  Biso   1.000  H
  H15      1.0000 0.86720  0.19610  0.37590  Biso   1.000  H
  H16      1.0000 0.11160  0.47460  0.37480  Biso   1.000  H
  H17      1.0000 0.20030  0.32040  0.37050  Biso   1.000  H
  H18      1.0000 0.60450  0.56170  0.08360  Biso   1.000  H
  H19      1.0000 0.77190  0.72320  0.07390  Biso   1.000  H
  H20      1.0000 0.86080  0.68230  0.17950  Biso   1.000  H
  H21      1.0000 0.29650  0.06280  0.99010  Biso   1.000  H
  H22      1.0000 0.60270  0.27270  0.98280  Biso   1.000  H
  H23      1.0000 0.65710  0.19970  0.85860  Biso   1.000  H
  H24      1.0000 0.36270  0.98590  0.87280  Biso   1.000  H
  H25      1.0000 0.50400  0.00340  0.83020  Biso   1.000  H
  H26      1.0000 0.55280  0.19260  0.71900  Biso   1.000  H
  H27      1.0000 0.45350  0.09240  0.70910  Biso   1.000  H
  H28      1.0000 0.89030  0.49900  0.05370  Biso   1.000  H
  H29      1.0000 0.02040  0.58820  0.03520  Biso   1.000  H
  H30      1.0000 0.93910  0.44440  0.18250  Biso   1.000  H
  H31      1.0000 0.91620  0.33840  0.14420  Biso   1.000  H
  H32      1.0000 0.07200  0.24310  0.12410  Biso   1.000  H
  H33      1.0000 0.34940  0.48640  0.12520  Biso   1.000  H
  H34      1.0000 0.19090  0.57080  0.12950  Biso   1.000  H
  H35      1.0000 0.85470  0.31190  0.58360  Biso   1.000  H
  H36      1.0000 0.70290  0.15420  0.57390  Biso   1.000  H
  H37      1.0000 0.63820  0.95970  0.67950  Biso   1.000  H
  H38      1.0000 0.44710  0.71340  0.49010  Biso   1.000  H
  H39      1.0000 0.24450  0.41450  0.48280  Biso   1.000  H
  H40      1.0000 0.44170  0.48430  0.35860  Biso   1.000  H
  H41      1.0000 0.64130  0.76450  0.37280  Biso   1.000  H
  H42      1.0000 0.66640  0.66580  0.33020  Biso   1.000  H
  H43      1.0000 0.58840  0.72820  0.21900  Biso   1.000  H
  H44      1.0000 0.69850  0.83740  0.20910  Biso   1.000  H
  H45      1.0000 0.94730  0.05600  0.55370  Biso   1.000  H
  H46      1.0000 0.87660  0.94440  0.53520  Biso   1.000  H
  H47      1.0000 0.87310  0.87840  0.68250  Biso   1.000  H
  H48      1.0000 0.01740  0.93960  0.64420  Biso   1.000  H
  H49      1.0000 0.13280  0.80390  0.62410  Biso   1.000  H
  H50      1.0000 0.88840  0.52540  0.62520  Biso   1.000  H
  H51      1.0000 0.79970  0.67960  0.62950  Biso   1.000  H
  H52      1.0000 0.39550  0.43830  0.91640  Biso   1.000  H
  H53      1.0000 0.22810  0.27680  0.92610  Biso   1.000  H
  H54      1.0000 0.13920  0.31770  0.82050  Biso   1.000  H
  H55      1.0000 0.70350  0.93720  0.00990  Biso   1.000  H
  H56      1.0000 0.39730  0.72730  0.01720  Biso   1.000  H
  H57      1.0000 0.34290  0.80030  0.14140  Biso   1.000  H
  H58      1.0000 0.63730  0.01410  0.12720  Biso   1.000  H
  H59      1.0000 0.49600  0.99660  0.16980  Biso   1.000  H
  H60      1.0000 0.44720  0.80740  0.28100  Biso   1.000  H
  H61      1.0000 0.54650  0.90760  0.29090  Biso   1.000  H
  H62      1.0000 0.10970  0.50100  0.94630  Biso   1.000  H
  H63      1.0000 0.97960  0.41180  0.96480  Biso   1.000  H
  H64      1.0000 0.06090  0.55560  0.81750  Biso   1.000  H
  H65      1.0000 0.08380  0.66160  0.85580  Biso   1.000  H
  H66      1.0000 0.92800  0.75690  0.87590  Biso   1.000  H
  H67      1.0000 0.65060  0.51360  0.87480  Biso   1.000  H
  H68      1.0000 0.80910  0.42920  0.87050  Biso   1.000  H
  C1       1.0000 0.02680  0.68960  0.30680  Biso   1.000  C
  C2       1.0000 0.12260  0.79720  0.31060  Biso   1.000  C
  C3       1.0000 0.17280  0.76690  0.37810  Biso   1.000  C
  C4       1.0000 0.26310  0.85940  0.38370  Biso   1.000  C
  C5       1.0000 0.30020  0.97820  0.31900  Biso   1.000  C
  C6       1.0000 0.15910  0.92180  0.24790  Biso   1.000  C
  C7       1.0000 0.10380  0.96680  0.18240  Biso   1.000  C
  C8       1.0000 0.57730  0.35220  0.52850  Biso   1.000  C
  C9       1.0000 0.68880  0.51550  0.53230  Biso   1.000  C
  C10      1.0000 0.58320  0.47870  0.59830  Biso   1.000  C
  C11      1.0000 0.38890  0.29060  0.65630  Biso   1.000  C
  C12      1.0000 0.38710  0.21500  0.75130  Biso   1.000  C
  C13      1.0000 0.04760  0.01680  0.45880  Biso   1.000  C
  C14      1.0000 0.04930  0.10450  0.36900  Biso   1.000  C
  C15      1.0000 0.93920  0.24700  0.37520  Biso   1.000  C
  C16      1.0000 0.07230  0.39830  0.37480  Biso   1.000  C
  C17      1.0000 0.12240  0.31430  0.37210  Biso   1.000  C
  C18      1.0000 0.49640  0.33360  0.19320  Biso   1.000  C
  C19      1.0000 0.60780  0.43320  0.18940  Biso   1.000  C
  C20      1.0000 0.64500  0.55090  0.12190  Biso   1.000  C
  C21      1.0000 0.74310  0.64680  0.11630  Biso   1.000  C
  C22      1.0000 0.79720  0.61920  0.18100  Biso   1.000  C
  C23      1.0000 0.66970  0.40700  0.25210  Biso   1.000  C
  C24      1.0000 0.64920  0.28620  0.31760  Biso   1.000  C
  C25      1.0000 0.38070  0.10580  0.97150  Biso   1.000  C
  C26      1.0000 0.54780  0.22110  0.96770  Biso   1.000  C
  C27      1.0000 0.57700  0.18150  0.90170  Biso   1.000  C
  C28      1.0000 0.44690  0.04520  0.84370  Biso   1.000  C
  C29      1.0000 0.46630  0.13840  0.74870  Biso   1.000  C
  C30      1.0000 0.97560  0.50640  0.04120  Biso   1.000  C
  C31      1.0000 0.97350  0.41830  0.13100  Biso   1.000  C
  C32      1.0000 0.12220  0.31440  0.12480  Biso   1.000  C
  C33      1.0000 0.27310  0.44710  0.12520  Biso   1.000  C
  C34      1.0000 0.18640  0.49450  0.12790  Biso   1.000  C
  C35      1.0000 0.97320  0.31040  0.69320  Biso   1.000  C
  C36      1.0000 0.87740  0.20280  0.68940  Biso   1.000  C
  C37      1.0000 0.82720  0.23310  0.62190  Biso   1.000  C
  C38      1.0000 0.73690  0.14060  0.61630  Biso   1.000  C
  C39      1.0000 0.69980  0.02180  0.68100  Biso   1.000  C
  C40      1.0000 0.84090  0.07820  0.75210  Biso   1.000  C
  C41      1.0000 0.89620  0.03320  0.81760  Biso   1.000  C
  C42      1.0000 0.42270  0.64780  0.47150  Biso   1.000  C
  C43      1.0000 0.31120  0.48450  0.46770  Biso   1.000  C
  C44      1.0000 0.41680  0.52130  0.40170  Biso   1.000  C
  C45      1.0000 0.61110  0.70940  0.34370  Biso   1.000  C
  C46      1.0000 0.61290  0.78500  0.24870  Biso   1.000  C
  C47      1.0000 0.95240  0.98320  0.54120  Biso   1.000  C
  C48      1.0000 0.95070  0.89550  0.63100  Biso   1.000  C
  C49      1.0000 0.06080  0.75300  0.62480  Biso   1.000  C
  C50      1.0000 0.92770  0.60170  0.62520  Biso   1.000  C
  C51      1.0000 0.87760  0.68570  0.62790  Biso   1.000  C
  C52      1.0000 0.50360  0.66640  0.80680  Biso   1.000  C
  C53      1.0000 0.39220  0.56680  0.81060  Biso   1.000  C
  C54      1.0000 0.35500  0.44910  0.87810  Biso   1.000  C
  C55      1.0000 0.25690  0.35320  0.88370  Biso   1.000  C
  C56      1.0000 0.20280  0.38080  0.81900  Biso   1.000  C
  C57      1.0000 0.33030  0.59300  0.74790  Biso   1.000  C
  C58      1.0000 0.35080  0.71380  0.68240  Biso   1.000  C
  C59      1.0000 0.61930  0.89420  0.02850  Biso   1.000  C
  C60      1.0000 0.45220  0.77890  0.03230  Biso   1.000  C
  C61      1.0000 0.42300  0.81850  0.09830  Biso   1.000  C
  C62      1.0000 0.55310  0.95480  0.15630  Biso   1.000  C
  C63      1.0000 0.53370  0.86160  0.25130  Biso   1.000  C
  C64      1.0000 0.02440  0.49360  0.95880  Biso   1.000  C
  C65      1.0000 0.02650  0.58170  0.86900  Biso   1.000  C
  C66      1.0000 0.87780  0.68560  0.87520  Biso   1.000  C
  C67      1.0000 0.72690  0.55290  0.87480  Biso   1.000  C
  C68      1.0000 0.81360  0.50550  0.87210  Biso   1.000  C
  N1       1.0000 0.68770  0.43900  0.48950  Biso   1.000  N
  N2       1.0000 0.51180  0.37370  0.59450  Biso   1.000  N
  N3       1.0000 0.03710  0.21940  0.37210  Biso   1.000  N
  N4       1.0000 0.95840  0.35770  0.37750  Biso   1.000  N
  N5       1.0000 0.25110  0.00870  0.25320  Biso   1.000  N
  N6       1.0000 0.42850  0.17720  0.01050  Biso   1.000  N
  N7       1.0000 0.46820  0.10630  0.90550  Biso   1.000  N
  N8       1.0000 0.09150  0.40920  0.12790  Biso   1.000  N
  N9       1.0000 0.23520  0.33590  0.12250  Biso   1.000  N
  N10      1.0000 0.76190  0.50430  0.24680  Biso   1.000  N
  N11      1.0000 0.31230  0.56100  0.51050  Biso   1.000  N
  N12      1.0000 0.48820  0.62630  0.40550  Biso   1.000  N
  N13      1.0000 0.96290  0.78060  0.62790  Biso   1.000  N
  N14      1.0000 0.04160  0.64230  0.62250  Biso   1.000  N
  N15      1.0000 0.74890  0.99130  0.74680  Biso   1.000  N
  N16      1.0000 0.57150  0.82280  0.98950  Biso   1.000  N
  N17      1.0000 0.53180  0.89370  0.09450  Biso   1.000  N
  N18      1.0000 0.90850  0.59080  0.87210  Biso   1.000  N
  N19      1.0000 0.76480  0.66410  0.87750  Biso   1.000  N
  N20      1.0000 0.23810  0.49570  0.75320  Biso   1.000  N
  O1       1.0000 0.93290  0.63770  0.36940  Biso   1.000  O
  O2       1.0000 0.05310  0.66030  0.24160  Biso   1.000  O
  O3       1.0000 0.15350  0.07330  0.11840  Biso   1.000  O
  O4       1.0000 0.00300  0.89530  0.19010  Biso   1.000  O
  O5       1.0000 0.50710  0.30230  0.13060  Biso   1.000  O
  O6       1.0000 0.40190  0.29470  0.25840  Biso   1.000  O
  O7       1.0000 0.69170  0.27190  0.38160  Biso   1.000  O
  O8       1.0000 0.58540  0.19310  0.30990  Biso   1.000  O
  O9       1.0000 0.06710  0.36230  0.63060  Biso   1.000  O
  O10      1.0000 0.94690  0.33970  0.75840  Biso   1.000  O
  O11      1.0000 0.84650  0.92670  0.88160  Biso   1.000  O
  O12      1.0000 0.99700  0.10470  0.80990  Biso   1.000  O
  O13      1.0000 0.49290  0.69770  0.86940  Biso   1.000  O
  O14      1.0000 0.59810  0.70530  0.74160  Biso   1.000  O
  O15      1.0000 0.30830  0.72810  0.61840  Biso   1.000  O
  O16      1.0000 0.41460  0.80690  0.69010  Biso   1.000  O
