data_image0
_cell_length_a       10.226
_cell_length_b       10.814
_cell_length_c       29.876
_cell_angle_alpha    90
_cell_angle_beta     99.437
_cell_angle_gamma    90

_symmetry_space_group_name_H-M    P 1
_symmetry_int_tables_number       1

loop_
  _symmetry_equiv_pos_as_xyz
  'x, y, z'

loop_
  _atom_site_label
  _atom_site_occupancy
  _atom_site_fract_x
  _atom_site_fract_y
  _atom_site_fract_z
  _atom_site_thermal_displace_type
  _atom_site_B_iso_or_equiv
  _atom_site_type_symbol
  Cd1      1.0000 0.02927  0.20337  0.89667  Biso   1.000  Cd
  Cd2      1.0000 0.72814  0.37372  0.84909  Biso   1.000  Cd
  Cd3      1.0000 0.97073  0.70337  0.60333  Biso   1.000  Cd
  Cd4      1.0000 0.27186  0.87372  0.65091  Biso   1.000  Cd
  Cd5      1.0000 0.97073  0.79663  0.10333  Biso   1.000  Cd
  Cd6      1.0000 0.27186  0.62628  0.15091  Biso   1.000  Cd
  Cd7      1.0000 0.02927  0.29663  0.39667  Biso   1.000  Cd
  Cd8      1.0000 0.72814  0.12628  0.34909  Biso   1.000  Cd
  Cd9      1.0000 0.50000  0.50000  0.00000  Biso   1.000  Cd
  Cd10     1.0000 0.50000  0.00000  0.50000  Biso   1.000  Cd
  H1       1.0000 0.75290  0.92320  0.95390  Biso   1.000  H
  H2       1.0000 0.36090  0.88630  0.94950  Biso   1.000  H
  H3       1.0000 0.50840  0.20550  0.91070  Biso   1.000  H
  H4       1.0000 0.24150  0.39410  0.84790  Biso   1.000  H
  H5       1.0000 0.37440  0.56080  0.74450  Biso   1.000  H
  H6       1.0000 0.98520  0.55360  0.74890  Biso   1.000  H
  H7       1.0000 0.24710  0.42320  0.54610  Biso   1.000  H
  H8       1.0000 0.63910  0.38630  0.55050  Biso   1.000  H
  H9       1.0000 0.49160  0.70550  0.58930  Biso   1.000  H
  H10      1.0000 0.75850  0.89410  0.65210  Biso   1.000  H
  H11      1.0000 0.62560  0.06080  0.75550  Biso   1.000  H
  H12      1.0000 0.01480  0.05360  0.75110  Biso   1.000  H
  H13      1.0000 0.24710  0.07680  0.04610  Biso   1.000  H
  H14      1.0000 0.63910  0.11370  0.05050  Biso   1.000  H
  H15      1.0000 0.49160  0.79450  0.08930  Biso   1.000  H
  H16      1.0000 0.75850  0.60590  0.15210  Biso   1.000  H
  H17      1.0000 0.62560  0.43920  0.25550  Biso   1.000  H
  H18      1.0000 0.01480  0.44640  0.25110  Biso   1.000  H
  H19      1.0000 0.75290  0.57680  0.45390  Biso   1.000  H
  H20      1.0000 0.36090  0.61370  0.44950  Biso   1.000  H
  H21      1.0000 0.50840  0.29450  0.41070  Biso   1.000  H
  H22      1.0000 0.24150  0.10590  0.34790  Biso   1.000  H
  H23      1.0000 0.37440  0.93920  0.24450  Biso   1.000  H
  H24      1.0000 0.98520  0.94640  0.24890  Biso   1.000  H
  C1       1.0000 0.76530  0.14940  0.92144  Biso   1.000  C
  C2       1.0000 0.64940  0.07650  0.93128  Biso   1.000  C
  C3       1.0000 0.66770  0.95600  0.94760  Biso   1.000  C
  C4       1.0000 0.56090  0.88500  0.95440  Biso   1.000  C
  C5       1.0000 0.43320  0.93410  0.94490  Biso   1.000  C
  C6       1.0000 0.41370  0.05360  0.92870  Biso   1.000  C
  C7       1.0000 0.52150  0.12520  0.92170  Biso   1.000  C
  C8       1.0000 0.58110  0.75330  0.97080  Biso   1.000  C
  C9       1.0000 0.27520  0.10420  0.91700  Biso   1.000  C
  C10      1.0000 0.98160  0.43450  0.82560  Biso   1.000  C
  C11      1.0000 0.09620  0.46890  0.80240  Biso   1.000  C
  C12      1.0000 0.22460  0.43700  0.82060  Biso   1.000  C
  C13      1.0000 0.32920  0.46880  0.79810  Biso   1.000  C
  C14      1.0000 0.30410  0.53630  0.75870  Biso   1.000  C
  C15      1.0000 0.17570  0.56850  0.73960  Biso   1.000  C
  C16      1.0000 0.07190  0.53360  0.76160  Biso   1.000  C
  C17      1.0000 0.47100  0.43320  0.81670  Biso   1.000  C
  C18      1.0000 0.14910  0.64020  0.69580  Biso   1.000  C
  C19      1.0000 0.23470  0.64940  0.57856  Biso   1.000  C
  C20      1.0000 0.35060  0.57650  0.56872  Biso   1.000  C
  C21      1.0000 0.33230  0.45600  0.55240  Biso   1.000  C
  C22      1.0000 0.43910  0.38500  0.54560  Biso   1.000  C
  C23      1.0000 0.56680  0.43410  0.55510  Biso   1.000  C
  C24      1.0000 0.58630  0.55360  0.57130  Biso   1.000  C
  C25      1.0000 0.47850  0.62520  0.57830  Biso   1.000  C
  C26      1.0000 0.41890  0.25330  0.52920  Biso   1.000  C
  C27      1.0000 0.72480  0.60420  0.58300  Biso   1.000  C
  C28      1.0000 0.01840  0.93450  0.67440  Biso   1.000  C
  C29      1.0000 0.90380  0.96890  0.69760  Biso   1.000  C
  C30      1.0000 0.77540  0.93700  0.67940  Biso   1.000  C
  C31      1.0000 0.67080  0.96880  0.70190  Biso   1.000  C
  C32      1.0000 0.69590  0.03630  0.74130  Biso   1.000  C
  C33      1.0000 0.82430  0.06850  0.76040  Biso   1.000  C
  C34      1.0000 0.92810  0.03360  0.73840  Biso   1.000  C
  C35      1.0000 0.52900  0.93320  0.68330  Biso   1.000  C
  C36      1.0000 0.85090  0.14020  0.80420  Biso   1.000  C
  C37      1.0000 0.23470  0.85060  0.07856  Biso   1.000  C
  C38      1.0000 0.35060  0.92350  0.06872  Biso   1.000  C
  C39      1.0000 0.33230  0.04400  0.05240  Biso   1.000  C
  C40      1.0000 0.43910  0.11500  0.04560  Biso   1.000  C
  C41      1.0000 0.56680  0.06590  0.05510  Biso   1.000  C
  C42      1.0000 0.58630  0.94640  0.07130  Biso   1.000  C
  C43      1.0000 0.47850  0.87480  0.07830  Biso   1.000  C
  C44      1.0000 0.41890  0.24670  0.02920  Biso   1.000  C
  C45      1.0000 0.72480  0.89580  0.08300  Biso   1.000  C
  C46      1.0000 0.01840  0.56550  0.17440  Biso   1.000  C
  C47      1.0000 0.90380  0.53110  0.19760  Biso   1.000  C
  C48      1.0000 0.77540  0.56300  0.17940  Biso   1.000  C
  C49      1.0000 0.67080  0.53120  0.20190  Biso   1.000  C
  C50      1.0000 0.69590  0.46370  0.24130  Biso   1.000  C
  C51      1.0000 0.82430  0.43150  0.26040  Biso   1.000  C
  C52      1.0000 0.92810  0.46640  0.23840  Biso   1.000  C
  C53      1.0000 0.52900  0.56680  0.18330  Biso   1.000  C
  C54      1.0000 0.85090  0.35980  0.30420  Biso   1.000  C
  C55      1.0000 0.76530  0.35060  0.42144  Biso   1.000  C
  C56      1.0000 0.64940  0.42350  0.43128  Biso   1.000  C
  C57      1.0000 0.66770  0.54400  0.44760  Biso   1.000  C
  C58      1.0000 0.56090  0.61500  0.45440  Biso   1.000  C
  C59      1.0000 0.43320  0.56590  0.44490  Biso   1.000  C
  C60      1.0000 0.41370  0.44640  0.42870  Biso   1.000  C
  C61      1.0000 0.52150  0.37480  0.42170  Biso   1.000  C
  C62      1.0000 0.58110  0.74670  0.47080  Biso   1.000  C
  C63      1.0000 0.27520  0.39580  0.41700  Biso   1.000  C
  C64      1.0000 0.98160  0.06550  0.32560  Biso   1.000  C
  C65      1.0000 0.09620  0.03110  0.30240  Biso   1.000  C
  C66      1.0000 0.22460  0.06300  0.32060  Biso   1.000  C
  C67      1.0000 0.32920  0.03120  0.29810  Biso   1.000  C
  C68      1.0000 0.30410  0.96370  0.25870  Biso   1.000  C
  C69      1.0000 0.17570  0.93150  0.23960  Biso   1.000  C
  C70      1.0000 0.07190  0.96640  0.26160  Biso   1.000  C
  C71      1.0000 0.47100  0.06680  0.31670  Biso   1.000  C
  C72      1.0000 0.14910  0.85980  0.19580  Biso   1.000  C
  O1       1.0000 0.75200  0.26570  0.91553  Biso   1.000  O
  O2       1.0000 0.86970  0.09220  0.91960  Biso   1.000  O
  O3       1.0000 0.47880  0.68840  0.97080  Biso   1.000  O
  O4       1.0000 0.69390  0.71420  0.98330  Biso   1.000  O
  O5       1.0000 0.18000  0.03500  0.91970  Biso   1.000  O
  O6       1.0000 0.25900  0.21380  0.90368  Biso   1.000  O
  O7       1.0000 0.00380  0.39760  0.86585  Biso   1.000  O
  O8       1.0000 0.86720  0.44670  0.80340  Biso   1.000  O
  O9       1.0000 0.49920  0.39210  0.85604  Biso   1.000  O
  O10      1.0000 0.55580  0.44690  0.79240  Biso   1.000  O
  O11      1.0000 0.03200  0.64410  0.67613  Biso   1.000  O
  O12      1.0000 0.24920  0.68690  0.68257  Biso   1.000  O
  O13      1.0000 0.06280  0.28710  0.96850  Biso   1.000  O
  O14      1.0000 0.74640  0.55920  0.88890  Biso   1.000  O
  O15      1.0000 0.38360  0.43410  0.93170  Biso   1.000  O
  O16      1.0000 0.70010  0.44840  0.97500  Biso   1.000  O
  O17      1.0000 0.24800  0.76570  0.58447  Biso   1.000  O
  O18      1.0000 0.13030  0.59220  0.58040  Biso   1.000  O
  O19      1.0000 0.52120  0.18840  0.52920  Biso   1.000  O
  O20      1.0000 0.30610  0.21420  0.51670  Biso   1.000  O
  O21      1.0000 0.82000  0.53500  0.58030  Biso   1.000  O
  O22      1.0000 0.74100  0.71380  0.59632  Biso   1.000  O
  O23      1.0000 0.99620  0.89760  0.63415  Biso   1.000  O
  O24      1.0000 0.13280  0.94670  0.69660  Biso   1.000  O
  O25      1.0000 0.50080  0.89210  0.64396  Biso   1.000  O
  O26      1.0000 0.44420  0.94690  0.70760  Biso   1.000  O
  O27      1.0000 0.96800  0.14410  0.82387  Biso   1.000  O
  O28      1.0000 0.75080  0.18690  0.81743  Biso   1.000  O
  O29      1.0000 0.93720  0.78710  0.53150  Biso   1.000  O
  O30      1.0000 0.25360  0.05920  0.61110  Biso   1.000  O
  O31      1.0000 0.61640  0.93410  0.56830  Biso   1.000  O
  O32      1.0000 0.29990  0.94840  0.52500  Biso   1.000  O
  O33      1.0000 0.24800  0.73430  0.08447  Biso   1.000  O
  O34      1.0000 0.13030  0.90780  0.08040  Biso   1.000  O
  O35      1.0000 0.52120  0.31160  0.02920  Biso   1.000  O
  O36      1.0000 0.30610  0.28580  0.01670  Biso   1.000  O
  O37      1.0000 0.82000  0.96500  0.08030  Biso   1.000  O
  O38      1.0000 0.74100  0.78620  0.09632  Biso   1.000  O
  O39      1.0000 0.99620  0.60240  0.13415  Biso   1.000  O
  O40      1.0000 0.13280  0.55330  0.19660  Biso   1.000  O
  O41      1.0000 0.50080  0.60790  0.14396  Biso   1.000  O
  O42      1.0000 0.44420  0.55310  0.20760  Biso   1.000  O
  O43      1.0000 0.96800  0.35590  0.32387  Biso   1.000  O
  O44      1.0000 0.75080  0.31310  0.31743  Biso   1.000  O
  O45      1.0000 0.93720  0.71290  0.03150  Biso   1.000  O
  O46      1.0000 0.25360  0.44080  0.11110  Biso   1.000  O
  O47      1.0000 0.61640  0.56590  0.06830  Biso   1.000  O
  O48      1.0000 0.29990  0.55160  0.02500  Biso   1.000  O
  O49      1.0000 0.75200  0.23430  0.41553  Biso   1.000  O
  O50      1.0000 0.86970  0.40780  0.41960  Biso   1.000  O
  O51      1.0000 0.47880  0.81160  0.47080  Biso   1.000  O
  O52      1.0000 0.69390  0.78580  0.48330  Biso   1.000  O
  O53      1.0000 0.18000  0.46500  0.41970  Biso   1.000  O
  O54      1.0000 0.25900  0.28620  0.40368  Biso   1.000  O
  O55      1.0000 0.00380  0.10240  0.36585  Biso   1.000  O
  O56      1.0000 0.86720  0.05330  0.30340  Biso   1.000  O
  O57      1.0000 0.49920  0.10790  0.35604  Biso   1.000  O
  O58      1.0000 0.55580  0.05310  0.29240  Biso   1.000  O
  O59      1.0000 0.03200  0.85590  0.17613  Biso   1.000  O
  O60      1.0000 0.24920  0.81310  0.18257  Biso   1.000  O
  O61      1.0000 0.06280  0.21290  0.46850  Biso   1.000  O
  O62      1.0000 0.74640  0.94080  0.38890  Biso   1.000  O
  O63      1.0000 0.38360  0.06590  0.43170  Biso   1.000  O
  O64      1.0000 0.70010  0.05160  0.47500  Biso   1.000  O
