data_image0
_cell_length_a       10.8947
_cell_length_b       10.9708
_cell_length_c       13.9891
_cell_angle_alpha    81.54
_cell_angle_beta     89.016
_cell_angle_gamma    87.658

_symmetry_space_group_name_H-M    P 1
_symmetry_int_tables_number       1

loop_
  _symmetry_equiv_pos_as_xyz
  'x, y, z'

loop_
  _atom_site_label
  _atom_site_occupancy
  _atom_site_fract_x
  _atom_site_fract_y
  _atom_site_fract_z
  _atom_site_thermal_displace_type
  _atom_site_B_iso_or_equiv
  _atom_site_type_symbol
  Zn1      1.0000 0.72700  0.66383  0.60703  Biso   1.000  Zn
  Zn2      1.0000 0.72296  0.62223  0.81924  Biso   1.000  Zn
  H1       1.0000 0.54830  0.64810  0.45150  Biso   1.000  H
  H2       1.0000 0.54220  0.64080  0.29040  Biso   1.000  H
  H3       1.0000 0.54430  0.63530  0.98110  Biso   1.000  H
  H4       1.0000 0.90660  0.62630  0.13740  Biso   1.000  H
  H5       1.0000 0.90180  0.68410  0.43890  Biso   1.000  H
  H6       1.0000 0.78240  0.27730  0.58330  Biso   1.000  H
  H7       1.0000 0.53970  0.65060  0.14000  Biso   1.000  H
  H8       1.0000 0.12520  0.64460  0.57180  Biso   1.000  H
  H9       1.0000 0.90490  0.68100  0.27680  Biso   1.000  H
  H10      1.0000 0.78180  0.07270  0.57420  Biso   1.000  H
  H11      1.0000 0.89930  0.60880  0.97830  Biso   1.000  H
  H12      1.0000 0.33130  0.65150  0.57250  Biso   1.000  H
  H13      1.0000 0.20890  0.79070  0.94570  Biso   1.000  H
  H14      1.0000 0.21600  0.65740  0.00590  Biso   1.000  H
  H15      1.0000 0.63060  0.07300  0.00030  Biso   1.000  H
  H16      1.0000 0.51440  0.09780  0.93370  Biso   1.000  H
  C1       1.0000 0.72620  0.40690  0.72340  Biso   1.000  C
  C2       1.0000 0.72590  0.27150  0.72080  Biso   1.000  C
  C3       1.0000 0.95790  0.64190  0.71290  Biso   1.000  C
  C4       1.0000 0.68940  0.06040  0.79170  Biso   1.000  C
  C5       1.0000 0.72360  0.64500  0.15910  Biso   1.000  C
  C6       1.0000 0.15620  0.66400  0.79680  Biso   1.000  C
  C7       1.0000 0.62120  0.65440  0.41590  Biso   1.000  C
  C8       1.0000 0.61720  0.64900  0.31910  Biso   1.000  C
  C9       1.0000 0.72410  0.65570  0.26310  Biso   1.000  C
  C10      1.0000 0.09410  0.65320  0.71390  Biso   1.000  C
  C11      1.0000 0.61840  0.63410  0.01330  Biso   1.000  C
  C12      1.0000 0.83100  0.62950  0.10710  Biso   1.000  C
  C13      1.0000 0.82810  0.67590  0.40830  Biso   1.000  C
  C14      1.0000 0.75900  0.22360  0.63760  Biso   1.000  C
  C15      1.0000 0.61490  0.64420  0.10830  Biso   1.000  C
  C16      1.0000 0.69000  0.18630  0.79830  Biso   1.000  C
  C17      1.0000 0.28460  0.66850  0.79620  Biso   1.000  C
  C18      1.0000 0.16450  0.64980  0.62950  Biso   1.000  C
  C19      1.0000 0.48970  0.65490  0.71360  Biso   1.000  C
  C20      1.0000 0.35560  0.66140  0.71490  Biso   1.000  C
  C21      1.0000 0.72520  0.01230  0.70870  Biso   1.000  C
  C22      1.0000 0.83090  0.67230  0.31090  Biso   1.000  C
  C23      1.0000 0.75850  0.09920  0.63230  Biso   1.000  C
  C24      1.0000 0.82580  0.61910  0.01140  Biso   1.000  C
  C25      1.0000 0.28820  0.65380  0.63020  Biso   1.000  C
  C26      1.0000 0.72520  0.87790  0.70260  Biso   1.000  C
  C27      1.0000 0.21490  0.70330  0.94110  Biso   1.000  C
  C28      1.0000 0.60350  0.09230  0.93390  Biso   1.000  C
  N1       1.0000 0.72520  0.66830  0.46170  Biso   1.000  N
  N2       1.0000 0.72230  0.62270  0.96280  Biso   1.000  N
  O1       1.0000 0.73260  0.47550  0.64420  Biso   1.000  O
  O2       1.0000 0.90810  0.66050  0.63180  Biso   1.000  O
  O3       1.0000 0.90400  0.61500  0.79260  Biso   1.000  O
  O4       1.0000 0.54360  0.66480  0.63320  Biso   1.000  O
  O5       1.0000 0.54170  0.64020  0.79230  Biso   1.000  O
  O6       1.0000 0.72880  0.80790  0.78000  Biso   1.000  O
  O7       1.0000 0.72330  0.84780  0.62100  Biso   1.000  O
  O8       1.0000 0.71740  0.44140  0.80460  Biso   1.000  O
  O9       1.0000 0.11360  0.66880  0.88770  Biso   1.000  O
  O10      1.0000 0.32410  0.67400  0.88800  Biso   1.000  O
  O11      1.0000 0.64850  0.99870  0.87850  Biso   1.000  O
  O12      1.0000 0.65270  0.20680  0.88880  Biso   1.000  O
  Zn3      1.0000 0.27300  0.33617  0.39297  Biso   1.000  Zn
  Zn4      1.0000 0.27704  0.37777  0.18076  Biso   1.000  Zn
  H17      1.0000 0.45170  0.35190  0.54850  Biso   1.000  H
  H18      1.0000 0.45780  0.35920  0.70960  Biso   1.000  H
  H19      1.0000 0.45570  0.36470  0.01890  Biso   1.000  H
  H20      1.0000 0.09340  0.37370  0.86260  Biso   1.000  H
  H21      1.0000 0.09820  0.31590  0.56110  Biso   1.000  H
  H22      1.0000 0.21760  0.72270  0.41670  Biso   1.000  H
  H23      1.0000 0.46030  0.34940  0.86000  Biso   1.000  H
  H24      1.0000 0.87480  0.35540  0.42820  Biso   1.000  H
  H25      1.0000 0.09510  0.31900  0.72320  Biso   1.000  H
  H26      1.0000 0.21820  0.92730  0.42580  Biso   1.000  H
  H27      1.0000 0.10070  0.39120  0.02170  Biso   1.000  H
  H28      1.0000 0.66870  0.34850  0.42750  Biso   1.000  H
  H29      1.0000 0.79110  0.20930  0.05430  Biso   1.000  H
  H30      1.0000 0.78400  0.34260  0.99410  Biso   1.000  H
  H31      1.0000 0.36940  0.92700  0.99970  Biso   1.000  H
  H32      1.0000 0.48560  0.90220  0.06630  Biso   1.000  H
  C29      1.0000 0.27380  0.59310  0.27660  Biso   1.000  C
  C30      1.0000 0.27410  0.72850  0.27920  Biso   1.000  C
  C31      1.0000 0.04210  0.35810  0.28710  Biso   1.000  C
  C32      1.0000 0.31060  0.93960  0.20830  Biso   1.000  C
  C33      1.0000 0.27640  0.35500  0.84090  Biso   1.000  C
  C34      1.0000 0.84380  0.33600  0.20320  Biso   1.000  C
  C35      1.0000 0.37880  0.34560  0.58410  Biso   1.000  C
  C36      1.0000 0.38280  0.35100  0.68090  Biso   1.000  C
  C37      1.0000 0.27590  0.34430  0.73690  Biso   1.000  C
  C38      1.0000 0.90590  0.34680  0.28610  Biso   1.000  C
  C39      1.0000 0.38160  0.36590  0.98670  Biso   1.000  C
  C40      1.0000 0.16900  0.37050  0.89290  Biso   1.000  C
  C41      1.0000 0.17190  0.32410  0.59170  Biso   1.000  C
  C42      1.0000 0.24100  0.77640  0.36240  Biso   1.000  C
  C43      1.0000 0.38510  0.35580  0.89170  Biso   1.000  C
  C44      1.0000 0.31000  0.81370  0.20170  Biso   1.000  C
  C45      1.0000 0.71540  0.33150  0.20380  Biso   1.000  C
  C46      1.0000 0.83550  0.35020  0.37050  Biso   1.000  C
  C47      1.0000 0.51030  0.34510  0.28640  Biso   1.000  C
  C48      1.0000 0.64440  0.33860  0.28510  Biso   1.000  C
  C49      1.0000 0.27480  0.98770  0.29130  Biso   1.000  C
  C50      1.0000 0.16910  0.32770  0.68910  Biso   1.000  C
  C51      1.0000 0.24150  0.90080  0.36770  Biso   1.000  C
  C52      1.0000 0.17420  0.38090  0.98860  Biso   1.000  C
  C53      1.0000 0.71180  0.34620  0.36980  Biso   1.000  C
  C54      1.0000 0.27480  0.12210  0.29740  Biso   1.000  C
  C55      1.0000 0.78510  0.29670  0.05890  Biso   1.000  C
  C56      1.0000 0.39650  0.90770  0.06610  Biso   1.000  C
  N3       1.0000 0.27480  0.33170  0.53830  Biso   1.000  N
  N4       1.0000 0.27770  0.37730  0.03720  Biso   1.000  N
  O13      1.0000 0.26740  0.52450  0.35580  Biso   1.000  O
  O14      1.0000 0.09190  0.33950  0.36820  Biso   1.000  O
  O15      1.0000 0.09600  0.38500  0.20740  Biso   1.000  O
  O16      1.0000 0.45640  0.33520  0.36680  Biso   1.000  O
  O17      1.0000 0.45830  0.35980  0.20770  Biso   1.000  O
  O18      1.0000 0.27120  0.19210  0.22000  Biso   1.000  O
  O19      1.0000 0.27670  0.15220  0.37900  Biso   1.000  O
  O20      1.0000 0.28260  0.55860  0.19540  Biso   1.000  O
  O21      1.0000 0.88640  0.33120  0.11230  Biso   1.000  O
  O22      1.0000 0.67590  0.32600  0.11200  Biso   1.000  O
  O23      1.0000 0.35150  0.00130  0.12150  Biso   1.000  O
  O24      1.0000 0.34730  0.79320  0.11120  Biso   1.000  O
