data_PEYPAM_clean
_audit_creation_date              2015-05-18
_audit_creation_method            'Materials Studio'
_symmetry_space_group_name_H-M    'P1'
_symmetry_Int_Tables_number       1
_symmetry_cell_setting            triclinic
loop_
_symmetry_equiv_pos_as_xyz
  x,y,z
_cell_length_a                    19.5078
_cell_length_b                    19.5078
_cell_length_c                    13.8150
_cell_angle_alpha                 90.0000
_cell_angle_beta                  90.0000
_cell_angle_gamma                 90.0000
loop_
_atom_site_label
_atom_site_type_symbol
_atom_site_fract_x
_atom_site_fract_y
_atom_site_fract_z
_atom_site_U_iso_or_equiv
_atom_site_adp_type
_atom_site_occupancy
Zn1    Zn    0.98740   0.47007   0.37155   0.01267  Uiso   1.00
H2     H     0.92840   0.16170   0.58270   0.01267  Uiso   1.00
H3     H     0.91310   0.27130   0.63230   0.01267  Uiso   1.00
H4     H     0.67620   0.41060   0.38620   0.01267  Uiso   1.00
H5     H     0.67140   0.49220   0.39870   0.01267  Uiso   1.00
H6     H     0.07824   0.31468   0.28288   0.01267  Uiso   1.00
H7     H     0.73500   0.48400   0.97190   0.01267  Uiso   1.00
H8     H     0.83910   0.47880   0.03760   0.01267  Uiso   1.00
C9     C     0.95630   0.39060   0.56230   0.01267  Uiso   1.00
C10    C     0.88780   0.47990   0.21680   0.01267  Uiso   1.00
C11    C     0.96630   0.11210   0.40970   0.01267  Uiso   1.00
C12    C     0.97300   0.24150   0.38570   0.01267  Uiso   1.00
C13    C     0.95930   0.18330   0.44260   0.01267  Uiso   1.00
C14    C     0.97040   0.30650   0.42310   0.01267  Uiso   1.00
C15    C     0.93830   0.19820   0.53940   0.01267  Uiso   1.00
C16    C     0.95210   0.32080   0.51870   0.01267  Uiso   1.00
C17    C     0.93240   0.26400   0.57010   0.01267  Uiso   1.00
C18    C     0.81460   0.47780   0.17880   0.01267  Uiso   1.00
C19    C     0.69220   0.47000   0.19610   0.01267  Uiso   1.00
C20    C     0.68530   0.45500   0.35400   0.01267  Uiso   1.00
C21    C     0.67970   0.47630   0.09950   0.01267  Uiso   1.00
C22    C     0.60980   0.48020   0.05710   0.01267  Uiso   1.00
C23    C     0.75890   0.47020   0.23800   0.01267  Uiso   1.00
C24    C     0.02020   0.31540   0.27330   0.01267  Uiso   1.00
C25    C     0.73940   0.48030   0.04020   0.01267  Uiso   1.00
C26    C     0.80080   0.47900   0.08010   0.01267  Uiso   1.00
O27    O     0.96344   0.44309   0.50780   0.01267  Uiso   1.00
O28    O     0.98700   0.35341   0.35220   0.01267  Uiso   1.00
O29    O     0.89824   0.47010   0.30280   0.01267  Uiso   1.00
O30    O     0.93175   0.49270   0.15420   0.01267  Uiso   1.00
O31    O     0.55771   0.46799   0.11020   0.01267  Uiso   1.00
O32    O     0.95700   0.06824   0.47060   0.01267  Uiso   1.00
O33    O     0.98990   0.24476   0.29010   0.01267  Uiso   1.00
O34    O     0.75493   0.46070   0.33260   0.01267  Uiso   1.00
O35    O     0.60290   0.49150   0.96990   0.01267  Uiso   1.00
O36    O     0.64693   0.45940   0.26720   0.01267  Uiso   1.00
O37    O     0.97830   0.10145   0.32090   0.01267  Uiso   1.00
O38    O     0.94710   0.39810   0.64870   0.01267  Uiso   1.00
H39    H     0.49457   0.83926   0.54908   0.00000  Uiso   1.00
Zn40   Zn    0.01260   0.52993   0.87155   0.01267  Uiso   1.00
H41    H     0.07160   0.83830   0.08270   0.01267  Uiso   1.00
H42    H     0.08690   0.72870   0.13230   0.01267  Uiso   1.00
H43    H     0.32380   0.58940   0.88620   0.01267  Uiso   1.00
H44    H     0.32860   0.50780   0.89870   0.01267  Uiso   1.00
H45    H     0.92176   0.68532   0.78288   0.01267  Uiso   1.00
H46    H     0.26500   0.51600   0.47190   0.01267  Uiso   1.00
H47    H     0.16090   0.52120   0.53760   0.01267  Uiso   1.00
C48    C     0.04370   0.60940   0.06230   0.01267  Uiso   1.00
C49    C     0.11220   0.52010   0.71680   0.01267  Uiso   1.00
C50    C     0.03370   0.88790   0.90970   0.01267  Uiso   1.00
C51    C     0.02700   0.75850   0.88570   0.01267  Uiso   1.00
C52    C     0.04070   0.81670   0.94260   0.01267  Uiso   1.00
C53    C     0.02960   0.69350   0.92310   0.01267  Uiso   1.00
C54    C     0.06170   0.80180   0.03940   0.01267  Uiso   1.00
C55    C     0.04790   0.67920   0.01870   0.01267  Uiso   1.00
C56    C     0.06760   0.73600   0.07010   0.01267  Uiso   1.00
C57    C     0.18540   0.52220   0.67880   0.01267  Uiso   1.00
C58    C     0.30780   0.53000   0.69610   0.01267  Uiso   1.00
C59    C     0.31470   0.54500   0.85400   0.01267  Uiso   1.00
C60    C     0.32030   0.52370   0.59950   0.01267  Uiso   1.00
C61    C     0.39020   0.51980   0.55710   0.01267  Uiso   1.00
C62    C     0.24110   0.52980   0.73800   0.01267  Uiso   1.00
C63    C     0.97980   0.68460   0.77330   0.01267  Uiso   1.00
C64    C     0.26060   0.51970   0.54020   0.01267  Uiso   1.00
C65    C     0.19920   0.52100   0.58010   0.01267  Uiso   1.00
O66    O     0.03656   0.55691   0.00780   0.01267  Uiso   1.00
O67    O     0.01300   0.64659   0.85220   0.01267  Uiso   1.00
O68    O     0.10176   0.52990   0.80280   0.01267  Uiso   1.00
O69    O     0.06825   0.50730   0.65420   0.01267  Uiso   1.00
O70    O     0.44229   0.53201   0.61020   0.01267  Uiso   1.00
O71    O     0.04300   0.93176   0.97060   0.01267  Uiso   1.00
O72    O     0.01010   0.75524   0.79010   0.01267  Uiso   1.00
O73    O     0.24507   0.53930   0.83260   0.01267  Uiso   1.00
O74    O     0.39710   0.50850   0.46990   0.01267  Uiso   1.00
O75    O     0.35307   0.54060   0.76720   0.01267  Uiso   1.00
O76    O     0.02170   0.89855   0.82090   0.01267  Uiso   1.00
O77    O     0.05290   0.60190   0.14870   0.01267  Uiso   1.00
H78    H     0.50543   0.16074   0.04908   0.00000  Uiso   1.00
Zn79   Zn    0.02993   0.48740   0.12155   0.01267  Uiso   1.00
H80    H     0.33830   0.42840   0.33270   0.01267  Uiso   1.00
H81    H     0.22870   0.41310   0.38230   0.01267  Uiso   1.00
H82    H     0.08940   0.17620   0.13620   0.01267  Uiso   1.00
H83    H     0.00780   0.17140   0.14870   0.01267  Uiso   1.00
H84    H     0.18532   0.57824   0.03288   0.01267  Uiso   1.00
H85    H     0.01600   0.23500   0.72190   0.01267  Uiso   1.00
H86    H     0.02120   0.33910   0.78760   0.01267  Uiso   1.00
C87    C     0.10940   0.45630   0.31230   0.01267  Uiso   1.00
C88    C     0.02010   0.38780   0.96680   0.01267  Uiso   1.00
C89    C     0.38790   0.46630   0.15970   0.01267  Uiso   1.00
C90    C     0.25850   0.47300   0.13570   0.01267  Uiso   1.00
C91    C     0.31670   0.45930   0.19260   0.01267  Uiso   1.00
C92    C     0.19350   0.47040   0.17310   0.01267  Uiso   1.00
C93    C     0.30180   0.43830   0.28940   0.01267  Uiso   1.00
C94    C     0.17920   0.45210   0.26870   0.01267  Uiso   1.00
C95    C     0.23600   0.43240   0.32010   0.01267  Uiso   1.00
C96    C     0.02220   0.31460   0.92880   0.01267  Uiso   1.00
C97    C     0.03000   0.19220   0.94610   0.01267  Uiso   1.00
C98    C     0.04500   0.18530   0.10400   0.01267  Uiso   1.00
C99    C     0.02370   0.17970   0.84950   0.01267  Uiso   1.00
C100   C     0.01980   0.10980   0.80710   0.01267  Uiso   1.00
C101   C     0.02980   0.25890   0.98800   0.01267  Uiso   1.00
C102   C     0.18460   0.52020   0.02330   0.01267  Uiso   1.00
C103   C     0.01970   0.23940   0.79020   0.01267  Uiso   1.00
C104   C     0.02100   0.30080   0.83010   0.01267  Uiso   1.00
O105   O     0.05691   0.46344   0.25780   0.01267  Uiso   1.00
O106   O     0.14659   0.48700   0.10220   0.01267  Uiso   1.00
O107   O     0.02990   0.39824   0.05280   0.01267  Uiso   1.00
O108   O     0.00730   0.43175   0.90420   0.01267  Uiso   1.00
O109   O     0.03201   0.05771   0.86020   0.01267  Uiso   1.00
O110   O     0.43176   0.45700   0.22060   0.01267  Uiso   1.00
O111   O     0.25524   0.48990   0.04010   0.01267  Uiso   1.00
O112   O     0.03930   0.25493   0.08260   0.01267  Uiso   1.00
O113   O     0.00850   0.10290   0.71990   0.01267  Uiso   1.00
O114   O     0.04060   0.14693   0.01720   0.01267  Uiso   1.00
O115   O     0.39855   0.47830   0.07090   0.01267  Uiso   1.00
O116   O     0.10190   0.44710   0.39870   0.01267  Uiso   1.00
H117   H     0.66074   0.99457   0.29908   0.00000  Uiso   1.00
Zn118  Zn    0.97007   0.51260   0.62155   0.01267  Uiso   1.00
H119   H     0.66170   0.57160   0.83270   0.01267  Uiso   1.00
H120   H     0.77130   0.58690   0.88230   0.01267  Uiso   1.00
H121   H     0.91060   0.82380   0.63620   0.01267  Uiso   1.00
H122   H     0.99220   0.82860   0.64870   0.01267  Uiso   1.00
H123   H     0.81468   0.42176   0.53288   0.01267  Uiso   1.00
H124   H     0.98400   0.76500   0.22190   0.01267  Uiso   1.00
H125   H     0.97880   0.66090   0.28760   0.01267  Uiso   1.00
C126   C     0.89060   0.54370   0.81230   0.01267  Uiso   1.00
C127   C     0.97990   0.61220   0.46680   0.01267  Uiso   1.00
C128   C     0.61210   0.53370   0.65970   0.01267  Uiso   1.00
C129   C     0.74150   0.52700   0.63570   0.01267  Uiso   1.00
C130   C     0.68330   0.54070   0.69260   0.01267  Uiso   1.00
C131   C     0.80650   0.52960   0.67310   0.01267  Uiso   1.00
C132   C     0.69820   0.56170   0.78940   0.01267  Uiso   1.00
C133   C     0.82080   0.54790   0.76870   0.01267  Uiso   1.00
C134   C     0.76400   0.56760   0.82010   0.01267  Uiso   1.00
C135   C     0.97780   0.68540   0.42880   0.01267  Uiso   1.00
C136   C     0.97000   0.80780   0.44610   0.01267  Uiso   1.00
C137   C     0.95500   0.81470   0.60400   0.01267  Uiso   1.00
C138   C     0.97630   0.82030   0.34950   0.01267  Uiso   1.00
C139   C     0.98020   0.89020   0.30710   0.01267  Uiso   1.00
C140   C     0.97020   0.74110   0.48800   0.01267  Uiso   1.00
C141   C     0.81540   0.47980   0.52330   0.01267  Uiso   1.00
C142   C     0.98030   0.76060   0.29020   0.01267  Uiso   1.00
C143   C     0.97900   0.69920   0.33010   0.01267  Uiso   1.00
O144   O     0.94309   0.53656   0.75780   0.01267  Uiso   1.00
O145   O     0.85341   0.51300   0.60220   0.01267  Uiso   1.00
O146   O     0.97010   0.60176   0.55280   0.01267  Uiso   1.00
O147   O     0.99270   0.56825   0.40420   0.01267  Uiso   1.00
O148   O     0.96799   0.94229   0.36020   0.01267  Uiso   1.00
O149   O     0.56824   0.54300   0.72060   0.01267  Uiso   1.00
O150   O     0.74476   0.51010   0.54010   0.01267  Uiso   1.00
O151   O     0.96070   0.74507   0.58260   0.01267  Uiso   1.00
O152   O     0.99150   0.89710   0.21990   0.01267  Uiso   1.00
O153   O     0.95940   0.85307   0.51720   0.01267  Uiso   1.00
O154   O     0.60145   0.52170   0.57090   0.01267  Uiso   1.00
O155   O     0.89810   0.55290   0.89870   0.01267  Uiso   1.00
H156   H     0.33926   0.00543   0.79908   0.00000  Uiso   1.00
Zn157  Zn    0.51260   0.97007   0.37845   0.01267  Uiso   1.00
H158   H     0.57160   0.66170   0.16730   0.01267  Uiso   1.00
H159   H     0.58690   0.77130   0.11770   0.01267  Uiso   1.00
H160   H     0.82380   0.91060   0.36380   0.01267  Uiso   1.00
H161   H     0.82860   0.99220   0.35130   0.01267  Uiso   1.00
H162   H     0.42176   0.81468   0.46712   0.01267  Uiso   1.00
H163   H     0.76500   0.98400   0.77810   0.01267  Uiso   1.00
H164   H     0.66090   0.97880   0.71240   0.01267  Uiso   1.00
C165   C     0.54370   0.89060   0.18770   0.01267  Uiso   1.00
C166   C     0.61220   0.97990   0.53320   0.01267  Uiso   1.00
C167   C     0.53370   0.61210   0.34030   0.01267  Uiso   1.00
C168   C     0.52700   0.74150   0.36430   0.01267  Uiso   1.00
C169   C     0.54070   0.68330   0.30740   0.01267  Uiso   1.00
C170   C     0.52960   0.80650   0.32690   0.01267  Uiso   1.00
C171   C     0.56170   0.69820   0.21060   0.01267  Uiso   1.00
C172   C     0.54790   0.82080   0.23130   0.01267  Uiso   1.00
C173   C     0.56760   0.76400   0.17990   0.01267  Uiso   1.00
C174   C     0.68540   0.97780   0.57120   0.01267  Uiso   1.00
C175   C     0.80780   0.97000   0.55390   0.01267  Uiso   1.00
C176   C     0.81470   0.95500   0.39600   0.01267  Uiso   1.00
C177   C     0.82030   0.97630   0.65050   0.01267  Uiso   1.00
C178   C     0.89020   0.98020   0.69290   0.01267  Uiso   1.00
C179   C     0.74110   0.97020   0.51200   0.01267  Uiso   1.00
C180   C     0.47980   0.81540   0.47670   0.01267  Uiso   1.00
C181   C     0.76060   0.98030   0.70980   0.01267  Uiso   1.00
C182   C     0.69920   0.97900   0.66990   0.01267  Uiso   1.00
O183   O     0.53656   0.94309   0.24220   0.01267  Uiso   1.00
O184   O     0.51300   0.85341   0.39780   0.01267  Uiso   1.00
O185   O     0.60176   0.97010   0.44720   0.01267  Uiso   1.00
O186   O     0.56825   0.99270   0.59580   0.01267  Uiso   1.00
O187   O     0.94229   0.96799   0.63980   0.01267  Uiso   1.00
O188   O     0.54300   0.56824   0.27940   0.01267  Uiso   1.00
O189   O     0.51010   0.74476   0.45990   0.01267  Uiso   1.00
O190   O     0.74507   0.96070   0.41740   0.01267  Uiso   1.00
O191   O     0.89710   0.99150   0.78010   0.01267  Uiso   1.00
O192   O     0.85307   0.95940   0.48280   0.01267  Uiso   1.00
O193   O     0.52170   0.60145   0.42910   0.01267  Uiso   1.00
O194   O     0.55290   0.89810   0.10130   0.01267  Uiso   1.00
H195   H     0.00543   0.33926   0.20092   0.00000  Uiso   1.00
Zn196  Zn    0.48740   0.02993   0.87845   0.01267  Uiso   1.00
H197   H     0.42840   0.33830   0.66730   0.01267  Uiso   1.00
H198   H     0.41310   0.22870   0.61770   0.01267  Uiso   1.00
H199   H     0.17620   0.08940   0.86380   0.01267  Uiso   1.00
H200   H     0.17140   0.00780   0.85130   0.01267  Uiso   1.00
H201   H     0.57824   0.18532   0.96712   0.01267  Uiso   1.00
H202   H     0.23500   0.01600   0.27810   0.01267  Uiso   1.00
H203   H     0.33910   0.02120   0.21240   0.01267  Uiso   1.00
C204   C     0.45630   0.10940   0.68770   0.01267  Uiso   1.00
C205   C     0.38780   0.02010   0.03320   0.01267  Uiso   1.00
C206   C     0.46630   0.38790   0.84030   0.01267  Uiso   1.00
C207   C     0.47300   0.25850   0.86430   0.01267  Uiso   1.00
C208   C     0.45930   0.31670   0.80740   0.01267  Uiso   1.00
C209   C     0.47040   0.19350   0.82690   0.01267  Uiso   1.00
C210   C     0.43830   0.30180   0.71060   0.01267  Uiso   1.00
C211   C     0.45210   0.17920   0.73130   0.01267  Uiso   1.00
C212   C     0.43240   0.23600   0.67990   0.01267  Uiso   1.00
C213   C     0.31460   0.02220   0.07120   0.01267  Uiso   1.00
C214   C     0.19220   0.03000   0.05390   0.01267  Uiso   1.00
C215   C     0.18530   0.04500   0.89600   0.01267  Uiso   1.00
C216   C     0.17970   0.02370   0.15050   0.01267  Uiso   1.00
C217   C     0.10980   0.01980   0.19290   0.01267  Uiso   1.00
C218   C     0.25890   0.02980   0.01200   0.01267  Uiso   1.00
C219   C     0.52020   0.18460   0.97670   0.01267  Uiso   1.00
C220   C     0.23940   0.01970   0.20980   0.01267  Uiso   1.00
C221   C     0.30080   0.02100   0.16990   0.01267  Uiso   1.00
O222   O     0.46344   0.05691   0.74220   0.01267  Uiso   1.00
O223   O     0.48700   0.14659   0.89780   0.01267  Uiso   1.00
O224   O     0.39824   0.02990   0.94720   0.01267  Uiso   1.00
O225   O     0.43175   0.00730   0.09580   0.01267  Uiso   1.00
O226   O     0.05771   0.03201   0.13980   0.01267  Uiso   1.00
O227   O     0.45700   0.43176   0.77940   0.01267  Uiso   1.00
O228   O     0.48990   0.25524   0.95990   0.01267  Uiso   1.00
O229   O     0.25493   0.03930   0.91740   0.01267  Uiso   1.00
O230   O     0.10290   0.00850   0.28010   0.01267  Uiso   1.00
O231   O     0.14693   0.04060   0.98280   0.01267  Uiso   1.00
O232   O     0.47830   0.39855   0.92910   0.01267  Uiso   1.00
O233   O     0.44710   0.10190   0.60130   0.01267  Uiso   1.00
H234   H     0.99457   0.66074   0.70092   0.00000  Uiso   1.00
Zn235  Zn    0.47007   0.98740   0.62845   0.01267  Uiso   1.00
H236   H     0.16170   0.92840   0.41730   0.01267  Uiso   1.00
H237   H     0.27130   0.91310   0.36770   0.01267  Uiso   1.00
H238   H     0.41060   0.67620   0.61380   0.01267  Uiso   1.00
H239   H     0.49220   0.67140   0.60130   0.01267  Uiso   1.00
H240   H     0.31468   0.07824   0.71712   0.01267  Uiso   1.00
H241   H     0.48400   0.73500   0.02810   0.01267  Uiso   1.00
H242   H     0.47880   0.83910   0.96240   0.01267  Uiso   1.00
C243   C     0.39060   0.95630   0.43770   0.01267  Uiso   1.00
C244   C     0.47990   0.88780   0.78320   0.01267  Uiso   1.00
C245   C     0.11210   0.96630   0.59030   0.01267  Uiso   1.00
C246   C     0.24150   0.97300   0.61430   0.01267  Uiso   1.00
C247   C     0.18330   0.95930   0.55740   0.01267  Uiso   1.00
C248   C     0.30650   0.97040   0.57690   0.01267  Uiso   1.00
C249   C     0.19820   0.93830   0.46060   0.01267  Uiso   1.00
C250   C     0.32080   0.95210   0.48130   0.01267  Uiso   1.00
C251   C     0.26400   0.93240   0.42990   0.01267  Uiso   1.00
C252   C     0.47780   0.81460   0.82120   0.01267  Uiso   1.00
C253   C     0.47000   0.69220   0.80390   0.01267  Uiso   1.00
C254   C     0.45500   0.68530   0.64600   0.01267  Uiso   1.00
C255   C     0.47630   0.67970   0.90050   0.01267  Uiso   1.00
C256   C     0.48020   0.60980   0.94290   0.01267  Uiso   1.00
C257   C     0.47020   0.75890   0.76200   0.01267  Uiso   1.00
C258   C     0.31540   0.02020   0.72670   0.01267  Uiso   1.00
C259   C     0.48030   0.73940   0.95980   0.01267  Uiso   1.00
C260   C     0.47900   0.80080   0.91990   0.01267  Uiso   1.00
O261   O     0.44309   0.96344   0.49220   0.01267  Uiso   1.00
O262   O     0.35341   0.98700   0.64780   0.01267  Uiso   1.00
O263   O     0.47010   0.89824   0.69720   0.01267  Uiso   1.00
O264   O     0.49270   0.93175   0.84580   0.01267  Uiso   1.00
O265   O     0.46799   0.55771   0.88980   0.01267  Uiso   1.00
O266   O     0.06824   0.95700   0.52940   0.01267  Uiso   1.00
O267   O     0.24476   0.98990   0.70990   0.01267  Uiso   1.00
O268   O     0.46070   0.75493   0.66740   0.01267  Uiso   1.00
O269   O     0.49150   0.60290   0.03010   0.01267  Uiso   1.00
O270   O     0.45940   0.64693   0.73280   0.01267  Uiso   1.00
O271   O     0.10145   0.97830   0.67910   0.01267  Uiso   1.00
O272   O     0.39810   0.94710   0.35130   0.01267  Uiso   1.00
H273   H     0.83926   0.49457   0.45092   0.00000  Uiso   1.00
Zn274  Zn    0.52993   0.01260   0.12845   0.01267  Uiso   1.00
H275   H     0.83830   0.07160   0.91730   0.01267  Uiso   1.00
H276   H     0.72870   0.08690   0.86770   0.01267  Uiso   1.00
H277   H     0.58940   0.32380   0.11380   0.01267  Uiso   1.00
H278   H     0.50780   0.32860   0.10130   0.01267  Uiso   1.00
H279   H     0.68532   0.92176   0.21712   0.01267  Uiso   1.00
H280   H     0.51600   0.26500   0.52810   0.01267  Uiso   1.00
H281   H     0.52120   0.16090   0.46240   0.01267  Uiso   1.00
C282   C     0.60940   0.04370   0.93770   0.01267  Uiso   1.00
C283   C     0.52010   0.11220   0.28320   0.01267  Uiso   1.00
C284   C     0.88790   0.03370   0.09030   0.01267  Uiso   1.00
C285   C     0.75850   0.02700   0.11430   0.01267  Uiso   1.00
C286   C     0.81670   0.04070   0.05740   0.01267  Uiso   1.00
C287   C     0.69350   0.02960   0.07690   0.01267  Uiso   1.00
C288   C     0.80180   0.06170   0.96060   0.01267  Uiso   1.00
C289   C     0.67920   0.04790   0.98130   0.01267  Uiso   1.00
C290   C     0.73600   0.06760   0.92990   0.01267  Uiso   1.00
C291   C     0.52220   0.18540   0.32120   0.01267  Uiso   1.00
C292   C     0.53000   0.30780   0.30390   0.01267  Uiso   1.00
C293   C     0.54500   0.31470   0.14600   0.01267  Uiso   1.00
C294   C     0.52370   0.32030   0.40050   0.01267  Uiso   1.00
C295   C     0.51980   0.39020   0.44290   0.01267  Uiso   1.00
C296   C     0.52980   0.24110   0.26200   0.01267  Uiso   1.00
C297   C     0.68460   0.97980   0.22670   0.01267  Uiso   1.00
C298   C     0.51970   0.26060   0.45980   0.01267  Uiso   1.00
C299   C     0.52100   0.19920   0.41990   0.01267  Uiso   1.00
O300   O     0.55691   0.03656   0.99220   0.01267  Uiso   1.00
O301   O     0.64659   0.01300   0.14780   0.01267  Uiso   1.00
O302   O     0.52990   0.10176   0.19720   0.01267  Uiso   1.00
O303   O     0.50730   0.06825   0.34580   0.01267  Uiso   1.00
O304   O     0.53201   0.44229   0.38980   0.01267  Uiso   1.00
O305   O     0.93176   0.04300   0.02940   0.01267  Uiso   1.00
O306   O     0.75524   0.01010   0.20990   0.01267  Uiso   1.00
O307   O     0.53930   0.24507   0.16740   0.01267  Uiso   1.00
O308   O     0.50850   0.39710   0.53010   0.01267  Uiso   1.00
O309   O     0.54060   0.35307   0.23280   0.01267  Uiso   1.00
O310   O     0.89855   0.02170   0.17910   0.01267  Uiso   1.00
O311   O     0.60190   0.05290   0.85130   0.01267  Uiso   1.00
H312   H     0.16074   0.50543   0.95092   0.00000  Uiso   1.00
Zn313  Zn    0.48631   0.48631  -0.00000   0.01267  Uiso   1.00
Zn314  Zn    0.51369   0.51369   0.50000   0.01267  Uiso   1.00
Zn315  Zn    0.01369   0.98631   0.75000   0.01267  Uiso   1.00
Zn316  Zn    0.98631   0.01369   0.25000   0.01267  Uiso   1.00
Zn317  Zn    0.52986   0.47014   0.25000   0.01267  Uiso   1.00
Zn318  Zn    0.47014   0.52986   0.75000   0.01267  Uiso   1.00
Zn319  Zn    0.02986   0.02986  -0.00000   0.01267  Uiso   1.00
Zn320  Zn    0.97014   0.97014   0.50000   0.01267  Uiso   1.00
