data_image0
_cell_length_a       8.63
_cell_length_b       13.533
_cell_length_c       13.533
_cell_angle_alpha    93.4134
_cell_angle_beta     97.036
_cell_angle_gamma    97.036

_symmetry_space_group_name_H-M    P 1
_symmetry_int_tables_number       1

loop_
  _symmetry_equiv_pos_as_xyz
  'x, y, z'

loop_
  _atom_site_label
  _atom_site_occupancy
  _atom_site_fract_x
  _atom_site_fract_y
  _atom_site_fract_z
  _atom_site_thermal_displace_type
  _atom_site_B_iso_or_equiv
  _atom_site_type_symbol
  Ni1      1.0000 0.75000  0.67710  0.32290  Biso   1.000  Ni
  H1       1.0000 0.94430  0.74560  0.16040  Biso   1.000  H
  H2       1.0000 0.92430  0.73500  0.98060  Biso   1.000  H
  H3       1.0000 0.46750  0.60170  0.96150  Biso   1.000  H
  H4       1.0000 0.50460  0.60590  0.14070  Biso   1.000  H
  H5       1.0000 0.59640  0.69580  0.82180  Biso   1.000  H
  H6       1.0000 0.66680  0.59580  0.82240  Biso   1.000  H
  H7       1.0000 0.67350  0.81460  0.49000  Biso   1.000  H
  H8       1.0000 0.70140  0.82920  0.67260  Biso   1.000  H
  H9       1.0000 0.92170  0.57250  0.66610  Biso   1.000  H
  H10      1.0000 0.88450  0.55870  0.49710  Biso   1.000  H
  H11      1.0000 0.83300  0.77990  0.83450  Biso   1.000  H
  H12      1.0000 0.90840  0.68190  0.84250  Biso   1.000  H
  H13      1.0000 0.55570  0.83960  0.25440  Biso   1.000  H
  H14      1.0000 0.57570  0.01940  0.26500  Biso   1.000  H
  H15      1.0000 0.03250  0.03850  0.39830  Biso   1.000  H
  H16      1.0000 0.99540  0.85930  0.39410  Biso   1.000  H
  H17      1.0000 0.90360  0.17820  0.30420  Biso   1.000  H
  H18      1.0000 0.83320  0.17760  0.40420  Biso   1.000  H
  H19      1.0000 0.82650  0.51000  0.18540  Biso   1.000  H
  H20      1.0000 0.79860  0.32740  0.17080  Biso   1.000  H
  H21      1.0000 0.57830  0.33390  0.42750  Biso   1.000  H
  H22      1.0000 0.61550  0.50290  0.44130  Biso   1.000  H
  H23      1.0000 0.66700  0.16550  0.22010  Biso   1.000  H
  H24      1.0000 0.59160  0.15750  0.31810  Biso   1.000  H
  C1       1.0000 0.83800  0.71300  0.12300  Biso   1.000  C
  C2       1.0000 0.83200  0.71110  0.01490  Biso   1.000  C
  C3       1.0000 0.69600  0.66900  0.95900  Biso   1.000  C
  C4       1.0000 0.57400  0.62800  0.00400  Biso   1.000  C
  C5       1.0000 0.58800  0.63610  0.10590  Biso   1.000  C
  C6       1.0000 0.68800  0.66200  0.85000  Biso   1.000  C
  C7       1.0000 0.72600  0.76400  0.53000  Biso   1.000  C
  C8       1.0000 0.74100  0.77100  0.63900  Biso   1.000  C
  C9       1.0000 0.81000  0.69700  0.68900  Biso   1.000  C
  C10      1.0000 0.86500  0.62400  0.63600  Biso   1.000  C
  C11      1.0000 0.85200  0.62000  0.53600  Biso   1.000  C
  C12      1.0000 0.81600  0.71400  0.80600  Biso   1.000  C
  C13      1.0000 0.10900  0.65610  0.34590  Biso   1.000  C
  C14      1.0000 0.66200  0.87700  0.28700  Biso   1.000  C
  C15      1.0000 0.66800  0.98510  0.28890  Biso   1.000  C
  C16      1.0000 0.80400  0.04100  0.33100  Biso   1.000  C
  C17      1.0000 0.92600  0.99600  0.37200  Biso   1.000  C
  C18      1.0000 0.91200  0.89410  0.36390  Biso   1.000  C
  C19      1.0000 0.81200  0.15000  0.33800  Biso   1.000  C
  C20      1.0000 0.77400  0.47000  0.23600  Biso   1.000  C
  C21      1.0000 0.75900  0.36100  0.22900  Biso   1.000  C
  C22      1.0000 0.69000  0.31100  0.30300  Biso   1.000  C
  C23      1.0000 0.63500  0.36400  0.37600  Biso   1.000  C
  C24      1.0000 0.64800  0.46400  0.38000  Biso   1.000  C
  C25      1.0000 0.68400  0.19400  0.28600  Biso   1.000  C
  C26      1.0000 0.39100  0.65410  0.34390  Biso   1.000  C
  N1       1.0000 0.72000  0.67450  0.16570  Biso   1.000  N
  N2       1.0000 0.77900  0.68800  0.48380  Biso   1.000  N
  N3       1.0000 0.98800  0.67180  0.33040  Biso   1.000  N
  N4       1.0000 0.78000  0.83430  0.32550  Biso   1.000  N
  N5       1.0000 0.72100  0.51620  0.31200  Biso   1.000  N
  N6       1.0000 0.51200  0.66960  0.32820  Biso   1.000  N
  N7       1.0000 0.25000  0.62400  0.37600  Biso   1.000  N
  Ni2      1.0000 0.25000  0.32290  0.67710  Biso   1.000  Ni
  H25      1.0000 0.05570  0.25440  0.83960  Biso   1.000  H
  H26      1.0000 0.07570  0.26500  0.01940  Biso   1.000  H
  H27      1.0000 0.53250  0.39830  0.03850  Biso   1.000  H
  H28      1.0000 0.49540  0.39410  0.85930  Biso   1.000  H
  H29      1.0000 0.40360  0.30420  0.17820  Biso   1.000  H
  H30      1.0000 0.33320  0.40420  0.17760  Biso   1.000  H
  H31      1.0000 0.32650  0.18540  0.51000  Biso   1.000  H
  H32      1.0000 0.29860  0.17080  0.32740  Biso   1.000  H
  H33      1.0000 0.07830  0.42750  0.33390  Biso   1.000  H
  H34      1.0000 0.11550  0.44130  0.50290  Biso   1.000  H
  H35      1.0000 0.16700  0.22010  0.16550  Biso   1.000  H
  H36      1.0000 0.09160  0.31810  0.15750  Biso   1.000  H
  H37      1.0000 0.44430  0.16040  0.74560  Biso   1.000  H
  H38      1.0000 0.42430  0.98060  0.73500  Biso   1.000  H
  H39      1.0000 0.96750  0.96150  0.60170  Biso   1.000  H
  H40      1.0000 0.00460  0.14070  0.60590  Biso   1.000  H
  H41      1.0000 0.09640  0.82180  0.69580  Biso   1.000  H
  H42      1.0000 0.16680  0.82240  0.59580  Biso   1.000  H
  H43      1.0000 0.17350  0.49000  0.81460  Biso   1.000  H
  H44      1.0000 0.20140  0.67260  0.82920  Biso   1.000  H
  H45      1.0000 0.42170  0.66610  0.57250  Biso   1.000  H
  H46      1.0000 0.38450  0.49710  0.55870  Biso   1.000  H
  H47      1.0000 0.33300  0.83450  0.77990  Biso   1.000  H
  H48      1.0000 0.40840  0.84250  0.68190  Biso   1.000  H
  C27      1.0000 0.16200  0.28700  0.87700  Biso   1.000  C
  C28      1.0000 0.16800  0.28890  0.98510  Biso   1.000  C
  C29      1.0000 0.30400  0.33100  0.04100  Biso   1.000  C
  C30      1.0000 0.42600  0.37200  0.99600  Biso   1.000  C
  C31      1.0000 0.41200  0.36390  0.89410  Biso   1.000  C
  C32      1.0000 0.31200  0.33800  0.15000  Biso   1.000  C
  C33      1.0000 0.27400  0.23600  0.47000  Biso   1.000  C
  C34      1.0000 0.25900  0.22900  0.36100  Biso   1.000  C
  C35      1.0000 0.19000  0.30300  0.31100  Biso   1.000  C
  C36      1.0000 0.13500  0.37600  0.36400  Biso   1.000  C
  C37      1.0000 0.14800  0.38000  0.46400  Biso   1.000  C
  C38      1.0000 0.18400  0.28600  0.19400  Biso   1.000  C
  C39      1.0000 0.89100  0.34390  0.65410  Biso   1.000  C
  C40      1.0000 0.33800  0.12300  0.71300  Biso   1.000  C
  C41      1.0000 0.33200  0.01490  0.71110  Biso   1.000  C
  C42      1.0000 0.19600  0.95900  0.66900  Biso   1.000  C
  C43      1.0000 0.07400  0.00400  0.62800  Biso   1.000  C
  C44      1.0000 0.08800  0.10590  0.63610  Biso   1.000  C
  C45      1.0000 0.18800  0.85000  0.66200  Biso   1.000  C
  C46      1.0000 0.22600  0.53000  0.76400  Biso   1.000  C
  C47      1.0000 0.24100  0.63900  0.77100  Biso   1.000  C
  C48      1.0000 0.31000  0.68900  0.69700  Biso   1.000  C
  C49      1.0000 0.36500  0.63600  0.62400  Biso   1.000  C
  C50      1.0000 0.35200  0.53600  0.62000  Biso   1.000  C
  C51      1.0000 0.31600  0.80600  0.71400  Biso   1.000  C
  C52      1.0000 0.60900  0.34590  0.65610  Biso   1.000  C
  N8       1.0000 0.28000  0.32550  0.83430  Biso   1.000  N
  N9       1.0000 0.22100  0.31200  0.51620  Biso   1.000  N
  N10      1.0000 0.01200  0.32820  0.66960  Biso   1.000  N
  N11      1.0000 0.22000  0.16570  0.67450  Biso   1.000  N
  N12      1.0000 0.27900  0.48380  0.68800  Biso   1.000  N
  N13      1.0000 0.48800  0.33040  0.67180  Biso   1.000  N
  N14      1.0000 0.75000  0.37600  0.62400  Biso   1.000  N
