data_image0
_cell_length_a       15.3213
_cell_length_b       15.3213
_cell_length_c       32.571
_cell_angle_alpha    90
_cell_angle_beta     90
_cell_angle_gamma    120

_symmetry_space_group_name_H-M    P 1
_symmetry_int_tables_number       1

loop_
  _symmetry_equiv_pos_as_xyz
  'x, y, z'

loop_
  _atom_site_label
  _atom_site_occupancy
  _atom_site_fract_x
  _atom_site_fract_y
  _atom_site_fract_z
  _atom_site_thermal_displace_type
  _atom_site_B_iso_or_equiv
  _atom_site_type_symbol
  In1      1.0000 0.42035  0.84070  0.40789  Biso   1.000  In
  In2      1.0000 0.42035  0.57965  0.40789  Biso   1.000  In
  In3      1.0000 0.15930  0.57965  0.40789  Biso   1.000  In
  In4      1.0000 0.57965  0.15930  0.90789  Biso   1.000  In
  In5      1.0000 0.57965  0.42035  0.90789  Biso   1.000  In
  In6      1.0000 0.84070  0.42035  0.90789  Biso   1.000  In
  In7      1.0000 0.57965  0.15930  0.59211  Biso   1.000  In
  In8      1.0000 0.84070  0.42035  0.59211  Biso   1.000  In
  In9      1.0000 0.57965  0.42035  0.59211  Biso   1.000  In
  In10     1.0000 0.42035  0.84070  0.09211  Biso   1.000  In
  In11     1.0000 0.15930  0.57965  0.09211  Biso   1.000  In
  In12     1.0000 0.42035  0.57965  0.09211  Biso   1.000  In
  In13     1.0000 0.50000  0.00000  0.50000  Biso   1.000  In
  In14     1.0000 0.50000  0.50000  0.50000  Biso   1.000  In
  In15     1.0000 0.00000  0.50000  0.50000  Biso   1.000  In
  In16     1.0000 0.50000  0.00000  0.00000  Biso   1.000  In
  In17     1.0000 0.50000  0.50000  0.00000  Biso   1.000  In
  In18     1.0000 0.00000  0.50000  0.00000  Biso   1.000  In
  In19     1.0000 0.07726  0.15452  0.25000  Biso   1.000  In
  In20     1.0000 0.07726  0.92274  0.25000  Biso   1.000  In
  In21     1.0000 0.84548  0.92274  0.25000  Biso   1.000  In
  In22     1.0000 0.92274  0.84548  0.75000  Biso   1.000  In
  In23     1.0000 0.92274  0.07726  0.75000  Biso   1.000  In
  In24     1.0000 0.15452  0.07726  0.75000  Biso   1.000  In
  H1       1.0000 0.28280  0.01020  0.35520  Biso   1.000  H
  H2       1.0000 0.72740  0.71720  0.35520  Biso   1.000  H
  H3       1.0000 0.98980  0.27260  0.35520  Biso   1.000  H
  H4       1.0000 0.71720  0.98980  0.85520  Biso   1.000  H
  H5       1.0000 0.27260  0.28280  0.85520  Biso   1.000  H
  H6       1.0000 0.01020  0.72740  0.85520  Biso   1.000  H
  H7       1.0000 0.27260  0.98980  0.64480  Biso   1.000  H
  H8       1.0000 0.01020  0.28280  0.64480  Biso   1.000  H
  H9       1.0000 0.71720  0.72740  0.64480  Biso   1.000  H
  H10      1.0000 0.72740  0.01020  0.14480  Biso   1.000  H
  H11      1.0000 0.98980  0.71720  0.14480  Biso   1.000  H
  H12      1.0000 0.28280  0.27260  0.14480  Biso   1.000  H
  H13      1.0000 0.71720  0.98980  0.64480  Biso   1.000  H
  H14      1.0000 0.27260  0.28280  0.64480  Biso   1.000  H
  H15      1.0000 0.01020  0.72740  0.64480  Biso   1.000  H
  H16      1.0000 0.28280  0.01020  0.14480  Biso   1.000  H
  H17      1.0000 0.72740  0.71720  0.14480  Biso   1.000  H
  H18      1.0000 0.98980  0.27260  0.14480  Biso   1.000  H
  H19      1.0000 0.72740  0.01020  0.35520  Biso   1.000  H
  H20      1.0000 0.98980  0.71720  0.35520  Biso   1.000  H
  H21      1.0000 0.28280  0.27260  0.35520  Biso   1.000  H
  H22      1.0000 0.27260  0.98980  0.85520  Biso   1.000  H
  H23      1.0000 0.01020  0.28280  0.85520  Biso   1.000  H
  H24      1.0000 0.71720  0.72740  0.85520  Biso   1.000  H
  H25      1.0000 0.42460  0.21230  0.44560  Biso   1.000  H
  H26      1.0000 0.78770  0.57540  0.44560  Biso   1.000  H
  H27      1.0000 0.78770  0.21230  0.44560  Biso   1.000  H
  H28      1.0000 0.57540  0.78770  0.94560  Biso   1.000  H
  H29      1.0000 0.21230  0.42460  0.94560  Biso   1.000  H
  H30      1.0000 0.21230  0.78770  0.94560  Biso   1.000  H
  H31      1.0000 0.21230  0.78770  0.55440  Biso   1.000  H
  H32      1.0000 0.21230  0.42460  0.55440  Biso   1.000  H
  H33      1.0000 0.57540  0.78770  0.55440  Biso   1.000  H
  H34      1.0000 0.78770  0.21230  0.05440  Biso   1.000  H
  H35      1.0000 0.78770  0.57540  0.05440  Biso   1.000  H
  H36      1.0000 0.42460  0.21230  0.05440  Biso   1.000  H
  C1       1.0000 0.39110  0.03180  0.42270  Biso   1.000  C
  C2       1.0000 0.35880  0.09940  0.40310  Biso   1.000  C
  C3       1.0000 0.30200  0.07210  0.36730  Biso   1.000  C
  C4       1.0000 0.64070  0.60890  0.42270  Biso   1.000  C
  C5       1.0000 0.74060  0.64120  0.40310  Biso   1.000  C
  C6       1.0000 0.77010  0.69800  0.36730  Biso   1.000  C
  C7       1.0000 0.96820  0.35930  0.42270  Biso   1.000  C
  C8       1.0000 0.90060  0.25940  0.40310  Biso   1.000  C
  C9       1.0000 0.92790  0.22990  0.36730  Biso   1.000  C
  C10      1.0000 0.60890  0.96820  0.92270  Biso   1.000  C
  C11      1.0000 0.64120  0.90060  0.90310  Biso   1.000  C
  C12      1.0000 0.69800  0.92790  0.86730  Biso   1.000  C
  C13      1.0000 0.35930  0.39110  0.92270  Biso   1.000  C
  C14      1.0000 0.25940  0.35880  0.90310  Biso   1.000  C
  C15      1.0000 0.22990  0.30200  0.86730  Biso   1.000  C
  C16      1.0000 0.03180  0.64070  0.92270  Biso   1.000  C
  C17      1.0000 0.09940  0.74060  0.90310  Biso   1.000  C
  C18      1.0000 0.07210  0.77010  0.86730  Biso   1.000  C
  C19      1.0000 0.35930  0.96820  0.57730  Biso   1.000  C
  C20      1.0000 0.25940  0.90060  0.59690  Biso   1.000  C
  C21      1.0000 0.22990  0.92790  0.63270  Biso   1.000  C
  C22      1.0000 0.03180  0.39110  0.57730  Biso   1.000  C
  C23      1.0000 0.09940  0.35880  0.59690  Biso   1.000  C
  C24      1.0000 0.07210  0.30200  0.63270  Biso   1.000  C
  C25      1.0000 0.60890  0.64070  0.57730  Biso   1.000  C
  C26      1.0000 0.64120  0.74060  0.59690  Biso   1.000  C
  C27      1.0000 0.69800  0.77010  0.63270  Biso   1.000  C
  C28      1.0000 0.64070  0.03180  0.07730  Biso   1.000  C
  C29      1.0000 0.74060  0.09940  0.09690  Biso   1.000  C
  C30      1.0000 0.77010  0.07210  0.13270  Biso   1.000  C
  C31      1.0000 0.96820  0.60890  0.07730  Biso   1.000  C
  C32      1.0000 0.90060  0.64120  0.09690  Biso   1.000  C
  C33      1.0000 0.92790  0.69800  0.13270  Biso   1.000  C
  C34      1.0000 0.39110  0.35930  0.07730  Biso   1.000  C
  C35      1.0000 0.35880  0.25940  0.09690  Biso   1.000  C
  C36      1.0000 0.30200  0.22990  0.13270  Biso   1.000  C
  C37      1.0000 0.60890  0.96820  0.57730  Biso   1.000  C
  C38      1.0000 0.64120  0.90060  0.59690  Biso   1.000  C
  C39      1.0000 0.69800  0.92790  0.63270  Biso   1.000  C
  C40      1.0000 0.35930  0.39110  0.57730  Biso   1.000  C
  C41      1.0000 0.25940  0.35880  0.59690  Biso   1.000  C
  C42      1.0000 0.22990  0.30200  0.63270  Biso   1.000  C
  C43      1.0000 0.03180  0.64070  0.57730  Biso   1.000  C
  C44      1.0000 0.09940  0.74060  0.59690  Biso   1.000  C
  C45      1.0000 0.07210  0.77010  0.63270  Biso   1.000  C
  C46      1.0000 0.39110  0.03180  0.07730  Biso   1.000  C
  C47      1.0000 0.35880  0.09940  0.09690  Biso   1.000  C
  C48      1.0000 0.30200  0.07210  0.13270  Biso   1.000  C
  C49      1.0000 0.64070  0.60890  0.07730  Biso   1.000  C
  C50      1.0000 0.74060  0.64120  0.09690  Biso   1.000  C
  C51      1.0000 0.77010  0.69800  0.13270  Biso   1.000  C
  C52      1.0000 0.96820  0.35930  0.07730  Biso   1.000  C
  C53      1.0000 0.90060  0.25940  0.09690  Biso   1.000  C
  C54      1.0000 0.92790  0.22990  0.13270  Biso   1.000  C
  C55      1.0000 0.64070  0.03180  0.42270  Biso   1.000  C
  C56      1.0000 0.74060  0.09940  0.40310  Biso   1.000  C
  C57      1.0000 0.77010  0.07210  0.36730  Biso   1.000  C
  C58      1.0000 0.96820  0.60890  0.42270  Biso   1.000  C
  C59      1.0000 0.90060  0.64120  0.40310  Biso   1.000  C
  C60      1.0000 0.92790  0.69800  0.36730  Biso   1.000  C
  C61      1.0000 0.39110  0.35930  0.42270  Biso   1.000  C
  C62      1.0000 0.35880  0.25940  0.40310  Biso   1.000  C
  C63      1.0000 0.30200  0.22990  0.36730  Biso   1.000  C
  C64      1.0000 0.35930  0.96820  0.92270  Biso   1.000  C
  C65      1.0000 0.25940  0.90060  0.90310  Biso   1.000  C
  C66      1.0000 0.22990  0.92790  0.86730  Biso   1.000  C
  C67      1.0000 0.03180  0.39110  0.92270  Biso   1.000  C
  C68      1.0000 0.09940  0.35880  0.90310  Biso   1.000  C
  C69      1.0000 0.07210  0.30200  0.86730  Biso   1.000  C
  C70      1.0000 0.60890  0.64070  0.92270  Biso   1.000  C
  C71      1.0000 0.64120  0.74060  0.90310  Biso   1.000  C
  C72      1.0000 0.69800  0.77010  0.86730  Biso   1.000  C
  C73      1.0000 0.20640  0.10320  0.31120  Biso   1.000  C
  C74      1.0000 0.27360  0.13680  0.34940  Biso   1.000  C
  C75      1.0000 0.38720  0.19360  0.42150  Biso   1.000  C
  C76      1.0000 0.89680  0.79360  0.31120  Biso   1.000  C
  C77      1.0000 0.86320  0.72640  0.34940  Biso   1.000  C
  C78      1.0000 0.80640  0.61280  0.42150  Biso   1.000  C
  C79      1.0000 0.89680  0.10320  0.31120  Biso   1.000  C
  C80      1.0000 0.86320  0.13680  0.34940  Biso   1.000  C
  C81      1.0000 0.80640  0.19360  0.42150  Biso   1.000  C
  C82      1.0000 0.79360  0.89680  0.81120  Biso   1.000  C
  C83      1.0000 0.72640  0.86320  0.84940  Biso   1.000  C
  C84      1.0000 0.61280  0.80640  0.92150  Biso   1.000  C
  C85      1.0000 0.10320  0.20640  0.81120  Biso   1.000  C
  C86      1.0000 0.13680  0.27360  0.84940  Biso   1.000  C
  C87      1.0000 0.19360  0.38720  0.92150  Biso   1.000  C
  C88      1.0000 0.10320  0.89680  0.81120  Biso   1.000  C
  C89      1.0000 0.13680  0.86320  0.84940  Biso   1.000  C
  C90      1.0000 0.19360  0.80640  0.92150  Biso   1.000  C
  C91      1.0000 0.10320  0.89680  0.68880  Biso   1.000  C
  C92      1.0000 0.13680  0.86320  0.65060  Biso   1.000  C
  C93      1.0000 0.19360  0.80640  0.57850  Biso   1.000  C
  C94      1.0000 0.10320  0.20640  0.68880  Biso   1.000  C
  C95      1.0000 0.13680  0.27360  0.65060  Biso   1.000  C
  C96      1.0000 0.19360  0.38720  0.57850  Biso   1.000  C
  C97      1.0000 0.79360  0.89680  0.68880  Biso   1.000  C
  C98      1.0000 0.72640  0.86320  0.65060  Biso   1.000  C
  C99      1.0000 0.61280  0.80640  0.57850  Biso   1.000  C
  C100     1.0000 0.89680  0.10320  0.18880  Biso   1.000  C
  C101     1.0000 0.86320  0.13680  0.15060  Biso   1.000  C
  C102     1.0000 0.80640  0.19360  0.07850  Biso   1.000  C
  C103     1.0000 0.89680  0.79360  0.18880  Biso   1.000  C
  C104     1.0000 0.86320  0.72640  0.15060  Biso   1.000  C
  C105     1.0000 0.80640  0.61280  0.07850  Biso   1.000  C
  C106     1.0000 0.20640  0.10320  0.18880  Biso   1.000  C
  C107     1.0000 0.27360  0.13680  0.15060  Biso   1.000  C
  C108     1.0000 0.38720  0.19360  0.07850  Biso   1.000  C
  O1       1.0000 0.18310  0.16500  0.29715  Biso   1.000  O
  O2       1.0000 0.37990  0.95830  0.40149  Biso   1.000  O
  O3       1.0000 0.42770  0.05410  0.45822  Biso   1.000  O
  O4       1.0000 0.98190  0.81690  0.29715  Biso   1.000  O
  O5       1.0000 0.57840  0.62010  0.40149  Biso   1.000  O
  O6       1.0000 0.62640  0.57230  0.45822  Biso   1.000  O
  O7       1.0000 0.83500  0.01810  0.29715  Biso   1.000  O
  O8       1.0000 0.04170  0.42160  0.40149  Biso   1.000  O
  O9       1.0000 0.94590  0.37360  0.45822  Biso   1.000  O
  O10      1.0000 0.81690  0.83500  0.79715  Biso   1.000  O
  O11      1.0000 0.62010  0.04170  0.90149  Biso   1.000  O
  O12      1.0000 0.57230  0.94590  0.95822  Biso   1.000  O
  O13      1.0000 0.01810  0.18310  0.79715  Biso   1.000  O
  O14      1.0000 0.42160  0.37990  0.90149  Biso   1.000  O
  O15      1.0000 0.37360  0.42770  0.95822  Biso   1.000  O
  O16      1.0000 0.16500  0.98190  0.79715  Biso   1.000  O
  O17      1.0000 0.95830  0.57840  0.90149  Biso   1.000  O
  O18      1.0000 0.05410  0.62640  0.95822  Biso   1.000  O
  O19      1.0000 0.01810  0.83500  0.70285  Biso   1.000  O
  O20      1.0000 0.42160  0.04170  0.59851  Biso   1.000  O
  O21      1.0000 0.37360  0.94590  0.54178  Biso   1.000  O
  O22      1.0000 0.16500  0.18310  0.70285  Biso   1.000  O
  O23      1.0000 0.95830  0.37990  0.59851  Biso   1.000  O
  O24      1.0000 0.05410  0.42770  0.54178  Biso   1.000  O
  O25      1.0000 0.81690  0.98190  0.70285  Biso   1.000  O
  O26      1.0000 0.62010  0.57840  0.59851  Biso   1.000  O
  O27      1.0000 0.57230  0.62640  0.54178  Biso   1.000  O
  O28      1.0000 0.98190  0.16500  0.20285  Biso   1.000  O
  O29      1.0000 0.57840  0.95830  0.09851  Biso   1.000  O
  O30      1.0000 0.62640  0.05410  0.04178  Biso   1.000  O
  O31      1.0000 0.83500  0.81690  0.20285  Biso   1.000  O
  O32      1.0000 0.04170  0.62010  0.09851  Biso   1.000  O
  O33      1.0000 0.94590  0.57230  0.04178  Biso   1.000  O
  O34      1.0000 0.18310  0.01810  0.20285  Biso   1.000  O
  O35      1.0000 0.37990  0.42160  0.09851  Biso   1.000  O
  O36      1.0000 0.42770  0.37360  0.04178  Biso   1.000  O
  O37      1.0000 0.81690  0.83500  0.70285  Biso   1.000  O
  O38      1.0000 0.62010  0.04170  0.59851  Biso   1.000  O
  O39      1.0000 0.57230  0.94590  0.54178  Biso   1.000  O
  O40      1.0000 0.01810  0.18310  0.70285  Biso   1.000  O
  O41      1.0000 0.42160  0.37990  0.59851  Biso   1.000  O
  O42      1.0000 0.37360  0.42770  0.54178  Biso   1.000  O
  O43      1.0000 0.16500  0.98190  0.70285  Biso   1.000  O
  O44      1.0000 0.95830  0.57840  0.59851  Biso   1.000  O
  O45      1.0000 0.05410  0.62640  0.54178  Biso   1.000  O
  O46      1.0000 0.18310  0.16500  0.20285  Biso   1.000  O
  O47      1.0000 0.37990  0.95830  0.09851  Biso   1.000  O
  O48      1.0000 0.42770  0.05410  0.04178  Biso   1.000  O
  O49      1.0000 0.98190  0.81690  0.20285  Biso   1.000  O
  O50      1.0000 0.57840  0.62010  0.09851  Biso   1.000  O
  O51      1.0000 0.62640  0.57230  0.04178  Biso   1.000  O
  O52      1.0000 0.83500  0.01810  0.20285  Biso   1.000  O
  O53      1.0000 0.04170  0.42160  0.09851  Biso   1.000  O
  O54      1.0000 0.94590  0.37360  0.04178  Biso   1.000  O
  O55      1.0000 0.98190  0.16500  0.29715  Biso   1.000  O
  O56      1.0000 0.57840  0.95830  0.40149  Biso   1.000  O
  O57      1.0000 0.62640  0.05410  0.45822  Biso   1.000  O
  O58      1.0000 0.83500  0.81690  0.29715  Biso   1.000  O
  O59      1.0000 0.04170  0.62010  0.40149  Biso   1.000  O
  O60      1.0000 0.94590  0.57230  0.45822  Biso   1.000  O
  O61      1.0000 0.18310  0.01810  0.29715  Biso   1.000  O
  O62      1.0000 0.37990  0.42160  0.40149  Biso   1.000  O
  O63      1.0000 0.42770  0.37360  0.45822  Biso   1.000  O
  O64      1.0000 0.01810  0.83500  0.79715  Biso   1.000  O
  O65      1.0000 0.42160  0.04170  0.90149  Biso   1.000  O
  O66      1.0000 0.37360  0.94590  0.95822  Biso   1.000  O
  O67      1.0000 0.16500  0.18310  0.79715  Biso   1.000  O
  O68      1.0000 0.95830  0.37990  0.90149  Biso   1.000  O
  O69      1.0000 0.05410  0.42770  0.95822  Biso   1.000  O
  O70      1.0000 0.81690  0.98190  0.79715  Biso   1.000  O
  O71      1.0000 0.62010  0.57840  0.90149  Biso   1.000  O
  O72      1.0000 0.57230  0.62640  0.95822  Biso   1.000  O
  O73      1.0000 0.42870  0.85740  0.47270  Biso   1.000  O
  O74      1.0000 0.42370  0.84740  0.34070  Biso   1.000  O
  O75      1.0000 0.42870  0.57130  0.47270  Biso   1.000  O
  O76      1.0000 0.42370  0.57630  0.34070  Biso   1.000  O
  O77      1.0000 0.14260  0.57130  0.47270  Biso   1.000  O
  O78      1.0000 0.15260  0.57630  0.34070  Biso   1.000  O
  O79      1.0000 0.57130  0.14260  0.97270  Biso   1.000  O
  O80      1.0000 0.57630  0.15260  0.84070  Biso   1.000  O
  O81      1.0000 0.57130  0.42870  0.97270  Biso   1.000  O
  O82      1.0000 0.57630  0.42370  0.84070  Biso   1.000  O
  O83      1.0000 0.85740  0.42870  0.97270  Biso   1.000  O
  O84      1.0000 0.84740  0.42370  0.84070  Biso   1.000  O
  O85      1.0000 0.57130  0.14260  0.52730  Biso   1.000  O
  O86      1.0000 0.57630  0.15260  0.65930  Biso   1.000  O
  O87      1.0000 0.85740  0.42870  0.52730  Biso   1.000  O
  O88      1.0000 0.84740  0.42370  0.65930  Biso   1.000  O
  O89      1.0000 0.57130  0.42870  0.52730  Biso   1.000  O
  O90      1.0000 0.57630  0.42370  0.65930  Biso   1.000  O
  O91      1.0000 0.42870  0.85740  0.02730  Biso   1.000  O
  O92      1.0000 0.42370  0.84740  0.15930  Biso   1.000  O
  O93      1.0000 0.14260  0.57130  0.02730  Biso   1.000  O
  O94      1.0000 0.15260  0.57630  0.15930  Biso   1.000  O
  O95      1.0000 0.42870  0.57130  0.02730  Biso   1.000  O
  O96      1.0000 0.42370  0.57630  0.15930  Biso   1.000  O
  O97      1.0000 0.15680  0.31360  0.25000  Biso   1.000  O
  O98      1.0000 0.15680  0.84320  0.25000  Biso   1.000  O
  O99      1.0000 0.68640  0.84320  0.25000  Biso   1.000  O
  O100     1.0000 0.84320  0.68640  0.75000  Biso   1.000  O
  O101     1.0000 0.84320  0.15680  0.75000  Biso   1.000  O
  O102     1.0000 0.31360  0.15680  0.75000  Biso   1.000  O
  O103     1.0000 0.00000  0.00000  0.25000  Biso   1.000  O
  O104     1.0000 0.00000  0.00000  0.75000  Biso   1.000  O
  O105     1.0000 0.47110  0.73555  0.40620  Biso   1.000  O
  O106     1.0000 0.26445  0.52890  0.40620  Biso   1.000  O
  O107     1.0000 0.26445  0.73555  0.40620  Biso   1.000  O
  O108     1.0000 0.52890  0.26445  0.90620  Biso   1.000  O
  O109     1.0000 0.73555  0.47110  0.90620  Biso   1.000  O
  O110     1.0000 0.73555  0.26445  0.90620  Biso   1.000  O
  O111     1.0000 0.73555  0.26445  0.59380  Biso   1.000  O
  O112     1.0000 0.73555  0.47110  0.59380  Biso   1.000  O
  O113     1.0000 0.52890  0.26445  0.59380  Biso   1.000  O
  O114     1.0000 0.26445  0.73555  0.09380  Biso   1.000  O
  O115     1.0000 0.26445  0.52890  0.09380  Biso   1.000  O
  O116     1.0000 0.47110  0.73555  0.09380  Biso   1.000  O
