data_image0
_cell_length_a       17.998
_cell_length_b       17.998
_cell_length_c       25.9577
_cell_angle_alpha    90
_cell_angle_beta     90
_cell_angle_gamma    90

_symmetry_space_group_name_H-M    "P 1"
_symmetry_int_tables_number       1

loop_
  _symmetry_equiv_pos_as_xyz
  'x, y, z'

loop_
  _atom_site_label
  _atom_site_occupancy
  _atom_site_fract_x
  _atom_site_fract_y
  _atom_site_fract_z
  _atom_site_thermal_displace_type
  _atom_site_B_iso_or_equiv
  _atom_site_type_symbol
  C1       1.0000 0.33360  0.60990  0.94880  Biso   1.000  C
  C2       1.0000 0.22690  0.81260  0.14080  Biso   1.000  C
  C3       1.0000 0.38780  0.57000  0.92341  Biso   1.000  C
  C4       1.0000 0.36880  0.52290  0.88358  Biso   1.000  C
  C5       1.0000 0.29410  0.51500  0.86910  Biso   1.000  C
  C6       1.0000 0.24010  0.55670  0.89400  Biso   1.000  C
  H1       1.0000 0.18970  0.55320  0.88350  Biso   1.000  H
  C7       1.0000 0.25940  0.60310  0.93390  Biso   1.000  C
  H2       1.0000 0.22210  0.63060  0.95130  Biso   1.000  H
  C8       1.0000 0.35490  0.66100  0.99171  Biso   1.000  C
  C9       1.0000 0.27400  0.46560  0.82510  Biso   1.000  C
  C10      1.0000 0.46840  0.30410  0.65517  Biso   1.000  C
  C11      1.0000 0.39540  0.28010  0.65300  Biso   1.000  C
  C12      1.0000 0.34420  0.30840  0.68690  Biso   1.000  C
  C13      1.0000 0.36360  0.35970  0.72450  Biso   1.000  C
  C14      1.0000 0.43700  0.38290  0.72760  Biso   1.000  C
  H3       1.0000 0.45150  0.41710  0.75360  Biso   1.000  H
  C15      1.0000 0.48930  0.35630  0.69280  Biso   1.000  C
  H4       1.0000 0.53920  0.37340  0.69440  Biso   1.000  H
  C16      1.0000 0.52170  0.27670  0.61580  Biso   1.000  C
  C17      1.0000 0.30590  0.39180  0.75810  Biso   1.000  C
  C18      1.0000 0.95730  0.38710  0.73940  Biso   1.000  C
  C19      1.0000 0.97760  0.42120  0.78570  Biso   1.000  C
  C20      1.0000 0.05060  0.42760  0.79790  Biso   1.000  C
  H5       1.0000 0.06450  0.45080  0.82940  Biso   1.000  H
  C21      1.0000 0.10600  0.40050  0.76470  Biso   1.000  C
  C22      1.0000 0.08360  0.36660  0.71910  Biso   1.000  C
  H6       1.0000 0.12020  0.34820  0.69600  Biso   1.000  H
  C23      1.0000 0.01050  0.35930  0.70680  Biso   1.000  C
  H7       1.0000 0.99630  0.33500  0.67580  Biso   1.000  H
  C24      1.0000 0.87510  0.38420  0.72644  Biso   1.000  C
  C25      1.0000 0.18560  0.41200  0.77660  Biso   1.000  C
  N1       1.0000 0.23560  0.37840  0.74690  Biso   1.000  N
  N2       1.0000 0.20190  0.45480  0.81646  Biso   1.000  N
  N3       1.0000 0.32890  0.43590  0.79758  Biso   1.000  N
  O1       1.0000 0.42265  0.66643  0.00216  Biso   1.000  O
  O2       1.0000 0.30332  0.69392  0.01581  Biso   1.000  O
  O3       1.0000 0.59067  0.29020  0.62349  Biso   1.000  O
  O4       1.0000 0.49712  0.24045  0.57924  Biso   1.000  O
  O5       1.0000 0.85763  0.34640  0.68619  Biso   1.000  O
  O6       1.0000 0.83134  0.41616  0.75494  Biso   1.000  O
  O7       1.0000 0.18600  0.82340  0.17770  Biso   1.000  O
  Zn1      1.0000 0.33706  0.75018  0.07541  Biso   1.000  Zn
  H8       1.0000 0.44300  0.57700  0.93360  Biso   1.000  H
  H9       1.0000 0.37600  0.24700  0.61960  Biso   1.000  H
  H10      1.0000 0.42400  0.49900  0.86800  Biso   1.000  H
  H11      1.0000 0.94000  0.44000  0.81300  Biso   1.000  H
  H12      1.0000 0.30700  0.29400  0.68200  Biso   1.000  H
  C26      1.0000 0.66640  0.39010  0.44880  Biso   1.000  C
  C27      1.0000 0.77310  0.18740  0.64080  Biso   1.000  C
  C28      1.0000 0.61220  0.43000  0.42341  Biso   1.000  C
  C29      1.0000 0.63120  0.47710  0.38358  Biso   1.000  C
  C30      1.0000 0.70590  0.48500  0.36910  Biso   1.000  C
  C31      1.0000 0.75990  0.44330  0.39400  Biso   1.000  C
  H13      1.0000 0.81030  0.44680  0.38350  Biso   1.000  H
  C32      1.0000 0.74060  0.39690  0.43390  Biso   1.000  C
  H14      1.0000 0.77790  0.36940  0.45130  Biso   1.000  H
  C33      1.0000 0.64510  0.33900  0.49171  Biso   1.000  C
  C34      1.0000 0.72600  0.53440  0.32510  Biso   1.000  C
  C35      1.0000 0.53160  0.69590  0.15517  Biso   1.000  C
  C36      1.0000 0.60460  0.71990  0.15300  Biso   1.000  C
  C37      1.0000 0.65580  0.69160  0.18690  Biso   1.000  C
  C38      1.0000 0.63640  0.64030  0.22450  Biso   1.000  C
  C39      1.0000 0.56300  0.61710  0.22760  Biso   1.000  C
  H15      1.0000 0.54850  0.58290  0.25360  Biso   1.000  H
  C40      1.0000 0.51070  0.64370  0.19280  Biso   1.000  C
  H16      1.0000 0.46080  0.62660  0.19440  Biso   1.000  H
  C41      1.0000 0.47830  0.72330  0.11580  Biso   1.000  C
  C42      1.0000 0.69410  0.60820  0.25810  Biso   1.000  C
  C43      1.0000 0.04270  0.61290  0.23940  Biso   1.000  C
  C44      1.0000 0.02240  0.57880  0.28570  Biso   1.000  C
  C45      1.0000 0.94940  0.57240  0.29790  Biso   1.000  C
  H17      1.0000 0.93550  0.54920  0.32940  Biso   1.000  H
  C46      1.0000 0.89400  0.59950  0.26470  Biso   1.000  C
  C47      1.0000 0.91640  0.63340  0.21910  Biso   1.000  C
  H18      1.0000 0.87980  0.65180  0.19600  Biso   1.000  H
  C48      1.0000 0.98950  0.64070  0.20680  Biso   1.000  C
  H19      1.0000 0.00370  0.66500  0.17580  Biso   1.000  H
  C49      1.0000 0.12490  0.61580  0.22644  Biso   1.000  C
  C50      1.0000 0.81440  0.58800  0.27660  Biso   1.000  C
  N4       1.0000 0.76440  0.62160  0.24690  Biso   1.000  N
  N5       1.0000 0.79810  0.54520  0.31646  Biso   1.000  N
  N6       1.0000 0.67110  0.56410  0.29758  Biso   1.000  N
  O8       1.0000 0.57735  0.33357  0.50216  Biso   1.000  O
  O9       1.0000 0.69668  0.30608  0.51581  Biso   1.000  O
  O10      1.0000 0.40933  0.70980  0.12349  Biso   1.000  O
  O11      1.0000 0.50288  0.75955  0.07924  Biso   1.000  O
  O12      1.0000 0.14237  0.65360  0.18619  Biso   1.000  O
  O13      1.0000 0.16866  0.58384  0.25494  Biso   1.000  O
  O14      1.0000 0.81400  0.17660  0.67770  Biso   1.000  O
  Zn2      1.0000 0.66294  0.24982  0.57541  Biso   1.000  Zn
  H20      1.0000 0.55700  0.42300  0.43360  Biso   1.000  H
  H21      1.0000 0.62400  0.75300  0.11960  Biso   1.000  H
  H22      1.0000 0.57600  0.50100  0.36800  Biso   1.000  H
  H23      1.0000 0.06000  0.56000  0.31300  Biso   1.000  H
  H24      1.0000 0.69300  0.70600  0.18200  Biso   1.000  H
  C51      1.0000 0.39010  0.33360  0.19880  Biso   1.000  C
  C52      1.0000 0.18740  0.22690  0.39080  Biso   1.000  C
  C53      1.0000 0.43000  0.38780  0.17341  Biso   1.000  C
  C54      1.0000 0.47710  0.36880  0.13358  Biso   1.000  C
  C55      1.0000 0.48500  0.29410  0.11910  Biso   1.000  C
  C56      1.0000 0.44330  0.24010  0.14400  Biso   1.000  C
  H25      1.0000 0.44680  0.18970  0.13350  Biso   1.000  H
  C57      1.0000 0.39690  0.25940  0.18390  Biso   1.000  C
  H26      1.0000 0.36940  0.22210  0.20130  Biso   1.000  H
  C58      1.0000 0.33900  0.35490  0.24171  Biso   1.000  C
  C59      1.0000 0.53440  0.27400  0.07510  Biso   1.000  C
  C60      1.0000 0.69590  0.46840  0.90517  Biso   1.000  C
  C61      1.0000 0.71990  0.39540  0.90300  Biso   1.000  C
  C62      1.0000 0.69160  0.34420  0.93690  Biso   1.000  C
  C63      1.0000 0.64030  0.36360  0.97450  Biso   1.000  C
  C64      1.0000 0.61710  0.43700  0.97760  Biso   1.000  C
  H27      1.0000 0.58290  0.45150  0.00360  Biso   1.000  H
  C65      1.0000 0.64370  0.48930  0.94280  Biso   1.000  C
  H28      1.0000 0.62660  0.53920  0.94440  Biso   1.000  H
  C66      1.0000 0.72330  0.52170  0.86580  Biso   1.000  C
  C67      1.0000 0.60820  0.30590  0.00810  Biso   1.000  C
  C68      1.0000 0.61290  0.95730  0.98940  Biso   1.000  C
  C69      1.0000 0.57880  0.97760  0.03570  Biso   1.000  C
  C70      1.0000 0.57240  0.05060  0.04790  Biso   1.000  C
  H29      1.0000 0.54920  0.06450  0.07940  Biso   1.000  H
  C71      1.0000 0.59950  0.10600  0.01470  Biso   1.000  C
  C72      1.0000 0.63340  0.08360  0.96910  Biso   1.000  C
  H30      1.0000 0.65180  0.12020  0.94600  Biso   1.000  H
  C73      1.0000 0.64070  0.01050  0.95680  Biso   1.000  C
  H31      1.0000 0.66500  0.99630  0.92580  Biso   1.000  H
  C74      1.0000 0.61580  0.87510  0.97644  Biso   1.000  C
  C75      1.0000 0.58800  0.18560  0.02660  Biso   1.000  C
  N7       1.0000 0.62160  0.23560  0.99690  Biso   1.000  N
  N8       1.0000 0.54520  0.20190  0.06646  Biso   1.000  N
  N9       1.0000 0.56410  0.32890  0.04758  Biso   1.000  N
  O15      1.0000 0.33357  0.42265  0.25216  Biso   1.000  O
  O16      1.0000 0.30608  0.30332  0.26581  Biso   1.000  O
  O17      1.0000 0.70980  0.59067  0.87349  Biso   1.000  O
  O18      1.0000 0.75955  0.49712  0.82924  Biso   1.000  O
  O19      1.0000 0.65360  0.85763  0.93619  Biso   1.000  O
  O20      1.0000 0.58384  0.83134  0.00494  Biso   1.000  O
  O21      1.0000 0.17660  0.18600  0.42770  Biso   1.000  O
  Zn3      1.0000 0.24982  0.33706  0.32541  Biso   1.000  Zn
  H32      1.0000 0.42300  0.44300  0.18360  Biso   1.000  H
  H33      1.0000 0.75300  0.37600  0.86960  Biso   1.000  H
  H34      1.0000 0.50100  0.42400  0.11800  Biso   1.000  H
  H35      1.0000 0.56000  0.94000  0.06300  Biso   1.000  H
  H36      1.0000 0.70600  0.30700  0.93200  Biso   1.000  H
  C76      1.0000 0.60990  0.66640  0.69880  Biso   1.000  C
  C77      1.0000 0.81260  0.77310  0.89080  Biso   1.000  C
  C78      1.0000 0.57000  0.61220  0.67341  Biso   1.000  C
  C79      1.0000 0.52290  0.63120  0.63358  Biso   1.000  C
  C80      1.0000 0.51500  0.70590  0.61910  Biso   1.000  C
  C81      1.0000 0.55670  0.75990  0.64400  Biso   1.000  C
  H37      1.0000 0.55320  0.81030  0.63350  Biso   1.000  H
  C82      1.0000 0.60310  0.74060  0.68390  Biso   1.000  C
  H38      1.0000 0.63060  0.77790  0.70130  Biso   1.000  H
  C83      1.0000 0.66100  0.64510  0.74171  Biso   1.000  C
  C84      1.0000 0.46560  0.72600  0.57510  Biso   1.000  C
  C85      1.0000 0.30410  0.53160  0.40517  Biso   1.000  C
  C86      1.0000 0.28010  0.60460  0.40300  Biso   1.000  C
  C87      1.0000 0.30840  0.65580  0.43690  Biso   1.000  C
  C88      1.0000 0.35970  0.63640  0.47450  Biso   1.000  C
  C89      1.0000 0.38290  0.56300  0.47760  Biso   1.000  C
  H39      1.0000 0.41710  0.54850  0.50360  Biso   1.000  H
  C90      1.0000 0.35630  0.51070  0.44280  Biso   1.000  C
  H40      1.0000 0.37340  0.46080  0.44440  Biso   1.000  H
  C91      1.0000 0.27670  0.47830  0.36580  Biso   1.000  C
  C92      1.0000 0.39180  0.69410  0.50810  Biso   1.000  C
  C93      1.0000 0.38710  0.04270  0.48940  Biso   1.000  C
  C94      1.0000 0.42120  0.02240  0.53570  Biso   1.000  C
  C95      1.0000 0.42760  0.94940  0.54790  Biso   1.000  C
  H41      1.0000 0.45080  0.93550  0.57940  Biso   1.000  H
  C96      1.0000 0.40050  0.89400  0.51470  Biso   1.000  C
  C97      1.0000 0.36660  0.91640  0.46910  Biso   1.000  C
  H42      1.0000 0.34820  0.87980  0.44600  Biso   1.000  H
  C98      1.0000 0.35930  0.98950  0.45680  Biso   1.000  C
  H43      1.0000 0.33500  0.00370  0.42580  Biso   1.000  H
  C99      1.0000 0.38420  0.12490  0.47644  Biso   1.000  C
  C100     1.0000 0.41200  0.81440  0.52660  Biso   1.000  C
  N10      1.0000 0.37840  0.76440  0.49690  Biso   1.000  N
  N11      1.0000 0.45480  0.79810  0.56646  Biso   1.000  N
  N12      1.0000 0.43590  0.67110  0.54758  Biso   1.000  N
  O22      1.0000 0.66643  0.57735  0.75216  Biso   1.000  O
  O23      1.0000 0.69392  0.69668  0.76581  Biso   1.000  O
  O24      1.0000 0.29020  0.40933  0.37349  Biso   1.000  O
  O25      1.0000 0.24045  0.50288  0.32924  Biso   1.000  O
  O26      1.0000 0.34640  0.14237  0.43619  Biso   1.000  O
  O27      1.0000 0.41616  0.16866  0.50494  Biso   1.000  O
  O28      1.0000 0.82340  0.81400  0.92770  Biso   1.000  O
  Zn4      1.0000 0.75018  0.66294  0.82541  Biso   1.000  Zn
  H44      1.0000 0.57700  0.55700  0.68360  Biso   1.000  H
  H45      1.0000 0.24700  0.62400  0.36960  Biso   1.000  H
  H46      1.0000 0.49900  0.57600  0.61800  Biso   1.000  H
  H47      1.0000 0.44000  0.06000  0.56300  Biso   1.000  H
  H48      1.0000 0.29400  0.69300  0.43200  Biso   1.000  H
  C101     1.0000 0.66640  0.60990  0.05120  Biso   1.000  C
  C102     1.0000 0.77310  0.81260  0.85920  Biso   1.000  C
  C103     1.0000 0.61220  0.57000  0.07659  Biso   1.000  C
  C104     1.0000 0.63120  0.52290  0.11642  Biso   1.000  C
  C105     1.0000 0.70590  0.51500  0.13090  Biso   1.000  C
  C106     1.0000 0.75990  0.55670  0.10600  Biso   1.000  C
  H49      1.0000 0.81030  0.55320  0.11650  Biso   1.000  H
  C107     1.0000 0.74060  0.60310  0.06610  Biso   1.000  C
  H50      1.0000 0.77790  0.63060  0.04870  Biso   1.000  H
  C108     1.0000 0.64510  0.66100  0.00829  Biso   1.000  C
  C109     1.0000 0.72600  0.46560  0.17490  Biso   1.000  C
  C110     1.0000 0.53160  0.30410  0.34483  Biso   1.000  C
  C111     1.0000 0.60460  0.28010  0.34700  Biso   1.000  C
  C112     1.0000 0.65580  0.30840  0.31310  Biso   1.000  C
  C113     1.0000 0.63640  0.35970  0.27550  Biso   1.000  C
  C114     1.0000 0.56300  0.38290  0.27240  Biso   1.000  C
  H51      1.0000 0.54850  0.41710  0.24640  Biso   1.000  H
  C115     1.0000 0.51070  0.35630  0.30720  Biso   1.000  C
  H52      1.0000 0.46080  0.37340  0.30560  Biso   1.000  H
  C116     1.0000 0.47830  0.27670  0.38420  Biso   1.000  C
  C117     1.0000 0.69410  0.39180  0.24190  Biso   1.000  C
  C118     1.0000 0.04270  0.38710  0.26060  Biso   1.000  C
  C119     1.0000 0.02240  0.42120  0.21430  Biso   1.000  C
  C120     1.0000 0.94940  0.42760  0.20210  Biso   1.000  C
  H53      1.0000 0.93550  0.45080  0.17060  Biso   1.000  H
  C121     1.0000 0.89400  0.40050  0.23530  Biso   1.000  C
  C122     1.0000 0.91640  0.36660  0.28090  Biso   1.000  C
  H54      1.0000 0.87980  0.34820  0.30400  Biso   1.000  H
  C123     1.0000 0.98950  0.35930  0.29320  Biso   1.000  C
  H55      1.0000 0.00370  0.33500  0.32420  Biso   1.000  H
  C124     1.0000 0.12490  0.38420  0.27356  Biso   1.000  C
  C125     1.0000 0.81440  0.41200  0.22340  Biso   1.000  C
  N13      1.0000 0.76440  0.37840  0.25310  Biso   1.000  N
  N14      1.0000 0.79810  0.45480  0.18354  Biso   1.000  N
  N15      1.0000 0.67110  0.43590  0.20242  Biso   1.000  N
  O29      1.0000 0.57735  0.66643  0.99784  Biso   1.000  O
  O30      1.0000 0.69668  0.69392  0.98419  Biso   1.000  O
  O31      1.0000 0.40933  0.29020  0.37651  Biso   1.000  O
  O32      1.0000 0.50288  0.24045  0.42076  Biso   1.000  O
  O33      1.0000 0.14237  0.34640  0.31381  Biso   1.000  O
  O34      1.0000 0.16866  0.41616  0.24506  Biso   1.000  O
  O35      1.0000 0.81400  0.82340  0.82230  Biso   1.000  O
  Zn5      1.0000 0.66294  0.75018  0.92459  Biso   1.000  Zn
  H56      1.0000 0.55700  0.57700  0.06640  Biso   1.000  H
  H57      1.0000 0.62400  0.24700  0.38040  Biso   1.000  H
  H58      1.0000 0.57600  0.49900  0.13200  Biso   1.000  H
  H59      1.0000 0.06000  0.44000  0.18700  Biso   1.000  H
  H60      1.0000 0.69300  0.29400  0.31800  Biso   1.000  H
  C126     1.0000 0.33360  0.39010  0.55120  Biso   1.000  C
  C127     1.0000 0.22690  0.18740  0.35920  Biso   1.000  C
  C128     1.0000 0.38780  0.43000  0.57659  Biso   1.000  C
  C129     1.0000 0.36880  0.47710  0.61642  Biso   1.000  C
  C130     1.0000 0.29410  0.48500  0.63090  Biso   1.000  C
  C131     1.0000 0.24010  0.44330  0.60600  Biso   1.000  C
  H61      1.0000 0.18970  0.44680  0.61650  Biso   1.000  H
  C132     1.0000 0.25940  0.39690  0.56610  Biso   1.000  C
  H62      1.0000 0.22210  0.36940  0.54870  Biso   1.000  H
  C133     1.0000 0.35490  0.33900  0.50829  Biso   1.000  C
  C134     1.0000 0.27400  0.53440  0.67490  Biso   1.000  C
  C135     1.0000 0.46840  0.69590  0.84483  Biso   1.000  C
  C136     1.0000 0.39540  0.71990  0.84700  Biso   1.000  C
  C137     1.0000 0.34420  0.69160  0.81310  Biso   1.000  C
  C138     1.0000 0.36360  0.64030  0.77550  Biso   1.000  C
  C139     1.0000 0.43700  0.61710  0.77240  Biso   1.000  C
  H63      1.0000 0.45150  0.58290  0.74640  Biso   1.000  H
  C140     1.0000 0.48930  0.64370  0.80720  Biso   1.000  C
  H64      1.0000 0.53920  0.62660  0.80560  Biso   1.000  H
  C141     1.0000 0.52170  0.72330  0.88420  Biso   1.000  C
  C142     1.0000 0.30590  0.60820  0.74190  Biso   1.000  C
  C143     1.0000 0.95730  0.61290  0.76060  Biso   1.000  C
  C144     1.0000 0.97760  0.57880  0.71430  Biso   1.000  C
  C145     1.0000 0.05060  0.57240  0.70210  Biso   1.000  C
  H65      1.0000 0.06450  0.54920  0.67060  Biso   1.000  H
  C146     1.0000 0.10600  0.59950  0.73530  Biso   1.000  C
  C147     1.0000 0.08360  0.63340  0.78090  Biso   1.000  C
  H66      1.0000 0.12020  0.65180  0.80400  Biso   1.000  H
  C148     1.0000 0.01050  0.64070  0.79320  Biso   1.000  C
  H67      1.0000 0.99630  0.66500  0.82420  Biso   1.000  H
  C149     1.0000 0.87510  0.61580  0.77356  Biso   1.000  C
  C150     1.0000 0.18560  0.58800  0.72340  Biso   1.000  C
  N16      1.0000 0.23560  0.62160  0.75310  Biso   1.000  N
  N17      1.0000 0.20190  0.54520  0.68354  Biso   1.000  N
  N18      1.0000 0.32890  0.56410  0.70242  Biso   1.000  N
  O36      1.0000 0.42265  0.33357  0.49784  Biso   1.000  O
  O37      1.0000 0.30332  0.30608  0.48419  Biso   1.000  O
  O38      1.0000 0.59067  0.70980  0.87651  Biso   1.000  O
  O39      1.0000 0.49712  0.75955  0.92076  Biso   1.000  O
  O40      1.0000 0.85763  0.65360  0.81381  Biso   1.000  O
  O41      1.0000 0.83134  0.58384  0.74506  Biso   1.000  O
  O42      1.0000 0.18600  0.17660  0.32230  Biso   1.000  O
  Zn6      1.0000 0.33706  0.24982  0.42459  Biso   1.000  Zn
  H68      1.0000 0.44300  0.42300  0.56640  Biso   1.000  H
  H69      1.0000 0.37600  0.75300  0.88040  Biso   1.000  H
  H70      1.0000 0.42400  0.50100  0.63200  Biso   1.000  H
  H71      1.0000 0.94000  0.56000  0.68700  Biso   1.000  H
  H72      1.0000 0.30700  0.70600  0.81800  Biso   1.000  H
  C151     1.0000 0.60990  0.33360  0.80120  Biso   1.000  C
  C152     1.0000 0.81260  0.22690  0.60920  Biso   1.000  C
  C153     1.0000 0.57000  0.38780  0.82659  Biso   1.000  C
  C154     1.0000 0.52290  0.36880  0.86642  Biso   1.000  C
  C155     1.0000 0.51500  0.29410  0.88090  Biso   1.000  C
  C156     1.0000 0.55670  0.24010  0.85600  Biso   1.000  C
  H73      1.0000 0.55320  0.18970  0.86650  Biso   1.000  H
  C157     1.0000 0.60310  0.25940  0.81610  Biso   1.000  C
  H74      1.0000 0.63060  0.22210  0.79870  Biso   1.000  H
  C158     1.0000 0.66100  0.35490  0.75829  Biso   1.000  C
  C159     1.0000 0.46560  0.27400  0.92490  Biso   1.000  C
  C160     1.0000 0.30410  0.46840  0.09483  Biso   1.000  C
  C161     1.0000 0.28010  0.39540  0.09700  Biso   1.000  C
  C162     1.0000 0.30840  0.34420  0.06310  Biso   1.000  C
  C163     1.0000 0.35970  0.36360  0.02550  Biso   1.000  C
  C164     1.0000 0.38290  0.43700  0.02240  Biso   1.000  C
  H75      1.0000 0.41710  0.45150  0.99640  Biso   1.000  H
  C165     1.0000 0.35630  0.48930  0.05720  Biso   1.000  C
  H76      1.0000 0.37340  0.53920  0.05560  Biso   1.000  H
  C166     1.0000 0.27670  0.52170  0.13420  Biso   1.000  C
  C167     1.0000 0.39180  0.30590  0.99190  Biso   1.000  C
  C168     1.0000 0.38710  0.95730  0.01060  Biso   1.000  C
  C169     1.0000 0.42120  0.97760  0.96430  Biso   1.000  C
  C170     1.0000 0.42760  0.05060  0.95210  Biso   1.000  C
  H77      1.0000 0.45080  0.06450  0.92060  Biso   1.000  H
  C171     1.0000 0.40050  0.10600  0.98530  Biso   1.000  C
  C172     1.0000 0.36660  0.08360  0.03090  Biso   1.000  C
  H78      1.0000 0.34820  0.12020  0.05400  Biso   1.000  H
  C173     1.0000 0.35930  0.01050  0.04320  Biso   1.000  C
  H79      1.0000 0.33500  0.99630  0.07420  Biso   1.000  H
  C174     1.0000 0.38420  0.87510  0.02356  Biso   1.000  C
  C175     1.0000 0.41200  0.18560  0.97340  Biso   1.000  C
  N19      1.0000 0.37840  0.23560  0.00310  Biso   1.000  N
  N20      1.0000 0.45480  0.20190  0.93354  Biso   1.000  N
  N21      1.0000 0.43590  0.32890  0.95242  Biso   1.000  N
  O43      1.0000 0.66643  0.42265  0.74784  Biso   1.000  O
  O44      1.0000 0.69392  0.30332  0.73419  Biso   1.000  O
  O45      1.0000 0.29020  0.59067  0.12651  Biso   1.000  O
  O46      1.0000 0.24045  0.49712  0.17076  Biso   1.000  O
  O47      1.0000 0.34640  0.85763  0.06381  Biso   1.000  O
  O48      1.0000 0.41616  0.83134  0.99506  Biso   1.000  O
  O49      1.0000 0.82340  0.18600  0.57230  Biso   1.000  O
  Zn7      1.0000 0.75018  0.33706  0.67459  Biso   1.000  Zn
  H80      1.0000 0.57700  0.44300  0.81640  Biso   1.000  H
  H81      1.0000 0.24700  0.37600  0.13040  Biso   1.000  H
  H82      1.0000 0.49900  0.42400  0.88200  Biso   1.000  H
  H83      1.0000 0.44000  0.94000  0.93700  Biso   1.000  H
  H84      1.0000 0.29400  0.30700  0.06800  Biso   1.000  H
  C176     1.0000 0.39010  0.66640  0.30120  Biso   1.000  C
  C177     1.0000 0.18740  0.77310  0.10920  Biso   1.000  C
  C178     1.0000 0.43000  0.61220  0.32659  Biso   1.000  C
  C179     1.0000 0.47710  0.63120  0.36642  Biso   1.000  C
  C180     1.0000 0.48500  0.70590  0.38090  Biso   1.000  C
  C181     1.0000 0.44330  0.75990  0.35600  Biso   1.000  C
  H85      1.0000 0.44680  0.81030  0.36650  Biso   1.000  H
  C182     1.0000 0.39690  0.74060  0.31610  Biso   1.000  C
  H86      1.0000 0.36940  0.77790  0.29870  Biso   1.000  H
  C183     1.0000 0.33900  0.64510  0.25829  Biso   1.000  C
  C184     1.0000 0.53440  0.72600  0.42490  Biso   1.000  C
  C185     1.0000 0.69590  0.53160  0.59483  Biso   1.000  C
  C186     1.0000 0.71990  0.60460  0.59700  Biso   1.000  C
  C187     1.0000 0.69160  0.65580  0.56310  Biso   1.000  C
  C188     1.0000 0.64030  0.63640  0.52550  Biso   1.000  C
  C189     1.0000 0.61710  0.56300  0.52240  Biso   1.000  C
  H87      1.0000 0.58290  0.54850  0.49640  Biso   1.000  H
  C190     1.0000 0.64370  0.51070  0.55720  Biso   1.000  C
  H88      1.0000 0.62660  0.46080  0.55560  Biso   1.000  H
  C191     1.0000 0.72330  0.47830  0.63420  Biso   1.000  C
  C192     1.0000 0.60820  0.69410  0.49190  Biso   1.000  C
  C193     1.0000 0.61290  0.04270  0.51060  Biso   1.000  C
  C194     1.0000 0.57880  0.02240  0.46430  Biso   1.000  C
  C195     1.0000 0.57240  0.94940  0.45210  Biso   1.000  C
  H89      1.0000 0.54920  0.93550  0.42060  Biso   1.000  H
  C196     1.0000 0.59950  0.89400  0.48530  Biso   1.000  C
  C197     1.0000 0.63340  0.91640  0.53090  Biso   1.000  C
  H90      1.0000 0.65180  0.87980  0.55400  Biso   1.000  H
  C198     1.0000 0.64070  0.98950  0.54320  Biso   1.000  C
  H91      1.0000 0.66500  0.00370  0.57420  Biso   1.000  H
  C199     1.0000 0.61580  0.12490  0.52356  Biso   1.000  C
  C200     1.0000 0.58800  0.81440  0.47340  Biso   1.000  C
  N22      1.0000 0.62160  0.76440  0.50310  Biso   1.000  N
  N23      1.0000 0.54520  0.79810  0.43354  Biso   1.000  N
  N24      1.0000 0.56410  0.67110  0.45242  Biso   1.000  N
  O50      1.0000 0.33357  0.57735  0.24784  Biso   1.000  O
  O51      1.0000 0.30608  0.69668  0.23419  Biso   1.000  O
  O52      1.0000 0.70980  0.40933  0.62651  Biso   1.000  O
  O53      1.0000 0.75955  0.50288  0.67076  Biso   1.000  O
  O54      1.0000 0.65360  0.14237  0.56381  Biso   1.000  O
  O55      1.0000 0.58384  0.16866  0.49506  Biso   1.000  O
  O56      1.0000 0.17660  0.81400  0.07230  Biso   1.000  O
  Zn8      1.0000 0.24982  0.66294  0.17459  Biso   1.000  Zn
  H92      1.0000 0.42300  0.55700  0.31640  Biso   1.000  H
  H93      1.0000 0.75300  0.62400  0.63040  Biso   1.000  H
  H94      1.0000 0.50100  0.57600  0.38200  Biso   1.000  H
  H95      1.0000 0.56000  0.06000  0.43700  Biso   1.000  H
  H96      1.0000 0.70600  0.69300  0.56800  Biso   1.000  H
  O57      1.0000 0.25149  0.74851  0.12500  Biso   1.000  O
  O58      1.0000 0.74851  0.25149  0.62500  Biso   1.000  O
  O59      1.0000 0.25149  0.25149  0.37500  Biso   1.000  O
  O60      1.0000 0.74851  0.74851  0.87500  Biso   1.000  O
  Zn9      1.0000 0.50000  0.75194  0.00000  Biso   1.000  Zn
  Zn10     1.0000 0.50000  0.24806  0.50000  Biso   1.000  Zn
  Zn11     1.0000 0.24806  0.50000  0.25000  Biso   1.000  Zn
  Zn12     1.0000 0.75194  0.50000  0.75000  Biso   1.000  Zn
