data_image0
_cell_length_a       9.7669
_cell_length_b       17.3605
_cell_length_c       18.226
_cell_angle_alpha    93.5331
_cell_angle_beta     90
_cell_angle_gamma    106.338

_symmetry_space_group_name_H-M    P 1
_symmetry_int_tables_number       1

loop_
  _symmetry_equiv_pos_as_xyz
  'x, y, z'

loop_
  _atom_site_label
  _atom_site_occupancy
  _atom_site_fract_x
  _atom_site_fract_y
  _atom_site_fract_z
  _atom_site_thermal_displace_type
  _atom_site_B_iso_or_equiv
  _atom_site_type_symbol
  Zn1      1.0000 0.14831  0.69440  0.51618  Biso   1.000  Zn
  Zn2      1.0000 0.45391  0.30560  0.98382  Biso   1.000  Zn
  Zn3      1.0000 0.85169  0.30560  0.48382  Biso   1.000  Zn
  Zn4      1.0000 0.54609  0.69440  0.01618  Biso   1.000  Zn
  Zn5      1.0000 0.00000  0.50000  0.50000  Biso   1.000  Zn
  Zn6      1.0000 0.50000  0.50000  0.00000  Biso   1.000  Zn
  H1       1.0000 0.53760  0.57880  0.60890  Biso   1.000  H
  H2       1.0000 0.85600  0.50140  0.72020  Biso   1.000  H
  H3       1.0000 0.31310  0.49860  0.42150  Biso   1.000  H
  H4       1.0000 0.80100  0.74220  0.81700  Biso   1.000  H
  H5       1.0000 0.75160  0.50740  0.83200  Biso   1.000  H
  H6       1.0000 0.91080  0.73680  0.70590  Biso   1.000  H
  H7       1.0000 0.32190  0.95040  0.58160  Biso   1.000  H
  H8       1.0000 0.56090  0.91300  0.41380  Biso   1.000  H
  H9       1.0000 0.95880  0.42120  0.89110  Biso   1.000  H
  H10      1.0000 0.35460  0.49860  0.77980  Biso   1.000  H
  H11      1.0000 0.81450  0.50140  0.07850  Biso   1.000  H
  H12      1.0000 0.05880  0.25780  0.68300  Biso   1.000  H
  H13      1.0000 0.24420  0.49260  0.66800  Biso   1.000  H
  H14      1.0000 0.17400  0.26320  0.79410  Biso   1.000  H
  H15      1.0000 0.37150  0.04960  0.91840  Biso   1.000  H
  H16      1.0000 0.64790  0.08700  0.08620  Biso   1.000  H
  H17      1.0000 0.46240  0.42120  0.39110  Biso   1.000  H
  H18      1.0000 0.14400  0.49860  0.27980  Biso   1.000  H
  H19      1.0000 0.68690  0.50140  0.57850  Biso   1.000  H
  H20      1.0000 0.19900  0.25780  0.18300  Biso   1.000  H
  H21      1.0000 0.24840  0.49260  0.16800  Biso   1.000  H
  H22      1.0000 0.08920  0.26320  0.29410  Biso   1.000  H
  H23      1.0000 0.67810  0.04960  0.41840  Biso   1.000  H
  H24      1.0000 0.43910  0.08700  0.58620  Biso   1.000  H
  H25      1.0000 0.04120  0.57880  0.10890  Biso   1.000  H
  H26      1.0000 0.64540  0.50140  0.22020  Biso   1.000  H
  H27      1.0000 0.18550  0.49860  0.92150  Biso   1.000  H
  H28      1.0000 0.94120  0.74220  0.31700  Biso   1.000  H
  H29      1.0000 0.75580  0.50740  0.33200  Biso   1.000  H
  H30      1.0000 0.82600  0.73680  0.20590  Biso   1.000  H
  H31      1.0000 0.62850  0.95040  0.08160  Biso   1.000  H
  H32      1.0000 0.35210  0.91300  0.91380  Biso   1.000  H
  C1       1.0000 0.34660  0.83100  0.49040  Biso   1.000  C
  C2       1.0000 0.52279  0.54718  0.56490  Biso   1.000  C
  C3       1.0000 0.41125  0.54790  0.51840  Biso   1.000  C
  C4       1.0000 0.76494  0.62608  0.83610  Biso   1.000  C
  C5       1.0000 0.84553  0.55006  0.73980  Biso   1.000  C
  C6       1.0000 0.89437  0.61914  0.70070  Biso   1.000  C
  C7       1.0000 0.69201  0.62842  0.90790  Biso   1.000  C
  C8       1.0000 0.38854  0.49928  0.45290  Biso   1.000  C
  C9       1.0000 0.81259  0.69358  0.79780  Biso   1.000  C
  C10      1.0000 0.96448  0.61476  0.62790  Biso   1.000  C
  C11      1.0000 0.78268  0.55356  0.80630  Biso   1.000  C
  C12      1.0000 0.87770  0.69020  0.73080  Biso   1.000  C
  C13      1.0000 0.31683  0.60066  0.53810  Biso   1.000  C
  C14      1.0000 0.42782  0.91764  0.49560  Biso   1.000  C
  C15      1.0000 0.39338  0.97016  0.54820  Biso   1.000  C
  C16      1.0000 0.53498  0.94756  0.44850  Biso   1.000  C
  C17      1.0000 0.51560  0.16900  0.00960  Biso   1.000  C
  C18      1.0000 0.97561  0.45282  0.93510  Biso   1.000  C
  C19      1.0000 0.86335  0.45210  0.98160  Biso   1.000  C
  C20      1.0000 0.13886  0.37392  0.66390  Biso   1.000  C
  C21      1.0000 0.29547  0.44994  0.76020  Biso   1.000  C
  C22      1.0000 0.27523  0.38086  0.79930  Biso   1.000  C
  C23      1.0000 0.06359  0.37158  0.59210  Biso   1.000  C
  C24      1.0000 0.88926  0.50072  0.04710  Biso   1.000  C
  C25      1.0000 0.11901  0.30642  0.70220  Biso   1.000  C
  C26      1.0000 0.34972  0.38524  0.87210  Biso   1.000  C
  C27      1.0000 0.22912  0.44644  0.69370  Biso   1.000  C
  C28      1.0000 0.18750  0.30980  0.76920  Biso   1.000  C
  C29      1.0000 0.71617  0.39934  0.96190  Biso   1.000  C
  C30      1.0000 0.51018  0.08236  0.00440  Biso   1.000  C
  C31      1.0000 0.42322  0.02984  0.95180  Biso   1.000  C
  C32      1.0000 0.58742  0.05244  0.05150  Biso   1.000  C
  C33      1.0000 0.65340  0.16900  0.50960  Biso   1.000  C
  C34      1.0000 0.47721  0.45282  0.43510  Biso   1.000  C
  C35      1.0000 0.58875  0.45210  0.48160  Biso   1.000  C
  C36      1.0000 0.23506  0.37392  0.16390  Biso   1.000  C
  C37      1.0000 0.15447  0.44994  0.26020  Biso   1.000  C
  C38      1.0000 0.10563  0.38086  0.29930  Biso   1.000  C
  C39      1.0000 0.30799  0.37158  0.09210  Biso   1.000  C
  C40      1.0000 0.61146  0.50072  0.54710  Biso   1.000  C
  C41      1.0000 0.18741  0.30642  0.20220  Biso   1.000  C
  C42      1.0000 0.03552  0.38524  0.37210  Biso   1.000  C
  C43      1.0000 0.21732  0.44644  0.19370  Biso   1.000  C
  C44      1.0000 0.12230  0.30980  0.26920  Biso   1.000  C
  C45      1.0000 0.68317  0.39934  0.46190  Biso   1.000  C
  C46      1.0000 0.57218  0.08236  0.50440  Biso   1.000  C
  C47      1.0000 0.60662  0.02984  0.45180  Biso   1.000  C
  C48      1.0000 0.46502  0.05244  0.55150  Biso   1.000  C
  C49      1.0000 0.48440  0.83100  0.99040  Biso   1.000  C
  C50      1.0000 0.02439  0.54718  0.06490  Biso   1.000  C
  C51      1.0000 0.13665  0.54790  0.01840  Biso   1.000  C
  C52      1.0000 0.86114  0.62608  0.33610  Biso   1.000  C
  C53      1.0000 0.70453  0.55006  0.23980  Biso   1.000  C
  C54      1.0000 0.72477  0.61914  0.20070  Biso   1.000  C
  C55      1.0000 0.93641  0.62842  0.40790  Biso   1.000  C
  C56      1.0000 0.11074  0.49928  0.95290  Biso   1.000  C
  C57      1.0000 0.88099  0.69358  0.29780  Biso   1.000  C
  C58      1.0000 0.65028  0.61476  0.12790  Biso   1.000  C
  C59      1.0000 0.77088  0.55356  0.30630  Biso   1.000  C
  C60      1.0000 0.81250  0.69020  0.23080  Biso   1.000  C
  C61      1.0000 0.28383  0.60066  0.03810  Biso   1.000  C
  C62      1.0000 0.48982  0.91764  0.99560  Biso   1.000  C
  C63      1.0000 0.57678  0.97016  0.04820  Biso   1.000  C
  C64      1.0000 0.41258  0.94756  0.94850  Biso   1.000  C
  O1       1.0000 0.02189  0.68098  0.60045  Biso   1.000  O
  O2       1.0000 0.96366  0.54692  0.60088  Biso   1.000  O
  O3       1.0000 0.66761  0.56802  0.94483  Biso   1.000  O
  O4       1.0000 0.34590  0.64960  0.59180  Biso   1.000  O
  O5       1.0000 0.65867  0.69174  0.92598  Biso   1.000  O
  O6       1.0000 0.20967  0.59574  0.49436  Biso   1.000  O
  O7       1.0000 0.25284  0.80728  0.53700  Biso   1.000  O
  O8       1.0000 0.37370  0.78540  0.44190  Biso   1.000  O
  O9       1.0000 0.34091  0.31902  0.89955  Biso   1.000  O
  O10      1.0000 0.41674  0.45308  0.89912  Biso   1.000  O
  O11      1.0000 0.09959  0.43198  0.55517  Biso   1.000  O
  O12      1.0000 0.69630  0.35040  0.90820  Biso   1.000  O
  O13      1.0000 0.96693  0.30826  0.57402  Biso   1.000  O
  O14      1.0000 0.61393  0.40426  0.00564  Biso   1.000  O
  O15      1.0000 0.44556  0.19272  0.96300  Biso   1.000  O
  O16      1.0000 0.58830  0.21460  0.05810  Biso   1.000  O
  O17      1.0000 0.97811  0.31902  0.39955  Biso   1.000  O
  O18      1.0000 0.03634  0.45308  0.39912  Biso   1.000  O
  O19      1.0000 0.33239  0.43198  0.05517  Biso   1.000  O
  O20      1.0000 0.65410  0.35040  0.40820  Biso   1.000  O
  O21      1.0000 0.34133  0.30826  0.07402  Biso   1.000  O
  O22      1.0000 0.79033  0.40426  0.50564  Biso   1.000  O
  O23      1.0000 0.74716  0.19272  0.46300  Biso   1.000  O
  O24      1.0000 0.62630  0.21460  0.55810  Biso   1.000  O
  O25      1.0000 0.65909  0.68098  0.10045  Biso   1.000  O
  O26      1.0000 0.58326  0.54692  0.10088  Biso   1.000  O
  O27      1.0000 0.90041  0.56802  0.44483  Biso   1.000  O
  O28      1.0000 0.30370  0.64960  0.09180  Biso   1.000  O
  O29      1.0000 0.03307  0.69174  0.42598  Biso   1.000  O
  O30      1.0000 0.38607  0.59574  0.99436  Biso   1.000  O
  O31      1.0000 0.55444  0.80728  0.03700  Biso   1.000  O
  O32      1.0000 0.41170  0.78540  0.94190  Biso   1.000  O
