data_image0
_cell_length_a       14.8112
_cell_length_b       14.8112
_cell_length_c       16.5589
_cell_angle_alpha    102.826
_cell_angle_beta     102.826
_cell_angle_gamma    115.994

_symmetry_space_group_name_H-M    P 1
_symmetry_int_tables_number       1

loop_
  _symmetry_equiv_pos_as_xyz
  'x, y, z'

loop_
  _atom_site_label
  _atom_site_occupancy
  _atom_site_fract_x
  _atom_site_fract_y
  _atom_site_fract_z
  _atom_site_thermal_displace_type
  _atom_site_B_iso_or_equiv
  _atom_site_type_symbol
  Zn1      1.0000 0.04722  0.43438  0.93619  Biso   1.000  Zn
  Zn2      1.0000 0.56562  0.95278  0.56381  Biso   1.000  Zn
  Zn3      1.0000 0.95278  0.56562  0.06381  Biso   1.000  Zn
  Zn4      1.0000 0.43438  0.04722  0.43619  Biso   1.000  Zn
  Zn5      1.0000 0.82930  0.17070  0.75000  Biso   1.000  Zn
  Zn6      1.0000 0.17070  0.82930  0.25000  Biso   1.000  Zn
  H1       1.0000 0.99520  0.04500  0.83590  Biso   1.000  H
  H2       1.0000 0.09190  0.95970  0.84900  Biso   1.000  H
  H3       1.0000 0.36550  0.24290  0.92040  Biso   1.000  H
  H4       1.0000 0.26660  0.32640  0.90460  Biso   1.000  H
  H5       1.0000 0.62770  0.10530  0.91300  Biso   1.000  H
  H6       1.0000 0.49250  0.07730  0.97110  Biso   1.000  H
  H7       1.0000 0.30510  0.06090  0.74560  Biso   1.000  H
  H8       1.0000 0.43800  0.08580  0.68730  Biso   1.000  H
  H9       1.0000 0.12290  0.83630  0.03390  Biso   1.000  H
  H10      1.0000 0.20630  0.99730  0.01190  Biso   1.000  H
  H11      1.0000 0.29930  0.86190  0.83430  Biso   1.000  H
  H12      1.0000 0.22220  0.70440  0.86170  Biso   1.000  H
  H13      1.0000 0.32220  0.59260  0.15780  Biso   1.000  H
  H14      1.0000 0.27970  0.65490  0.11190  Biso   1.000  H
  H15      1.0000 0.42330  0.66730  0.08510  Biso   1.000  H
  H16      1.0000 0.36540  0.54140  0.04190  Biso   1.000  H
  H17      1.0000 0.32310  0.60430  0.99590  Biso   1.000  H
  H18      1.0000 0.95500  0.00480  0.66410  Biso   1.000  H
  H19      1.0000 0.04030  0.90810  0.65100  Biso   1.000  H
  H20      1.0000 0.75710  0.63450  0.57960  Biso   1.000  H
  H21      1.0000 0.67360  0.73340  0.59540  Biso   1.000  H
  H22      1.0000 0.89470  0.37230  0.58700  Biso   1.000  H
  H23      1.0000 0.92270  0.50750  0.52890  Biso   1.000  H
  H24      1.0000 0.93910  0.69490  0.75440  Biso   1.000  H
  H25      1.0000 0.91420  0.56200  0.81270  Biso   1.000  H
  H26      1.0000 0.16370  0.87710  0.46610  Biso   1.000  H
  H27      1.0000 0.00270  0.79370  0.48810  Biso   1.000  H
  H28      1.0000 0.13810  0.70070  0.66570  Biso   1.000  H
  H29      1.0000 0.29560  0.77780  0.63830  Biso   1.000  H
  H30      1.0000 0.40740  0.67780  0.34220  Biso   1.000  H
  H31      1.0000 0.34510  0.72030  0.38810  Biso   1.000  H
  H32      1.0000 0.33270  0.57670  0.41490  Biso   1.000  H
  H33      1.0000 0.45860  0.63460  0.45810  Biso   1.000  H
  H34      1.0000 0.39570  0.67690  0.50410  Biso   1.000  H
  H35      1.0000 0.00480  0.95500  0.16410  Biso   1.000  H
  H36      1.0000 0.90810  0.04030  0.15100  Biso   1.000  H
  H37      1.0000 0.63450  0.75710  0.07960  Biso   1.000  H
  H38      1.0000 0.73340  0.67360  0.09540  Biso   1.000  H
  H39      1.0000 0.37230  0.89470  0.08700  Biso   1.000  H
  H40      1.0000 0.50750  0.92270  0.02890  Biso   1.000  H
  H41      1.0000 0.69490  0.93910  0.25440  Biso   1.000  H
  H42      1.0000 0.56200  0.91420  0.31270  Biso   1.000  H
  H43      1.0000 0.87710  0.16370  0.96610  Biso   1.000  H
  H44      1.0000 0.79370  0.00270  0.98810  Biso   1.000  H
  H45      1.0000 0.70070  0.13810  0.16570  Biso   1.000  H
  H46      1.0000 0.77780  0.29560  0.13830  Biso   1.000  H
  H47      1.0000 0.67780  0.40740  0.84220  Biso   1.000  H
  H48      1.0000 0.72030  0.34510  0.88810  Biso   1.000  H
  H49      1.0000 0.57670  0.33270  0.91490  Biso   1.000  H
  H50      1.0000 0.63460  0.45860  0.95810  Biso   1.000  H
  H51      1.0000 0.67690  0.39570  0.00410  Biso   1.000  H
  H52      1.0000 0.04500  0.99520  0.33590  Biso   1.000  H
  H53      1.0000 0.95970  0.09190  0.34900  Biso   1.000  H
  H54      1.0000 0.24290  0.36550  0.42040  Biso   1.000  H
  H55      1.0000 0.32640  0.26660  0.40460  Biso   1.000  H
  H56      1.0000 0.10530  0.62770  0.41300  Biso   1.000  H
  H57      1.0000 0.07730  0.49250  0.47110  Biso   1.000  H
  H58      1.0000 0.06090  0.30510  0.24560  Biso   1.000  H
  H59      1.0000 0.08580  0.43800  0.18730  Biso   1.000  H
  H60      1.0000 0.83630  0.12290  0.53390  Biso   1.000  H
  H61      1.0000 0.99730  0.20630  0.51190  Biso   1.000  H
  H62      1.0000 0.86190  0.29930  0.33430  Biso   1.000  H
  H63      1.0000 0.70440  0.22220  0.36170  Biso   1.000  H
  H64      1.0000 0.59260  0.32220  0.65780  Biso   1.000  H
  H65      1.0000 0.65490  0.27970  0.61190  Biso   1.000  H
  H66      1.0000 0.66730  0.42330  0.58510  Biso   1.000  H
  H67      1.0000 0.54140  0.36540  0.54190  Biso   1.000  H
  H68      1.0000 0.60430  0.32310  0.49590  Biso   1.000  H
  C1       1.0000 0.05438  0.24702  0.86190  Biso   1.000  C
  C2       1.0000 0.12064  0.19496  0.86960  Biso   1.000  C
  C3       1.0000 0.06978  0.08482  0.85290  Biso   1.000  C
  C4       1.0000 0.12770  0.03350  0.86110  Biso   1.000  C
  C5       1.0000 0.23990  0.09190  0.88760  Biso   1.000  C
  C6       1.0000 0.29099  0.20281  0.90350  Biso   1.000  C
  C7       1.0000 0.23163  0.25297  0.89420  Biso   1.000  C
  C8       1.0000 0.63157  0.11023  0.75440  Biso   1.000  C
  C9       1.0000 0.54609  0.09691  0.79380  Biso   1.000  C
  C10      1.0000 0.56264  0.09536  0.87910  Biso   1.000  C
  C11      1.0000 0.48146  0.07874  0.91400  Biso   1.000  C
  C12      1.0000 0.38471  0.06449  0.86390  Biso   1.000  C
  C13      1.0000 0.36927  0.06853  0.77890  Biso   1.000  C
  C14      1.0000 0.44903  0.08397  0.74430  Biso   1.000  C
  C15      1.0000 0.10680  0.64960  0.96250  Biso   1.000  C
  C16      1.0000 0.16200  0.75280  0.94890  Biso   1.000  C
  C17      1.0000 0.15850  0.84150  0.99390  Biso   1.000  C
  C18      1.0000 0.20726  0.93774  0.98010  Biso   1.000  C
  C19      1.0000 0.25821  0.94479  0.91770  Biso   1.000  C
  C20      1.0000 0.26385  0.85715  0.87440  Biso   1.000  C
  C21      1.0000 0.21690  0.76230  0.89040  Biso   1.000  C
  C22      1.0000 0.28600  0.59120  0.10060  Biso   1.000  C
  C23      1.0000 0.35490  0.60190  0.05200  Biso   1.000  C
  C24      1.0000 0.75298  0.94562  0.63810  Biso   1.000  C
  C25      1.0000 0.80504  0.87936  0.63040  Biso   1.000  C
  C26      1.0000 0.91518  0.93022  0.64710  Biso   1.000  C
  C27      1.0000 0.96650  0.87230  0.63890  Biso   1.000  C
  C28      1.0000 0.90810  0.76010  0.61240  Biso   1.000  C
  C29      1.0000 0.79719  0.70901  0.59650  Biso   1.000  C
  C30      1.0000 0.74703  0.76837  0.60580  Biso   1.000  C
  C31      1.0000 0.88977  0.36843  0.74560  Biso   1.000  C
  C32      1.0000 0.90309  0.45391  0.70620  Biso   1.000  C
  C33      1.0000 0.90464  0.43736  0.62090  Biso   1.000  C
  C34      1.0000 0.92126  0.51854  0.58600  Biso   1.000  C
  C35      1.0000 0.93551  0.61529  0.63610  Biso   1.000  C
  C36      1.0000 0.93147  0.63073  0.72110  Biso   1.000  C
  C37      1.0000 0.91603  0.55097  0.75570  Biso   1.000  C
  C38      1.0000 0.35040  0.89320  0.53750  Biso   1.000  C
  C39      1.0000 0.24720  0.83800  0.55110  Biso   1.000  C
  C40      1.0000 0.15850  0.84150  0.50610  Biso   1.000  C
  C41      1.0000 0.06226  0.79274  0.51990  Biso   1.000  C
  C42      1.0000 0.05521  0.74179  0.58230  Biso   1.000  C
  C43      1.0000 0.14285  0.73615  0.62560  Biso   1.000  C
  C44      1.0000 0.23770  0.78310  0.60960  Biso   1.000  C
  C45      1.0000 0.40880  0.71400  0.39940  Biso   1.000  C
  C46      1.0000 0.39810  0.64510  0.44800  Biso   1.000  C
  C47      1.0000 0.94562  0.75298  0.13810  Biso   1.000  C
  C48      1.0000 0.87936  0.80504  0.13040  Biso   1.000  C
  C49      1.0000 0.93022  0.91518  0.14710  Biso   1.000  C
  C50      1.0000 0.87230  0.96650  0.13890  Biso   1.000  C
  C51      1.0000 0.76010  0.90810  0.11240  Biso   1.000  C
  C52      1.0000 0.70901  0.79719  0.09650  Biso   1.000  C
  C53      1.0000 0.76837  0.74703  0.10580  Biso   1.000  C
  C54      1.0000 0.36843  0.88977  0.24560  Biso   1.000  C
  C55      1.0000 0.45391  0.90309  0.20620  Biso   1.000  C
  C56      1.0000 0.43736  0.90464  0.12090  Biso   1.000  C
  C57      1.0000 0.51854  0.92126  0.08600  Biso   1.000  C
  C58      1.0000 0.61529  0.93551  0.13610  Biso   1.000  C
  C59      1.0000 0.63073  0.93147  0.22110  Biso   1.000  C
  C60      1.0000 0.55097  0.91603  0.25570  Biso   1.000  C
  C61      1.0000 0.89320  0.35040  0.03750  Biso   1.000  C
  C62      1.0000 0.83800  0.24720  0.05110  Biso   1.000  C
  C63      1.0000 0.84150  0.15850  0.00610  Biso   1.000  C
  C64      1.0000 0.79274  0.06226  0.01990  Biso   1.000  C
  C65      1.0000 0.74179  0.05521  0.08230  Biso   1.000  C
  C66      1.0000 0.73615  0.14285  0.12560  Biso   1.000  C
  C67      1.0000 0.78310  0.23770  0.10960  Biso   1.000  C
  C68      1.0000 0.71400  0.40880  0.89940  Biso   1.000  C
  C69      1.0000 0.64510  0.39810  0.94800  Biso   1.000  C
  C70      1.0000 0.24702  0.05438  0.36190  Biso   1.000  C
  C71      1.0000 0.19496  0.12064  0.36960  Biso   1.000  C
  C72      1.0000 0.08482  0.06978  0.35290  Biso   1.000  C
  C73      1.0000 0.03350  0.12770  0.36110  Biso   1.000  C
  C74      1.0000 0.09190  0.23990  0.38760  Biso   1.000  C
  C75      1.0000 0.20281  0.29099  0.40350  Biso   1.000  C
  C76      1.0000 0.25297  0.23163  0.39420  Biso   1.000  C
  C77      1.0000 0.11023  0.63157  0.25440  Biso   1.000  C
  C78      1.0000 0.09691  0.54609  0.29380  Biso   1.000  C
  C79      1.0000 0.09536  0.56264  0.37910  Biso   1.000  C
  C80      1.0000 0.07874  0.48146  0.41400  Biso   1.000  C
  C81      1.0000 0.06449  0.38471  0.36390  Biso   1.000  C
  C82      1.0000 0.06853  0.36927  0.27890  Biso   1.000  C
  C83      1.0000 0.08397  0.44903  0.24430  Biso   1.000  C
  C84      1.0000 0.64960  0.10680  0.46250  Biso   1.000  C
  C85      1.0000 0.75280  0.16200  0.44890  Biso   1.000  C
  C86      1.0000 0.84150  0.15850  0.49390  Biso   1.000  C
  C87      1.0000 0.93774  0.20726  0.48010  Biso   1.000  C
  C88      1.0000 0.94479  0.25821  0.41770  Biso   1.000  C
  C89      1.0000 0.85715  0.26385  0.37440  Biso   1.000  C
  C90      1.0000 0.76230  0.21690  0.39040  Biso   1.000  C
  C91      1.0000 0.59120  0.28600  0.60060  Biso   1.000  C
  C92      1.0000 0.60190  0.35490  0.55200  Biso   1.000  C
  N1       1.0000 0.30030  0.04110  0.89860  Biso   1.000  N
  N2       1.0000 0.95890  0.69970  0.60140  Biso   1.000  N
  N3       1.0000 0.69970  0.95890  0.10140  Biso   1.000  N
  N4       1.0000 0.04110  0.30030  0.39860  Biso   1.000  N
  O1       1.0000 0.95446  0.18774  0.83940  Biso   1.000  O
  O2       1.0000 0.10258  0.34822  0.88000  Biso   1.000  O
  O3       1.0000 0.72235  0.13805  0.80650  Biso   1.000  O
  O4       1.0000 0.60994  0.09446  0.67290  Biso   1.000  O
  O5       1.0000 0.04720  0.64220  0.00710  Biso   1.000  O
  O6       1.0000 0.12020  0.57500  0.92620  Biso   1.000  O
  O7       1.0000 0.17590  0.49650  0.06330  Biso   1.000  O
  O8       1.0000 0.81226  0.04554  0.66060  Biso   1.000  O
  O9       1.0000 0.65178  0.89742  0.62000  Biso   1.000  O
  O10      1.0000 0.86195  0.27765  0.69350  Biso   1.000  O
  O11      1.0000 0.90554  0.39006  0.82710  Biso   1.000  O
  O12      1.0000 0.35780  0.95280  0.49290  Biso   1.000  O
  O13      1.0000 0.42500  0.87980  0.57380  Biso   1.000  O
  O14      1.0000 0.50350  0.82410  0.43670  Biso   1.000  O
  O15      1.0000 0.04554  0.81226  0.16060  Biso   1.000  O
  O16      1.0000 0.89742  0.65178  0.12000  Biso   1.000  O
  O17      1.0000 0.27765  0.86195  0.19350  Biso   1.000  O
  O18      1.0000 0.39006  0.90554  0.32710  Biso   1.000  O
  O19      1.0000 0.95280  0.35780  0.99290  Biso   1.000  O
  O20      1.0000 0.87980  0.42500  0.07380  Biso   1.000  O
  O21      1.0000 0.82410  0.50350  0.93670  Biso   1.000  O
  O22      1.0000 0.18774  0.95446  0.33940  Biso   1.000  O
  O23      1.0000 0.34822  0.10258  0.38000  Biso   1.000  O
  O24      1.0000 0.13805  0.72235  0.30650  Biso   1.000  O
  O25      1.0000 0.09446  0.60994  0.17290  Biso   1.000  O
  O26      1.0000 0.64220  0.04720  0.50710  Biso   1.000  O
  O27      1.0000 0.57500  0.12020  0.42620  Biso   1.000  O
  O28      1.0000 0.49650  0.17590  0.56330  Biso   1.000  O
