data_image0
_cell_length_a       19.0949
_cell_length_b       22.7667
_cell_length_c       13.3952
_cell_angle_alpha    90
_cell_angle_beta     113.185
_cell_angle_gamma    90

_symmetry_space_group_name_H-M    "P 1"
_symmetry_int_tables_number       1

loop_
  _symmetry_equiv_pos_as_xyz
  'x, y, z'

loop_
  _atom_site_label
  _atom_site_occupancy
  _atom_site_fract_x
  _atom_site_fract_y
  _atom_site_fract_z
  _atom_site_thermal_displace_type
  _atom_site_B_iso_or_equiv
  _atom_site_type_symbol
  Cu1      1.0000 0.49585  0.76335  0.55696  Biso   1.000  Cu
  N1       1.0000 0.46740  0.67755  0.54490  Biso   1.000  N
  N2       1.0000 0.40514  0.76713  0.41590  Biso   1.000  N
  N3       1.0000 0.57436  0.93534  0.80450  Biso   1.000  N
  O1       1.0000 0.51142  0.84794  0.56520  Biso   1.000  O
  O2       1.0000 0.62055  0.84719  0.54070  Biso   1.000  O
  O3       1.0000 0.57906  0.74621  0.69370  Biso   1.000  O
  O4       1.0000 0.57967  0.81169  0.81850  Biso   1.000  O
  C1       1.0000 0.50110  0.63365  0.61110  Biso   1.000  C
  H1       1.0000 0.54170  0.64200  0.67750  Biso   1.000  H
  C2       1.0000 0.47870  0.57570  0.58590  Biso   1.000  C
  H2       1.0000 0.50330  0.54560  0.63530  Biso   1.000  H
  C3       1.0000 0.42130  0.56250  0.49010  Biso   1.000  C
  H3       1.0000 0.40600  0.52330  0.47310  Biso   1.000  H
  C4       1.0000 0.38470  0.60730  0.41650  Biso   1.000  C
  C5       1.0000 0.32400  0.59970  0.31340  Biso   1.000  C
  H4       1.0000 0.30580  0.56150  0.29110  Biso   1.000  H
  C6       1.0000 0.29210  0.64430  0.24740  Biso   1.000  C
  H5       1.0000 0.25260  0.63690  0.17960  Biso   1.000  H
  C7       1.0000 0.31670  0.70380  0.27740  Biso   1.000  C
  C8       1.0000 0.28620  0.75390  0.21440  Biso   1.000  C
  H6       1.0000 0.24680  0.74990  0.14530  Biso   1.000  H
  C9       1.0000 0.31330  0.80800  0.25270  Biso   1.000  C
  H7       1.0000 0.29180  0.84170  0.21140  Biso   1.000  H
  C10      1.0000 0.37350  0.81310  0.35420  Biso   1.000  C
  H8       1.0000 0.39230  0.85080  0.37980  Biso   1.000  H
  C11      1.0000 0.37680  0.71300  0.37890  Biso   1.000  C
  C12      1.0000 0.41010  0.66493  0.44860  Biso   1.000  C
  C13      1.0000 0.64910  0.93375  0.86130  Biso   1.000  C
  H9       1.0000 0.67370  0.89720  0.87870  Biso   1.000  H
  C14      1.0000 0.69200  0.98490  0.89600  Biso   1.000  C
  H10      1.0000 0.74480  0.98230  0.93680  Biso   1.000  H
  C15      1.0000 0.65850  0.03820  0.87140  Biso   1.000  C
  H11      1.0000 0.68750  0.07250  0.89530  Biso   1.000  H
  C16      1.0000 0.58010  0.04172  0.80990  Biso   1.000  C
  C17      1.0000 0.53790  0.09580  0.77880  Biso   1.000  C
  H12      1.0000 0.56370  0.13180  0.79900  Biso   1.000  H
  C18      1.0000 0.54040  0.98872  0.77950  Biso   1.000  C
  C19      1.0000 0.56780  0.87288  0.55220  Biso   1.000  C
  C20      1.0000 0.56570  0.93778  0.54720  Biso   1.000  C
  H13      1.0000 0.61220  0.95830  0.57290  Biso   1.000  H
  C21      1.0000 0.50170  0.96852  0.50850  Biso   1.000  C
  H14      1.0000 0.45550  0.94820  0.49080  Biso   1.000  H
  C22      1.0000 0.60550  0.76806  0.78680  Biso   1.000  C
  C23      1.0000 0.67360  0.73914  0.86740  Biso   1.000  C
  H15      1.0000 0.68710  0.70170  0.85100  Biso   1.000  H
  C24      1.0000 0.71630  0.76331  0.96100  Biso   1.000  C
  H16      1.0000 0.70180  0.80030  0.97770  Biso   1.000  H
  Cu2      1.0000 0.99585  0.26335  0.55696  Biso   1.000  Cu
  N4       1.0000 0.96740  0.17755  0.54490  Biso   1.000  N
  N5       1.0000 0.90514  0.26713  0.41590  Biso   1.000  N
  N6       1.0000 0.07436  0.43534  0.80450  Biso   1.000  N
  O5       1.0000 0.01142  0.34794  0.56520  Biso   1.000  O
  O6       1.0000 0.12055  0.34719  0.54070  Biso   1.000  O
  O7       1.0000 0.07906  0.24621  0.69370  Biso   1.000  O
  O8       1.0000 0.07967  0.31169  0.81850  Biso   1.000  O
  C25      1.0000 0.00110  0.13365  0.61110  Biso   1.000  C
  H17      1.0000 0.04170  0.14200  0.67750  Biso   1.000  H
  C26      1.0000 0.97870  0.07570  0.58590  Biso   1.000  C
  H18      1.0000 0.00330  0.04560  0.63530  Biso   1.000  H
  C27      1.0000 0.92130  0.06250  0.49010  Biso   1.000  C
  H19      1.0000 0.90600  0.02330  0.47310  Biso   1.000  H
  C28      1.0000 0.88470  0.10730  0.41650  Biso   1.000  C
  C29      1.0000 0.82400  0.09970  0.31340  Biso   1.000  C
  H20      1.0000 0.80580  0.06150  0.29110  Biso   1.000  H
  C30      1.0000 0.79210  0.14430  0.24740  Biso   1.000  C
  H21      1.0000 0.75260  0.13690  0.17960  Biso   1.000  H
  C31      1.0000 0.81670  0.20380  0.27740  Biso   1.000  C
  C32      1.0000 0.78620  0.25390  0.21440  Biso   1.000  C
  H22      1.0000 0.74680  0.24990  0.14530  Biso   1.000  H
  C33      1.0000 0.81330  0.30800  0.25270  Biso   1.000  C
  H23      1.0000 0.79180  0.34170  0.21140  Biso   1.000  H
  C34      1.0000 0.87350  0.31310  0.35420  Biso   1.000  C
  H24      1.0000 0.89230  0.35080  0.37980  Biso   1.000  H
  C35      1.0000 0.87680  0.21300  0.37890  Biso   1.000  C
  C36      1.0000 0.91010  0.16493  0.44860  Biso   1.000  C
  C37      1.0000 0.14910  0.43375  0.86130  Biso   1.000  C
  H25      1.0000 0.17370  0.39720  0.87870  Biso   1.000  H
  C38      1.0000 0.19200  0.48490  0.89600  Biso   1.000  C
  H26      1.0000 0.24480  0.48230  0.93680  Biso   1.000  H
  C39      1.0000 0.15850  0.53820  0.87140  Biso   1.000  C
  H27      1.0000 0.18750  0.57250  0.89530  Biso   1.000  H
  C40      1.0000 0.08010  0.54172  0.80990  Biso   1.000  C
  C41      1.0000 0.03790  0.59580  0.77880  Biso   1.000  C
  H28      1.0000 0.06370  0.63180  0.79900  Biso   1.000  H
  C42      1.0000 0.04040  0.48872  0.77950  Biso   1.000  C
  C43      1.0000 0.06780  0.37288  0.55220  Biso   1.000  C
  C44      1.0000 0.06570  0.43778  0.54720  Biso   1.000  C
  H29      1.0000 0.11220  0.45830  0.57290  Biso   1.000  H
  C45      1.0000 0.00170  0.46852  0.50850  Biso   1.000  C
  H30      1.0000 0.95550  0.44820  0.49080  Biso   1.000  H
  C46      1.0000 0.10550  0.26806  0.78680  Biso   1.000  C
  C47      1.0000 0.17360  0.23914  0.86740  Biso   1.000  C
  H31      1.0000 0.18710  0.20170  0.85100  Biso   1.000  H
  C48      1.0000 0.21630  0.26331  0.96100  Biso   1.000  C
  H32      1.0000 0.20180  0.30030  0.97770  Biso   1.000  H
  Cu3      1.0000 0.50415  0.76335  0.94304  Biso   1.000  Cu
  N7       1.0000 0.53260  0.67755  0.95510  Biso   1.000  N
  N8       1.0000 0.59486  0.76713  0.08410  Biso   1.000  N
  N9       1.0000 0.42564  0.93534  0.69550  Biso   1.000  N
  O9       1.0000 0.48858  0.84794  0.93480  Biso   1.000  O
  O10      1.0000 0.37945  0.84719  0.95930  Biso   1.000  O
  O11      1.0000 0.42094  0.74621  0.80630  Biso   1.000  O
  O12      1.0000 0.42033  0.81169  0.68150  Biso   1.000  O
  C49      1.0000 0.49890  0.63365  0.88890  Biso   1.000  C
  H33      1.0000 0.45830  0.64200  0.82250  Biso   1.000  H
  C50      1.0000 0.52130  0.57570  0.91410  Biso   1.000  C
  H34      1.0000 0.49670  0.54560  0.86470  Biso   1.000  H
  C51      1.0000 0.57870  0.56250  0.00990  Biso   1.000  C
  H35      1.0000 0.59400  0.52330  0.02690  Biso   1.000  H
  C52      1.0000 0.61530  0.60730  0.08350  Biso   1.000  C
  C53      1.0000 0.67600  0.59970  0.18660  Biso   1.000  C
  H36      1.0000 0.69420  0.56150  0.20890  Biso   1.000  H
  C54      1.0000 0.70790  0.64430  0.25260  Biso   1.000  C
  H37      1.0000 0.74740  0.63690  0.32040  Biso   1.000  H
  C55      1.0000 0.68330  0.70380  0.22260  Biso   1.000  C
  C56      1.0000 0.71380  0.75390  0.28560  Biso   1.000  C
  H38      1.0000 0.75320  0.74990  0.35470  Biso   1.000  H
  C57      1.0000 0.68670  0.80800  0.24730  Biso   1.000  C
  H39      1.0000 0.70820  0.84170  0.28860  Biso   1.000  H
  C58      1.0000 0.62650  0.81310  0.14580  Biso   1.000  C
  H40      1.0000 0.60770  0.85080  0.12020  Biso   1.000  H
  C59      1.0000 0.62320  0.71300  0.12110  Biso   1.000  C
  C60      1.0000 0.58990  0.66493  0.05140  Biso   1.000  C
  C61      1.0000 0.35090  0.93375  0.63870  Biso   1.000  C
  H41      1.0000 0.32630  0.89720  0.62130  Biso   1.000  H
  C62      1.0000 0.30800  0.98490  0.60400  Biso   1.000  C
  H42      1.0000 0.25520  0.98230  0.56320  Biso   1.000  H
  C63      1.0000 0.34150  0.03820  0.62860  Biso   1.000  C
  H43      1.0000 0.31250  0.07250  0.60470  Biso   1.000  H
  C64      1.0000 0.41990  0.04172  0.69010  Biso   1.000  C
  C65      1.0000 0.46210  0.09580  0.72120  Biso   1.000  C
  H44      1.0000 0.43630  0.13180  0.70100  Biso   1.000  H
  C66      1.0000 0.45960  0.98872  0.72050  Biso   1.000  C
  C67      1.0000 0.43220  0.87288  0.94780  Biso   1.000  C
  C68      1.0000 0.43430  0.93778  0.95280  Biso   1.000  C
  H45      1.0000 0.38780  0.95830  0.92710  Biso   1.000  H
  C69      1.0000 0.49830  0.96852  0.99150  Biso   1.000  C
  H46      1.0000 0.54450  0.94820  0.00920  Biso   1.000  H
  C70      1.0000 0.39450  0.76806  0.71320  Biso   1.000  C
  C71      1.0000 0.32640  0.73914  0.63260  Biso   1.000  C
  H47      1.0000 0.31290  0.70170  0.64900  Biso   1.000  H
  C72      1.0000 0.28370  0.76331  0.53900  Biso   1.000  C
  H48      1.0000 0.29820  0.80030  0.52230  Biso   1.000  H
  Cu4      1.0000 0.00415  0.26335  0.94304  Biso   1.000  Cu
  N10      1.0000 0.03260  0.17755  0.95510  Biso   1.000  N
  N11      1.0000 0.09486  0.26713  0.08410  Biso   1.000  N
  N12      1.0000 0.92564  0.43534  0.69550  Biso   1.000  N
  O13      1.0000 0.98858  0.34794  0.93480  Biso   1.000  O
  O14      1.0000 0.87945  0.34719  0.95930  Biso   1.000  O
  O15      1.0000 0.92094  0.24621  0.80630  Biso   1.000  O
  O16      1.0000 0.92033  0.31169  0.68150  Biso   1.000  O
  C73      1.0000 0.99890  0.13365  0.88890  Biso   1.000  C
  H49      1.0000 0.95830  0.14200  0.82250  Biso   1.000  H
  C74      1.0000 0.02130  0.07570  0.91410  Biso   1.000  C
  H50      1.0000 0.99670  0.04560  0.86470  Biso   1.000  H
  C75      1.0000 0.07870  0.06250  0.00990  Biso   1.000  C
  H51      1.0000 0.09400  0.02330  0.02690  Biso   1.000  H
  C76      1.0000 0.11530  0.10730  0.08350  Biso   1.000  C
  C77      1.0000 0.17600  0.09970  0.18660  Biso   1.000  C
  H52      1.0000 0.19420  0.06150  0.20890  Biso   1.000  H
  C78      1.0000 0.20790  0.14430  0.25260  Biso   1.000  C
  H53      1.0000 0.24740  0.13690  0.32040  Biso   1.000  H
  C79      1.0000 0.18330  0.20380  0.22260  Biso   1.000  C
  C80      1.0000 0.21380  0.25390  0.28560  Biso   1.000  C
  H54      1.0000 0.25320  0.24990  0.35470  Biso   1.000  H
  C81      1.0000 0.18670  0.30800  0.24730  Biso   1.000  C
  H55      1.0000 0.20820  0.34170  0.28860  Biso   1.000  H
  C82      1.0000 0.12650  0.31310  0.14580  Biso   1.000  C
  H56      1.0000 0.10770  0.35080  0.12020  Biso   1.000  H
  C83      1.0000 0.12320  0.21300  0.12110  Biso   1.000  C
  C84      1.0000 0.08990  0.16493  0.05140  Biso   1.000  C
  C85      1.0000 0.85090  0.43375  0.63870  Biso   1.000  C
  H57      1.0000 0.82630  0.39720  0.62130  Biso   1.000  H
  C86      1.0000 0.80800  0.48490  0.60400  Biso   1.000  C
  H58      1.0000 0.75520  0.48230  0.56320  Biso   1.000  H
  C87      1.0000 0.84150  0.53820  0.62860  Biso   1.000  C
  H59      1.0000 0.81250  0.57250  0.60470  Biso   1.000  H
  C88      1.0000 0.91990  0.54172  0.69010  Biso   1.000  C
  C89      1.0000 0.96210  0.59580  0.72120  Biso   1.000  C
  H60      1.0000 0.93630  0.63180  0.70100  Biso   1.000  H
  C90      1.0000 0.95960  0.48872  0.72050  Biso   1.000  C
  C91      1.0000 0.93220  0.37288  0.94780  Biso   1.000  C
  C92      1.0000 0.93430  0.43778  0.95280  Biso   1.000  C
  H61      1.0000 0.88780  0.45830  0.92710  Biso   1.000  H
  C93      1.0000 0.99830  0.46852  0.99150  Biso   1.000  C
  H62      1.0000 0.04450  0.44820  0.00920  Biso   1.000  H
  C94      1.0000 0.89450  0.26806  0.71320  Biso   1.000  C
  C95      1.0000 0.82640  0.23914  0.63260  Biso   1.000  C
  H63      1.0000 0.81290  0.20170  0.64900  Biso   1.000  H
  C96      1.0000 0.78370  0.26331  0.53900  Biso   1.000  C
  H64      1.0000 0.79820  0.30030  0.52230  Biso   1.000  H
  Cu5      1.0000 0.50415  0.23665  0.44304  Biso   1.000  Cu
  N13      1.0000 0.53260  0.32245  0.45510  Biso   1.000  N
  N14      1.0000 0.59486  0.23287  0.58410  Biso   1.000  N
  N15      1.0000 0.42564  0.06466  0.19550  Biso   1.000  N
  O17      1.0000 0.48858  0.15206  0.43480  Biso   1.000  O
  O18      1.0000 0.37945  0.15281  0.45930  Biso   1.000  O
  O19      1.0000 0.42094  0.25379  0.30630  Biso   1.000  O
  O20      1.0000 0.42033  0.18831  0.18150  Biso   1.000  O
  C97      1.0000 0.49890  0.36635  0.38890  Biso   1.000  C
  H65      1.0000 0.45830  0.35800  0.32250  Biso   1.000  H
  C98      1.0000 0.52130  0.42430  0.41410  Biso   1.000  C
  H66      1.0000 0.49670  0.45440  0.36470  Biso   1.000  H
  C99      1.0000 0.57870  0.43750  0.50990  Biso   1.000  C
  H67      1.0000 0.59400  0.47670  0.52690  Biso   1.000  H
  C100     1.0000 0.61530  0.39270  0.58350  Biso   1.000  C
  C101     1.0000 0.67600  0.40030  0.68660  Biso   1.000  C
  H68      1.0000 0.69420  0.43850  0.70890  Biso   1.000  H
  C102     1.0000 0.70790  0.35570  0.75260  Biso   1.000  C
  H69      1.0000 0.74740  0.36310  0.82040  Biso   1.000  H
  C103     1.0000 0.68330  0.29620  0.72260  Biso   1.000  C
  C104     1.0000 0.71380  0.24610  0.78560  Biso   1.000  C
  H70      1.0000 0.75320  0.25010  0.85470  Biso   1.000  H
  C105     1.0000 0.68670  0.19200  0.74730  Biso   1.000  C
  H71      1.0000 0.70820  0.15830  0.78860  Biso   1.000  H
  C106     1.0000 0.62650  0.18690  0.64580  Biso   1.000  C
  H72      1.0000 0.60770  0.14920  0.62020  Biso   1.000  H
  C107     1.0000 0.62320  0.28700  0.62110  Biso   1.000  C
  C108     1.0000 0.58990  0.33507  0.55140  Biso   1.000  C
  C109     1.0000 0.35090  0.06625  0.13870  Biso   1.000  C
  H73      1.0000 0.32630  0.10280  0.12130  Biso   1.000  H
  C110     1.0000 0.30800  0.01510  0.10400  Biso   1.000  C
  H74      1.0000 0.25520  0.01770  0.06320  Biso   1.000  H
  C111     1.0000 0.34150  0.96180  0.12860  Biso   1.000  C
  H75      1.0000 0.31250  0.92750  0.10470  Biso   1.000  H
  C112     1.0000 0.41990  0.95828  0.19010  Biso   1.000  C
  C113     1.0000 0.46210  0.90420  0.22120  Biso   1.000  C
  H76      1.0000 0.43630  0.86820  0.20100  Biso   1.000  H
  C114     1.0000 0.45960  0.01128  0.22050  Biso   1.000  C
  C115     1.0000 0.43220  0.12712  0.44780  Biso   1.000  C
  C116     1.0000 0.43430  0.06222  0.45280  Biso   1.000  C
  H77      1.0000 0.38780  0.04170  0.42710  Biso   1.000  H
  C117     1.0000 0.49830  0.03148  0.49150  Biso   1.000  C
  H78      1.0000 0.54450  0.05180  0.50920  Biso   1.000  H
  C118     1.0000 0.39450  0.23194  0.21320  Biso   1.000  C
  C119     1.0000 0.32640  0.26086  0.13260  Biso   1.000  C
  H79      1.0000 0.31290  0.29830  0.14900  Biso   1.000  H
  C120     1.0000 0.28370  0.23669  0.03900  Biso   1.000  C
  H80      1.0000 0.29820  0.19970  0.02230  Biso   1.000  H
  Cu6      1.0000 0.00415  0.73665  0.44304  Biso   1.000  Cu
  N16      1.0000 0.03260  0.82245  0.45510  Biso   1.000  N
  N17      1.0000 0.09486  0.73287  0.58410  Biso   1.000  N
  N18      1.0000 0.92564  0.56466  0.19550  Biso   1.000  N
  O21      1.0000 0.98858  0.65206  0.43480  Biso   1.000  O
  O22      1.0000 0.87945  0.65281  0.45930  Biso   1.000  O
  O23      1.0000 0.92094  0.75379  0.30630  Biso   1.000  O
  O24      1.0000 0.92033  0.68831  0.18150  Biso   1.000  O
  C121     1.0000 0.99890  0.86635  0.38890  Biso   1.000  C
  H81      1.0000 0.95830  0.85800  0.32250  Biso   1.000  H
  C122     1.0000 0.02130  0.92430  0.41410  Biso   1.000  C
  H82      1.0000 0.99670  0.95440  0.36470  Biso   1.000  H
  C123     1.0000 0.07870  0.93750  0.50990  Biso   1.000  C
  H83      1.0000 0.09400  0.97670  0.52690  Biso   1.000  H
  C124     1.0000 0.11530  0.89270  0.58350  Biso   1.000  C
  C125     1.0000 0.17600  0.90030  0.68660  Biso   1.000  C
  H84      1.0000 0.19420  0.93850  0.70890  Biso   1.000  H
  C126     1.0000 0.20790  0.85570  0.75260  Biso   1.000  C
  H85      1.0000 0.24740  0.86310  0.82040  Biso   1.000  H
  C127     1.0000 0.18330  0.79620  0.72260  Biso   1.000  C
  C128     1.0000 0.21380  0.74610  0.78560  Biso   1.000  C
  H86      1.0000 0.25320  0.75010  0.85470  Biso   1.000  H
  C129     1.0000 0.18670  0.69200  0.74730  Biso   1.000  C
  H87      1.0000 0.20820  0.65830  0.78860  Biso   1.000  H
  C130     1.0000 0.12650  0.68690  0.64580  Biso   1.000  C
  H88      1.0000 0.10770  0.64920  0.62020  Biso   1.000  H
  C131     1.0000 0.12320  0.78700  0.62110  Biso   1.000  C
  C132     1.0000 0.08990  0.83507  0.55140  Biso   1.000  C
  C133     1.0000 0.85090  0.56625  0.13870  Biso   1.000  C
  H89      1.0000 0.82630  0.60280  0.12130  Biso   1.000  H
  C134     1.0000 0.80800  0.51510  0.10400  Biso   1.000  C
  H90      1.0000 0.75520  0.51770  0.06320  Biso   1.000  H
  C135     1.0000 0.84150  0.46180  0.12860  Biso   1.000  C
  H91      1.0000 0.81250  0.42750  0.10470  Biso   1.000  H
  C136     1.0000 0.91990  0.45828  0.19010  Biso   1.000  C
  C137     1.0000 0.96210  0.40420  0.22120  Biso   1.000  C
  H92      1.0000 0.93630  0.36820  0.20100  Biso   1.000  H
  C138     1.0000 0.95960  0.51128  0.22050  Biso   1.000  C
  C139     1.0000 0.93220  0.62712  0.44780  Biso   1.000  C
  C140     1.0000 0.93430  0.56222  0.45280  Biso   1.000  C
  H93      1.0000 0.88780  0.54170  0.42710  Biso   1.000  H
  C141     1.0000 0.99830  0.53148  0.49150  Biso   1.000  C
  H94      1.0000 0.04450  0.55180  0.50920  Biso   1.000  H
  C142     1.0000 0.89450  0.73194  0.21320  Biso   1.000  C
  C143     1.0000 0.82640  0.76086  0.13260  Biso   1.000  C
  H95      1.0000 0.81290  0.79830  0.14900  Biso   1.000  H
  C144     1.0000 0.78370  0.73669  0.03900  Biso   1.000  C
  H96      1.0000 0.79820  0.69970  0.02230  Biso   1.000  H
  Cu7      1.0000 0.49585  0.23665  0.05696  Biso   1.000  Cu
  N19      1.0000 0.46740  0.32245  0.04490  Biso   1.000  N
  N20      1.0000 0.40514  0.23287  0.91590  Biso   1.000  N
  N21      1.0000 0.57436  0.06466  0.30450  Biso   1.000  N
  O25      1.0000 0.51142  0.15206  0.06520  Biso   1.000  O
  O26      1.0000 0.62055  0.15281  0.04070  Biso   1.000  O
  O27      1.0000 0.57906  0.25379  0.19370  Biso   1.000  O
  O28      1.0000 0.57967  0.18831  0.31850  Biso   1.000  O
  C145     1.0000 0.50110  0.36635  0.11110  Biso   1.000  C
  H97      1.0000 0.54170  0.35800  0.17750  Biso   1.000  H
  C146     1.0000 0.47870  0.42430  0.08590  Biso   1.000  C
  H98      1.0000 0.50330  0.45440  0.13530  Biso   1.000  H
  C147     1.0000 0.42130  0.43750  0.99010  Biso   1.000  C
  H99      1.0000 0.40600  0.47670  0.97310  Biso   1.000  H
  C148     1.0000 0.38470  0.39270  0.91650  Biso   1.000  C
  C149     1.0000 0.32400  0.40030  0.81340  Biso   1.000  C
  H100     1.0000 0.30580  0.43850  0.79110  Biso   1.000  H
  C150     1.0000 0.29210  0.35570  0.74740  Biso   1.000  C
  H101     1.0000 0.25260  0.36310  0.67960  Biso   1.000  H
  C151     1.0000 0.31670  0.29620  0.77740  Biso   1.000  C
  C152     1.0000 0.28620  0.24610  0.71440  Biso   1.000  C
  H102     1.0000 0.24680  0.25010  0.64530  Biso   1.000  H
  C153     1.0000 0.31330  0.19200  0.75270  Biso   1.000  C
  H103     1.0000 0.29180  0.15830  0.71140  Biso   1.000  H
  C154     1.0000 0.37350  0.18690  0.85420  Biso   1.000  C
  H104     1.0000 0.39230  0.14920  0.87980  Biso   1.000  H
  C155     1.0000 0.37680  0.28700  0.87890  Biso   1.000  C
  C156     1.0000 0.41010  0.33507  0.94860  Biso   1.000  C
  C157     1.0000 0.64910  0.06625  0.36130  Biso   1.000  C
  H105     1.0000 0.67370  0.10280  0.37870  Biso   1.000  H
  C158     1.0000 0.69200  0.01510  0.39600  Biso   1.000  C
  H106     1.0000 0.74480  0.01770  0.43680  Biso   1.000  H
  C159     1.0000 0.65850  0.96180  0.37140  Biso   1.000  C
  H107     1.0000 0.68750  0.92750  0.39530  Biso   1.000  H
  C160     1.0000 0.58010  0.95828  0.30990  Biso   1.000  C
  C161     1.0000 0.53790  0.90420  0.27880  Biso   1.000  C
  H108     1.0000 0.56370  0.86820  0.29900  Biso   1.000  H
  C162     1.0000 0.54040  0.01128  0.27950  Biso   1.000  C
  C163     1.0000 0.56780  0.12712  0.05220  Biso   1.000  C
  C164     1.0000 0.56570  0.06222  0.04720  Biso   1.000  C
  H109     1.0000 0.61220  0.04170  0.07290  Biso   1.000  H
  C165     1.0000 0.50170  0.03148  0.00850  Biso   1.000  C
  H110     1.0000 0.45550  0.05180  0.99080  Biso   1.000  H
  C166     1.0000 0.60550  0.23194  0.28680  Biso   1.000  C
  C167     1.0000 0.67360  0.26086  0.36740  Biso   1.000  C
  H111     1.0000 0.68710  0.29830  0.35100  Biso   1.000  H
  C168     1.0000 0.71630  0.23669  0.46100  Biso   1.000  C
  H112     1.0000 0.70180  0.19970  0.47770  Biso   1.000  H
  Cu8      1.0000 0.99585  0.73665  0.05696  Biso   1.000  Cu
  N22      1.0000 0.96740  0.82245  0.04490  Biso   1.000  N
  N23      1.0000 0.90514  0.73287  0.91590  Biso   1.000  N
  N24      1.0000 0.07436  0.56466  0.30450  Biso   1.000  N
  O29      1.0000 0.01142  0.65206  0.06520  Biso   1.000  O
  O30      1.0000 0.12055  0.65281  0.04070  Biso   1.000  O
  O31      1.0000 0.07906  0.75379  0.19370  Biso   1.000  O
  O32      1.0000 0.07967  0.68831  0.31850  Biso   1.000  O
  C169     1.0000 0.00110  0.86635  0.11110  Biso   1.000  C
  H113     1.0000 0.04170  0.85800  0.17750  Biso   1.000  H
  C170     1.0000 0.97870  0.92430  0.08590  Biso   1.000  C
  H114     1.0000 0.00330  0.95440  0.13530  Biso   1.000  H
  C171     1.0000 0.92130  0.93750  0.99010  Biso   1.000  C
  H115     1.0000 0.90600  0.97670  0.97310  Biso   1.000  H
  C172     1.0000 0.88470  0.89270  0.91650  Biso   1.000  C
  C173     1.0000 0.82400  0.90030  0.81340  Biso   1.000  C
  H116     1.0000 0.80580  0.93850  0.79110  Biso   1.000  H
  C174     1.0000 0.79210  0.85570  0.74740  Biso   1.000  C
  H117     1.0000 0.75260  0.86310  0.67960  Biso   1.000  H
  C175     1.0000 0.81670  0.79620  0.77740  Biso   1.000  C
  C176     1.0000 0.78620  0.74610  0.71440  Biso   1.000  C
  H118     1.0000 0.74680  0.75010  0.64530  Biso   1.000  H
  C177     1.0000 0.81330  0.69200  0.75270  Biso   1.000  C
  H119     1.0000 0.79180  0.65830  0.71140  Biso   1.000  H
  C178     1.0000 0.87350  0.68690  0.85420  Biso   1.000  C
  H120     1.0000 0.89230  0.64920  0.87980  Biso   1.000  H
  C179     1.0000 0.87680  0.78700  0.87890  Biso   1.000  C
  C180     1.0000 0.91010  0.83507  0.94860  Biso   1.000  C
  C181     1.0000 0.14910  0.56625  0.36130  Biso   1.000  C
  H121     1.0000 0.17370  0.60280  0.37870  Biso   1.000  H
  C182     1.0000 0.19200  0.51510  0.39600  Biso   1.000  C
  H122     1.0000 0.24480  0.51770  0.43680  Biso   1.000  H
  C183     1.0000 0.15850  0.46180  0.37140  Biso   1.000  C
  H123     1.0000 0.18750  0.42750  0.39530  Biso   1.000  H
  C184     1.0000 0.08010  0.45828  0.30990  Biso   1.000  C
  C185     1.0000 0.03790  0.40420  0.27880  Biso   1.000  C
  H124     1.0000 0.06370  0.36820  0.29900  Biso   1.000  H
  C186     1.0000 0.04040  0.51128  0.27950  Biso   1.000  C
  C187     1.0000 0.06780  0.62712  0.05220  Biso   1.000  C
  C188     1.0000 0.06570  0.56222  0.04720  Biso   1.000  C
  H125     1.0000 0.11220  0.54170  0.07290  Biso   1.000  H
  C189     1.0000 0.00170  0.53148  0.00850  Biso   1.000  C
  H126     1.0000 0.95550  0.55180  0.99080  Biso   1.000  H
  C190     1.0000 0.10550  0.73194  0.28680  Biso   1.000  C
  C191     1.0000 0.17360  0.76086  0.36740  Biso   1.000  C
  H127     1.0000 0.18710  0.79830  0.35100  Biso   1.000  H
  C192     1.0000 0.21630  0.73669  0.46100  Biso   1.000  C
  H128     1.0000 0.20180  0.69970  0.47770  Biso   1.000  H
  Cu9      1.0000 0.50000  0.86874  0.75000  Biso   1.000  Cu
  Cu10     1.0000 0.00000  0.36874  0.75000  Biso   1.000  Cu
  Cu11     1.0000 0.50000  0.13126  0.25000  Biso   1.000  Cu
  Cu12     1.0000 0.00000  0.63126  0.25000  Biso   1.000  Cu
