data_image0
_cell_length_a       16.0371
_cell_length_b       16.0371
_cell_length_c       16.0371
_cell_angle_alpha    109.471
_cell_angle_beta     109.471
_cell_angle_gamma    109.471

_symmetry_space_group_name_H-M    P 1
_symmetry_int_tables_number       1

loop_
  _symmetry_equiv_pos_as_xyz
  'x, y, z'

loop_
  _atom_site_label
  _atom_site_occupancy
  _atom_site_fract_x
  _atom_site_fract_y
  _atom_site_fract_z
  _atom_site_thermal_displace_type
  _atom_site_B_iso_or_equiv
  _atom_site_type_symbol
  Cd1      1.0000 0.37500  0.62500  0.75000  Biso   1.000  Cd
  Cd2      1.0000 0.12500  0.87500  0.25000  Biso   1.000  Cd
  Cd3      1.0000 0.75000  0.12500  0.37500  Biso   1.000  Cd
  Cd4      1.0000 0.25000  0.37500  0.12500  Biso   1.000  Cd
  Cd5      1.0000 0.62500  0.25000  0.87500  Biso   1.000  Cd
  Cd6      1.0000 0.87500  0.75000  0.62500  Biso   1.000  Cd
  Cd7      1.0000 0.16760  0.41760  0.75000  Biso   1.000  Cd
  Cd8      1.0000 0.33240  0.08240  0.25000  Biso   1.000  Cd
  Cd9      1.0000 0.75000  0.33240  0.58240  Biso   1.000  Cd
  Cd10     1.0000 0.25000  0.16760  0.91760  Biso   1.000  Cd
  Cd11     1.0000 0.41760  0.25000  0.66760  Biso   1.000  Cd
  Cd12     1.0000 0.08240  0.75000  0.83240  Biso   1.000  Cd
  Cd13     1.0000 0.91760  0.66760  0.25000  Biso   1.000  Cd
  Cd14     1.0000 0.58240  0.83240  0.75000  Biso   1.000  Cd
  Cd15     1.0000 0.66760  0.75000  0.41760  Biso   1.000  Cd
  Cd16     1.0000 0.83240  0.25000  0.08240  Biso   1.000  Cd
  Cd17     1.0000 0.25000  0.58240  0.33240  Biso   1.000  Cd
  Cd18     1.0000 0.75000  0.91760  0.16760  Biso   1.000  Cd
  C1       1.0000 0.34810  0.40530  0.71080  Biso   1.000  C
  C2       1.0000 0.44250  0.45620  0.70330  Biso   1.000  C
  C3       1.0000 0.19450  0.63730  0.78920  Biso   1.000  C
  C4       1.0000 0.25290  0.73920  0.79670  Biso   1.000  C
  C5       1.0000 0.30550  0.09470  0.44280  Biso   1.000  C
  C6       1.0000 0.24710  0.04380  0.48630  Biso   1.000  C
  C7       1.0000 0.15190  0.86270  0.05720  Biso   1.000  C
  C8       1.0000 0.05750  0.76080  0.01370  Biso   1.000  C
  C9       1.0000 0.94280  0.30550  0.59470  Biso   1.000  C
  C10      1.0000 0.98630  0.24710  0.54380  Biso   1.000  C
  C11      1.0000 0.55720  0.15190  0.36270  Biso   1.000  C
  C12      1.0000 0.51370  0.05750  0.26080  Biso   1.000  C
  C13      1.0000 0.21080  0.34810  0.90530  Biso   1.000  C
  C14      1.0000 0.20330  0.44250  0.95620  Biso   1.000  C
  C15      1.0000 0.28920  0.19450  0.13730  Biso   1.000  C
  C16      1.0000 0.29670  0.25290  0.23920  Biso   1.000  C
  C17      1.0000 0.63730  0.28920  0.69450  Biso   1.000  C
  C18      1.0000 0.73920  0.29670  0.75290  Biso   1.000  C
  C19      1.0000 0.40530  0.21080  0.84810  Biso   1.000  C
  C20      1.0000 0.45620  0.20330  0.94250  Biso   1.000  C
  C21      1.0000 0.86270  0.55720  0.65190  Biso   1.000  C
  C22      1.0000 0.76080  0.51370  0.55750  Biso   1.000  C
  C23      1.0000 0.09470  0.94280  0.80550  Biso   1.000  C
  C24      1.0000 0.04380  0.98630  0.74710  Biso   1.000  C
  C25      1.0000 0.13730  0.69450  0.28920  Biso   1.000  C
  C26      1.0000 0.23920  0.75290  0.29670  Biso   1.000  C
  C27      1.0000 0.90530  0.84810  0.21080  Biso   1.000  C
  C28      1.0000 0.95620  0.94250  0.20330  Biso   1.000  C
  C29      1.0000 0.36270  0.65190  0.55720  Biso   1.000  C
  C30      1.0000 0.26080  0.55750  0.51370  Biso   1.000  C
  C31      1.0000 0.59470  0.80550  0.94280  Biso   1.000  C
  C32      1.0000 0.54380  0.74710  0.98630  Biso   1.000  C
  C33      1.0000 0.84810  0.71080  0.40530  Biso   1.000  C
  C34      1.0000 0.94250  0.70330  0.45620  Biso   1.000  C
  C35      1.0000 0.69450  0.78920  0.63730  Biso   1.000  C
  C36      1.0000 0.75290  0.79670  0.73920  Biso   1.000  C
  C37      1.0000 0.80550  0.44280  0.09470  Biso   1.000  C
  C38      1.0000 0.74710  0.48630  0.04380  Biso   1.000  C
  C39      1.0000 0.65190  0.05720  0.86270  Biso   1.000  C
  C40      1.0000 0.55750  0.01370  0.76080  Biso   1.000  C
  C41      1.0000 0.44280  0.59470  0.30550  Biso   1.000  C
  C42      1.0000 0.48630  0.54380  0.24710  Biso   1.000  C
  C43      1.0000 0.05720  0.36270  0.15190  Biso   1.000  C
  C44      1.0000 0.01370  0.26080  0.05750  Biso   1.000  C
  C45      1.0000 0.71080  0.90530  0.34810  Biso   1.000  C
  C46      1.0000 0.70330  0.95620  0.44250  Biso   1.000  C
  C47      1.0000 0.78920  0.13730  0.19450  Biso   1.000  C
  C48      1.0000 0.79670  0.23920  0.25290  Biso   1.000  C
  O1       1.0000 0.30790  0.45850  0.73300  Biso   1.000  O
  O2       1.0000 0.47110  0.54560  0.71910  Biso   1.000  O
  O3       1.0000 0.48400  0.40410  0.68110  Biso   1.000  O
  O4       1.0000 0.31520  0.31450  0.69150  Biso   1.000  O
  O5       1.0000 0.22550  0.57490  0.76700  Biso   1.000  O
  O6       1.0000 0.32650  0.75200  0.78090  Biso   1.000  O
  O7       1.0000 0.22300  0.80290  0.81890  Biso   1.000  O
  O8       1.0000 0.12300  0.62370  0.80850  Biso   1.000  O
  O9       1.0000 0.27450  0.04150  0.34940  Biso   1.000  O
  O10      1.0000 0.17350  0.95440  0.42550  Biso   1.000  O
  O11      1.0000 0.27700  0.09590  0.57990  Biso   1.000  O
  O12      1.0000 0.37700  0.18550  0.50070  Biso   1.000  O
  O13      1.0000 0.19210  0.92510  0.15060  Biso   1.000  O
  O14      1.0000 0.02890  0.74800  0.07450  Biso   1.000  O
  O15      1.0000 0.01600  0.69710  0.92010  Biso   1.000  O
  O16      1.0000 0.18480  0.87630  0.99930  Biso   1.000  O
  O17      1.0000 0.84940  0.27450  0.54150  Biso   1.000  O
  O18      1.0000 0.92550  0.17350  0.45440  Biso   1.000  O
  O19      1.0000 0.07990  0.27700  0.59590  Biso   1.000  O
  O20      1.0000 0.00070  0.37700  0.68550  Biso   1.000  O
  O21      1.0000 0.65060  0.19210  0.42510  Biso   1.000  O
  O22      1.0000 0.57450  0.02890  0.24800  Biso   1.000  O
  O23      1.0000 0.42010  0.01600  0.19710  Biso   1.000  O
  O24      1.0000 0.49930  0.18480  0.37630  Biso   1.000  O
  O25      1.0000 0.23300  0.30790  0.95850  Biso   1.000  O
  O26      1.0000 0.21910  0.47110  0.04560  Biso   1.000  O
  O27      1.0000 0.18110  0.48400  0.90410  Biso   1.000  O
  O28      1.0000 0.19150  0.31520  0.81450  Biso   1.000  O
  O29      1.0000 0.26700  0.22550  0.07490  Biso   1.000  O
  O30      1.0000 0.28090  0.32650  0.25200  Biso   1.000  O
  O31      1.0000 0.31890  0.22300  0.30290  Biso   1.000  O
  O32      1.0000 0.30850  0.12300  0.12370  Biso   1.000  O
  O33      1.0000 0.57490  0.26700  0.72550  Biso   1.000  O
  O34      1.0000 0.75200  0.28090  0.82650  Biso   1.000  O
  O35      1.0000 0.80290  0.31890  0.72300  Biso   1.000  O
  O36      1.0000 0.62370  0.30850  0.62300  Biso   1.000  O
  O37      1.0000 0.45850  0.23300  0.80790  Biso   1.000  O
  O38      1.0000 0.54560  0.21910  0.97110  Biso   1.000  O
  O39      1.0000 0.40410  0.18110  0.98400  Biso   1.000  O
  O40      1.0000 0.31450  0.19150  0.81520  Biso   1.000  O
  O41      1.0000 0.92510  0.65060  0.69210  Biso   1.000  O
  O42      1.0000 0.74800  0.57450  0.52890  Biso   1.000  O
  O43      1.0000 0.69710  0.42010  0.51600  Biso   1.000  O
  O44      1.0000 0.87630  0.49930  0.68480  Biso   1.000  O
  O45      1.0000 0.04150  0.84940  0.77450  Biso   1.000  O
  O46      1.0000 0.95440  0.92550  0.67350  Biso   1.000  O
  O47      1.0000 0.09590  0.07990  0.77700  Biso   1.000  O
  O48      1.0000 0.18550  0.00070  0.87700  Biso   1.000  O
  O49      1.0000 0.07490  0.72550  0.26700  Biso   1.000  O
  O50      1.0000 0.25200  0.82650  0.28090  Biso   1.000  O
  O51      1.0000 0.30290  0.72300  0.31890  Biso   1.000  O
  O52      1.0000 0.12370  0.62300  0.30850  Biso   1.000  O
  O53      1.0000 0.95850  0.80790  0.23300  Biso   1.000  O
  O54      1.0000 0.04560  0.97110  0.21910  Biso   1.000  O
  O55      1.0000 0.90410  0.98400  0.18110  Biso   1.000  O
  O56      1.0000 0.81450  0.81520  0.19150  Biso   1.000  O
  O57      1.0000 0.42510  0.69210  0.65060  Biso   1.000  O
  O58      1.0000 0.24800  0.52890  0.57450  Biso   1.000  O
  O59      1.0000 0.19710  0.51600  0.42010  Biso   1.000  O
  O60      1.0000 0.37630  0.68480  0.49930  Biso   1.000  O
  O61      1.0000 0.54150  0.77450  0.84940  Biso   1.000  O
  O62      1.0000 0.45440  0.67350  0.92550  Biso   1.000  O
  O63      1.0000 0.59590  0.77700  0.07990  Biso   1.000  O
  O64      1.0000 0.68550  0.87700  0.00070  Biso   1.000  O
  O65      1.0000 0.80790  0.73300  0.45850  Biso   1.000  O
  O66      1.0000 0.97110  0.71910  0.54560  Biso   1.000  O
  O67      1.0000 0.98400  0.68110  0.40410  Biso   1.000  O
  O68      1.0000 0.81520  0.69150  0.31450  Biso   1.000  O
  O69      1.0000 0.72550  0.76700  0.57490  Biso   1.000  O
  O70      1.0000 0.82650  0.78090  0.75200  Biso   1.000  O
  O71      1.0000 0.72300  0.81890  0.80290  Biso   1.000  O
  O72      1.0000 0.62300  0.80850  0.62370  Biso   1.000  O
  O73      1.0000 0.77450  0.34940  0.04150  Biso   1.000  O
  O74      1.0000 0.67350  0.42550  0.95440  Biso   1.000  O
  O75      1.0000 0.77700  0.57990  0.09590  Biso   1.000  O
  O76      1.0000 0.87700  0.50070  0.18550  Biso   1.000  O
  O77      1.0000 0.69210  0.15060  0.92510  Biso   1.000  O
  O78      1.0000 0.52890  0.07450  0.74800  Biso   1.000  O
  O79      1.0000 0.51600  0.92010  0.69710  Biso   1.000  O
  O80      1.0000 0.68480  0.99930  0.87630  Biso   1.000  O
  O81      1.0000 0.34940  0.54150  0.27450  Biso   1.000  O
  O82      1.0000 0.42550  0.45440  0.17350  Biso   1.000  O
  O83      1.0000 0.57990  0.59590  0.27700  Biso   1.000  O
  O84      1.0000 0.50070  0.68550  0.37700  Biso   1.000  O
  O85      1.0000 0.15060  0.42510  0.19210  Biso   1.000  O
  O86      1.0000 0.07450  0.24800  0.02890  Biso   1.000  O
  O87      1.0000 0.92010  0.19710  0.01600  Biso   1.000  O
  O88      1.0000 0.99930  0.37630  0.18480  Biso   1.000  O
  O89      1.0000 0.73300  0.95850  0.30790  Biso   1.000  O
  O90      1.0000 0.71910  0.04560  0.47110  Biso   1.000  O
  O91      1.0000 0.68110  0.90410  0.48400  Biso   1.000  O
  O92      1.0000 0.69150  0.81450  0.31520  Biso   1.000  O
  O93      1.0000 0.76700  0.07490  0.22550  Biso   1.000  O
  O94      1.0000 0.78090  0.25200  0.32650  Biso   1.000  O
  O95      1.0000 0.81890  0.30290  0.22300  Biso   1.000  O
  O96      1.0000 0.80850  0.12370  0.12300  Biso   1.000  O
