data_image0
_cell_length_a       13.84
_cell_length_b       15.6527
_cell_length_c       20.3282
_cell_angle_alpha    73.3368
_cell_angle_beta     70.0979
_cell_angle_gamma    63.7624

_symmetry_space_group_name_H-M    P 1
_symmetry_int_tables_number       1

loop_
  _symmetry_equiv_pos_as_xyz
  'x, y, z'

loop_
  _atom_site_label
  _atom_site_occupancy
  _atom_site_fract_x
  _atom_site_fract_y
  _atom_site_fract_z
  _atom_site_thermal_displace_type
  _atom_site_B_iso_or_equiv
  _atom_site_type_symbol
  Co1      1.0000 0.02502  0.08519  0.50505  Biso   1.000  Co
  Co2      1.0000 0.76954  0.14544  0.55664  Biso   1.000  Co
  Co3      1.0000 0.61526  0.41481  0.99495  Biso   1.000  Co
  Co4      1.0000 0.47162  0.35456  0.94336  Biso   1.000  Co
  Co5      1.0000 0.97498  0.91481  0.49495  Biso   1.000  Co
  Co6      1.0000 0.23046  0.85456  0.44336  Biso   1.000  Co
  Co7      1.0000 0.38474  0.58519  0.00505  Biso   1.000  Co
  Co8      1.0000 0.52838  0.64544  0.05664  Biso   1.000  Co
  H1       1.0000 0.65920  0.18710  0.44030  Biso   1.000  H
  H2       1.0000 0.50700  0.17980  0.42520  Biso   1.000  H
  H3       1.0000 0.39470  0.13490  0.63670  Biso   1.000  H
  H4       1.0000 0.55290  0.13860  0.64620  Biso   1.000  H
  H5       1.0000 0.23350  0.17310  0.61830  Biso   1.000  H
  H6       1.0000 0.09220  0.14350  0.60770  Biso   1.000  H
  H7       1.0000 0.25910  0.07070  0.42110  Biso   1.000  H
  H8       1.0000 0.40610  0.09810  0.42590  Biso   1.000  H
  H9       1.0000 0.18000  0.21560  0.30780  Biso   1.000  H
  H10      1.0000 0.23630  0.32440  0.21680  Biso   1.000  H
  H11      1.0000 0.10760  0.44960  0.16020  Biso   1.000  H
  H12      1.0000 0.92690  0.46320  0.19160  Biso   1.000  H
  H13      1.0000 0.44780  0.38530  0.38870  Biso   1.000  H
  H14      1.0000 0.28050  0.36840  0.41640  Biso   1.000  H
  H15      1.0000 0.18030  0.42170  0.33070  Biso   1.000  H
  H16      1.0000 0.24440  0.49910  0.22130  Biso   1.000  H
  H17      1.0000 0.00600  0.36130  0.46550  Biso   1.000  H
  H18      1.0000 0.00780  0.51380  0.41580  Biso   1.000  H
  H19      1.0000 0.84400  0.64220  0.40520  Biso   1.000  H
  H20      1.0000 0.68080  0.62020  0.43720  Biso   1.000  H
  H21      1.0000 0.81200  0.32240  0.33140  Biso   1.000  H
  H22      1.0000 0.57180  0.48840  0.22940  Biso   1.000  H
  H23      1.0000 0.64810  0.40380  0.51300  Biso   1.000  H
  H24      1.0000 0.28660  0.31290  0.05970  Biso   1.000  H
  H25      1.0000 0.11200  0.32020  0.07480  Biso   1.000  H
  H26      1.0000 0.16630  0.36510  0.86330  Biso   1.000  H
  H27      1.0000 0.33770  0.36140  0.85380  Biso   1.000  H
  H28      1.0000 0.02490  0.32690  0.88170  Biso   1.000  H
  H29      1.0000 0.84340  0.35650  0.89230  Biso   1.000  H
  H30      1.0000 0.75090  0.42930  0.07890  Biso   1.000  H
  H31      1.0000 0.93010  0.40190  0.07410  Biso   1.000  H
  H32      1.0000 0.70340  0.28440  0.19220  Biso   1.000  H
  H33      1.0000 0.77750  0.17560  0.28320  Biso   1.000  H
  H34      1.0000 0.71740  0.05040  0.33980  Biso   1.000  H
  H35      1.0000 0.58170  0.03680  0.30840  Biso   1.000  H
  H36      1.0000 0.22180  0.11470  0.11130  Biso   1.000  H
  H37      1.0000 0.06530  0.13160  0.08360  Biso   1.000  H
  H38      1.0000 0.93270  0.07830  0.16930  Biso   1.000  H
  H39      1.0000 0.96480  0.00090  0.27870  Biso   1.000  H
  H40      1.0000 0.83280  0.13870  0.03450  Biso   1.000  H
  H41      1.0000 0.93740  0.98620  0.08420  Biso   1.000  H
  H42      1.0000 0.89140  0.85780  0.09480  Biso   1.000  H
  H43      1.0000 0.73820  0.87980  0.06280  Biso   1.000  H
  H44      1.0000 0.46580  0.17760  0.16860  Biso   1.000  H
  H45      1.0000 0.28960  0.01160  0.27060  Biso   1.000  H
  H46      1.0000 0.56490  0.09620  0.98700  Biso   1.000  H
  H47      1.0000 0.34080  0.81290  0.55970  Biso   1.000  H
  H48      1.0000 0.49300  0.82020  0.57480  Biso   1.000  H
  H49      1.0000 0.60530  0.86510  0.36330  Biso   1.000  H
  H50      1.0000 0.44710  0.86140  0.35380  Biso   1.000  H
  H51      1.0000 0.76650  0.82690  0.38170  Biso   1.000  H
  H52      1.0000 0.90780  0.85650  0.39230  Biso   1.000  H
  H53      1.0000 0.74090  0.92930  0.57890  Biso   1.000  H
  H54      1.0000 0.59390  0.90190  0.57410  Biso   1.000  H
  H55      1.0000 0.82000  0.78440  0.69220  Biso   1.000  H
  H56      1.0000 0.76370  0.67560  0.78320  Biso   1.000  H
  H57      1.0000 0.89240  0.55040  0.83980  Biso   1.000  H
  H58      1.0000 0.07310  0.53680  0.80840  Biso   1.000  H
  H59      1.0000 0.55220  0.61470  0.61130  Biso   1.000  H
  H60      1.0000 0.71950  0.63160  0.58360  Biso   1.000  H
  H61      1.0000 0.81970  0.57830  0.66930  Biso   1.000  H
  H62      1.0000 0.75560  0.50090  0.77870  Biso   1.000  H
  H63      1.0000 0.99400  0.63870  0.53450  Biso   1.000  H
  H64      1.0000 0.99220  0.48620  0.58420  Biso   1.000  H
  H65      1.0000 0.15600  0.35780  0.59480  Biso   1.000  H
  H66      1.0000 0.31920  0.37980  0.56280  Biso   1.000  H
  H67      1.0000 0.18800  0.67760  0.66860  Biso   1.000  H
  H68      1.0000 0.42820  0.51160  0.77060  Biso   1.000  H
  H69      1.0000 0.35190  0.59620  0.48700  Biso   1.000  H
  H70      1.0000 0.71340  0.68710  0.94030  Biso   1.000  H
  H71      1.0000 0.88800  0.67980  0.92520  Biso   1.000  H
  H72      1.0000 0.83370  0.63490  0.13670  Biso   1.000  H
  H73      1.0000 0.66230  0.63860  0.14620  Biso   1.000  H
  H74      1.0000 0.97510  0.67310  0.11830  Biso   1.000  H
  H75      1.0000 0.15660  0.64350  0.10770  Biso   1.000  H
  H76      1.0000 0.24910  0.57070  0.92110  Biso   1.000  H
  H77      1.0000 0.06990  0.59810  0.92590  Biso   1.000  H
  H78      1.0000 0.29660  0.71560  0.80780  Biso   1.000  H
  H79      1.0000 0.22250  0.82440  0.71680  Biso   1.000  H
  H80      1.0000 0.28260  0.94960  0.66020  Biso   1.000  H
  H81      1.0000 0.41830  0.96320  0.69160  Biso   1.000  H
  H82      1.0000 0.77820  0.88530  0.88870  Biso   1.000  H
  H83      1.0000 0.93470  0.86840  0.91640  Biso   1.000  H
  H84      1.0000 0.06730  0.92170  0.83070  Biso   1.000  H
  H85      1.0000 0.03520  0.99910  0.72130  Biso   1.000  H
  H86      1.0000 0.16720  0.86130  0.96550  Biso   1.000  H
  H87      1.0000 0.06260  0.01380  0.91580  Biso   1.000  H
  H88      1.0000 0.10860  0.14220  0.90520  Biso   1.000  H
  H89      1.0000 0.26180  0.12020  0.93720  Biso   1.000  H
  H90      1.0000 0.53420  0.82240  0.83140  Biso   1.000  H
  H91      1.0000 0.71040  0.98840  0.72940  Biso   1.000  H
  H92      1.0000 0.43510  0.90380  0.01300  Biso   1.000  H
  C1       1.0000 0.60644  0.17412  0.48020  Biso   1.000  C
  C2       1.0000 0.51505  0.17020  0.47070  Biso   1.000  C
  C3       1.0000 0.43422  0.15174  0.52962  Biso   1.000  C
  C4       1.0000 0.44894  0.14294  0.59598  Biso   1.000  C
  C5       1.0000 0.54382  0.14626  0.60130  Biso   1.000  C
  C6       1.0000 0.33874  0.13783  0.52309  Biso   1.000  C
  C7       1.0000 0.24106  0.15178  0.57790  Biso   1.000  C
  C8       1.0000 0.15652  0.13376  0.57100  Biso   1.000  C
  C9       1.0000 0.25464  0.09092  0.46120  Biso   1.000  C
  C10      1.0000 0.34346  0.10738  0.46370  Biso   1.000  C
  C11      1.0000 0.98970  0.19519  0.36321  Biso   1.000  C
  C12      1.0000 0.01967  0.27062  0.30444  Biso   1.000  C
  C13      1.0000 0.12852  0.26486  0.28430  Biso   1.000  C
  C14      1.0000 0.16250  0.33040  0.23020  Biso   1.000  C
  C15      1.0000 0.08570  0.40480  0.19620  Biso   1.000  C
  C16      1.0000 0.97750  0.41290  0.21510  Biso   1.000  C
  C17      1.0000 0.94193  0.34674  0.26920  Biso   1.000  C
  C18      1.0000 0.74723  0.41314  0.26000  Biso   1.000  C
  C19      1.0000 0.63692  0.40356  0.30340  Biso   1.000  C
  C20      1.0000 0.45040  0.44810  0.28690  Biso   1.000  C
  C21      1.0000 0.40810  0.40680  0.35440  Biso   1.000  C
  C22      1.0000 0.30760  0.39710  0.37110  Biso   1.000  C
  C23      1.0000 0.24670  0.43020  0.32020  Biso   1.000  C
  C24      1.0000 0.28630  0.47520  0.25460  Biso   1.000  C
  C25      1.0000 0.38673  0.48641  0.23613  Biso   1.000  C
  C26      1.0000 0.41809  0.54055  0.16387  Biso   1.000  C
  C27      1.0000 0.84901  0.29608  0.51030  Biso   1.000  C
  C28      1.0000 0.84085  0.39740  0.48130  Biso   1.000  C
  C29      1.0000 0.94000  0.41310  0.45990  Biso   1.000  C
  C30      1.0000 0.94130  0.50440  0.43060  Biso   1.000  C
  C31      1.0000 0.84360  0.58060  0.42360  Biso   1.000  C
  C32      1.0000 0.74580  0.56780  0.44320  Biso   1.000  C
  C33      1.0000 0.74236  0.47668  0.47220  Biso   1.000  C
  C34      1.0000 0.54181  0.52448  0.48550  Biso   1.000  C
  C35      1.0000 0.26076  0.32588  0.01980  Biso   1.000  C
  C36      1.0000 0.15595  0.32980  0.02930  Biso   1.000  C
  C37      1.0000 0.11558  0.34826  0.97038  Biso   1.000  C
  C38      1.0000 0.18786  0.35706  0.90402  Biso   1.000  C
  C39      1.0000 0.29138  0.35374  0.89870  Biso   1.000  C
  C40      1.0000 0.99966  0.36217  0.97691  Biso   1.000  C
  C41      1.0000 0.97074  0.34822  0.92210  Biso   1.000  C
  C42      1.0000 0.86128  0.36624  0.92900  Biso   1.000  C
  C43      1.0000 0.80676  0.40908  0.03880  Biso   1.000  C
  C44      1.0000 0.91454  0.39262  0.03630  Biso   1.000  C
  C45      1.0000 0.54810  0.30481  0.13679  Biso   1.000  C
  C46      1.0000 0.59473  0.22938  0.19556  Biso   1.000  C
  C47      1.0000 0.67768  0.23514  0.21570  Biso   1.000  C
  C48      1.0000 0.72310  0.16960  0.26980  Biso   1.000  C
  C49      1.0000 0.68670  0.09520  0.30380  Biso   1.000  C
  C50      1.0000 0.60550  0.08710  0.28490  Biso   1.000  C
  C51      1.0000 0.55787  0.15326  0.23080  Biso   1.000  C
  C52      1.0000 0.42037  0.08686  0.24000  Biso   1.000  C
  C53      1.0000 0.34388  0.09644  0.19660  Biso   1.000  C
  C54      1.0000 0.18540  0.05190  0.21310  Biso   1.000  C
  C55      1.0000 0.16930  0.09320  0.14560  Biso   1.000  C
  C56      1.0000 0.07580  0.10290  0.12890  Biso   1.000  C
  C57      1.0000 0.99710  0.06980  0.17980  Biso   1.000  C
  C58      1.0000 0.01610  0.02480  0.24540  Biso   1.000  C
  C59      1.0000 0.10927  0.01359  0.26387  Biso   1.000  C
  C60      1.0000 0.12251  0.95945  0.33613  Biso   1.000  C
  C61      1.0000 0.65539  0.20392  0.98970  Biso   1.000  C
  C62      1.0000 0.71955  0.10260  0.01870  Biso   1.000  C
  C63      1.0000 0.81300  0.08690  0.04010  Biso   1.000  C
  C64      1.0000 0.87630  0.99560  0.06940  Biso   1.000  C
  C65      1.0000 0.84780  0.91940  0.07640  Biso   1.000  C
  C66      1.0000 0.75680  0.93220  0.05680  Biso   1.000  C
  C67      1.0000 0.69124  0.02332  0.02780  Biso   1.000  C
  C68      1.0000 0.55179  0.97552  0.01450  Biso   1.000  C
  C69      1.0000 0.39356  0.82588  0.51980  Biso   1.000  C
  C70      1.0000 0.48495  0.82980  0.52930  Biso   1.000  C
  C71      1.0000 0.56578  0.84826  0.47038  Biso   1.000  C
  C72      1.0000 0.55106  0.85706  0.40402  Biso   1.000  C
  C73      1.0000 0.45618  0.85374  0.39870  Biso   1.000  C
  C74      1.0000 0.66126  0.86217  0.47691  Biso   1.000  C
  C75      1.0000 0.75894  0.84822  0.42210  Biso   1.000  C
  C76      1.0000 0.84348  0.86624  0.42900  Biso   1.000  C
  C77      1.0000 0.74536  0.90908  0.53880  Biso   1.000  C
  C78      1.0000 0.65654  0.89262  0.53630  Biso   1.000  C
  C79      1.0000 0.01030  0.80481  0.63679  Biso   1.000  C
  C80      1.0000 0.98033  0.72938  0.69556  Biso   1.000  C
  C81      1.0000 0.87148  0.73514  0.71570  Biso   1.000  C
  C82      1.0000 0.83750  0.66960  0.76980  Biso   1.000  C
  C83      1.0000 0.91430  0.59520  0.80380  Biso   1.000  C
  C84      1.0000 0.02250  0.58710  0.78490  Biso   1.000  C
  C85      1.0000 0.05807  0.65326  0.73080  Biso   1.000  C
  C86      1.0000 0.25277  0.58686  0.74000  Biso   1.000  C
  C87      1.0000 0.36308  0.59644  0.69660  Biso   1.000  C
  C88      1.0000 0.54960  0.55190  0.71310  Biso   1.000  C
  C89      1.0000 0.59190  0.59320  0.64560  Biso   1.000  C
  C90      1.0000 0.69240  0.60290  0.62890  Biso   1.000  C
  C91      1.0000 0.75330  0.56980  0.67980  Biso   1.000  C
  C92      1.0000 0.71370  0.52480  0.74540  Biso   1.000  C
  C93      1.0000 0.61327  0.51359  0.76387  Biso   1.000  C
  C94      1.0000 0.58191  0.45945  0.83613  Biso   1.000  C
  C95      1.0000 0.15099  0.70392  0.48970  Biso   1.000  C
  C96      1.0000 0.15915  0.60260  0.51870  Biso   1.000  C
  C97      1.0000 0.06000  0.58690  0.54010  Biso   1.000  C
  C98      1.0000 0.05870  0.49560  0.56940  Biso   1.000  C
  C99      1.0000 0.15640  0.41940  0.57640  Biso   1.000  C
  C100     1.0000 0.25420  0.43220  0.55680  Biso   1.000  C
  C101     1.0000 0.25764  0.52332  0.52780  Biso   1.000  C
  C102     1.0000 0.45819  0.47552  0.51450  Biso   1.000  C
  C103     1.0000 0.73924  0.67412  0.98020  Biso   1.000  C
  C104     1.0000 0.84405  0.67020  0.97070  Biso   1.000  C
  C105     1.0000 0.88442  0.65174  0.02962  Biso   1.000  C
  C106     1.0000 0.81214  0.64294  0.09598  Biso   1.000  C
  C107     1.0000 0.70862  0.64626  0.10130  Biso   1.000  C
  C108     1.0000 0.00034  0.63783  0.02309  Biso   1.000  C
  C109     1.0000 0.02926  0.65178  0.07790  Biso   1.000  C
  C110     1.0000 0.13872  0.63376  0.07100  Biso   1.000  C
  C111     1.0000 0.19324  0.59092  0.96120  Biso   1.000  C
  C112     1.0000 0.08546  0.60738  0.96370  Biso   1.000  C
  C113     1.0000 0.45190  0.69519  0.86321  Biso   1.000  C
  C114     1.0000 0.40527  0.77062  0.80444  Biso   1.000  C
  C115     1.0000 0.32232  0.76486  0.78430  Biso   1.000  C
  C116     1.0000 0.27690  0.83040  0.73020  Biso   1.000  C
  C117     1.0000 0.31330  0.90480  0.69620  Biso   1.000  C
  C118     1.0000 0.39450  0.91290  0.71510  Biso   1.000  C
  C119     1.0000 0.44213  0.84674  0.76920  Biso   1.000  C
  C120     1.0000 0.57963  0.91314  0.76000  Biso   1.000  C
  C121     1.0000 0.65612  0.90356  0.80340  Biso   1.000  C
  C122     1.0000 0.81460  0.94810  0.78690  Biso   1.000  C
  C123     1.0000 0.83070  0.90680  0.85440  Biso   1.000  C
  C124     1.0000 0.92420  0.89710  0.87110  Biso   1.000  C
  C125     1.0000 0.00290  0.93020  0.82020  Biso   1.000  C
  C126     1.0000 0.98390  0.97520  0.75460  Biso   1.000  C
  C127     1.0000 0.89073  0.98641  0.73613  Biso   1.000  C
  C128     1.0000 0.87749  0.04055  0.66387  Biso   1.000  C
  C129     1.0000 0.34461  0.79608  0.01030  Biso   1.000  C
  C130     1.0000 0.28045  0.89740  0.98130  Biso   1.000  C
  C131     1.0000 0.18700  0.91310  0.95990  Biso   1.000  C
  C132     1.0000 0.12370  0.00440  0.93060  Biso   1.000  C
  C133     1.0000 0.15220  0.08060  0.92360  Biso   1.000  C
  C134     1.0000 0.24320  0.06780  0.94320  Biso   1.000  C
  C135     1.0000 0.30876  0.97668  0.97220  Biso   1.000  C
  C136     1.0000 0.44821  0.02448  0.98550  Biso   1.000  C
  N1       1.0000 0.62331  0.16001  0.54453  Biso   1.000  N
  N2       1.0000 0.16189  0.10300  0.51454  Biso   1.000  N
  N3       1.0000 0.82983  0.35710  0.29164  Biso   1.000  N
  N4       1.0000 0.55637  0.45120  0.26826  Biso   1.000  N
  N5       1.0000 0.64340  0.46130  0.49290  Biso   1.000  N
  N6       1.0000 0.32785  0.33999  0.95547  Biso   1.000  N
  N7       1.0000 0.77943  0.39700  0.98546  Biso   1.000  N
  N8       1.0000 0.47857  0.14290  0.20836  Biso   1.000  N
  N9       1.0000 0.27583  0.04880  0.23174  Biso   1.000  N
  N10      1.0000 0.59760  0.03870  0.00710  Biso   1.000  N
  N11      1.0000 0.37669  0.83999  0.45547  Biso   1.000  N
  N12      1.0000 0.83811  0.89700  0.48546  Biso   1.000  N
  N13      1.0000 0.17017  0.64290  0.70836  Biso   1.000  N
  N14      1.0000 0.44363  0.54880  0.73174  Biso   1.000  N
  N15      1.0000 0.35660  0.53870  0.50710  Biso   1.000  N
  N16      1.0000 0.67215  0.66001  0.04453  Biso   1.000  N
  N17      1.0000 0.22057  0.60300  0.01454  Biso   1.000  N
  N18      1.0000 0.52143  0.85710  0.79164  Biso   1.000  N
  N19      1.0000 0.72417  0.95120  0.76826  Biso   1.000  N
  N20      1.0000 0.40240  0.96130  0.99290  Biso   1.000  N
  O1       1.0000 0.10712  0.93759  0.50687  Biso   1.000  O
  O2       1.0000 0.06497  0.13563  0.39473  Biso   1.000  O
  O3       1.0000 0.89413  0.19505  0.37821  Biso   1.000  O
  O4       1.0000 0.49495  0.57172  0.15156  Biso   1.000  O
  O5       1.0000 0.36605  0.55550  0.11912  Biso   1.000  O
  O6       1.0000 0.62883  0.35692  0.36302  Biso   1.000  O
  O7       1.0000 0.75412  0.46434  0.20202  Biso   1.000  O
  O8       1.0000 0.75991  0.27939  0.53071  Biso   1.000  O
  O9       1.0000 0.94216  0.23248  0.51352  Biso   1.000  O
  O10      1.0000 0.51457  0.60976  0.46030  Biso   1.000  O
  O11      1.0000 0.55158  0.56241  0.99313  Biso   1.000  O
  O12      1.0000 0.59533  0.36437  0.10527  Biso   1.000  O
  O13      1.0000 0.46739  0.30495  0.12179  Biso   1.000  O
  O14      1.0000 0.21823  0.92828  0.34844  Biso   1.000  O
  O15      1.0000 0.04067  0.94450  0.38088  Biso   1.000  O
  O16      1.0000 0.34877  0.14308  0.13698  Biso   1.000  O
  O17      1.0000 0.42048  0.03566  0.29798  Biso   1.000  O
  O18      1.0000 0.57001  0.22061  0.96929  Biso   1.000  O
  O19      1.0000 0.68816  0.26752  0.98648  Biso   1.000  O
  O20      1.0000 0.58463  0.89024  0.03970  Biso   1.000  O
  O21      1.0000 0.89288  0.06241  0.49313  Biso   1.000  O
  O22      1.0000 0.93503  0.86437  0.60527  Biso   1.000  O
  O23      1.0000 0.10587  0.80495  0.62179  Biso   1.000  O
  O24      1.0000 0.50505  0.42828  0.84844  Biso   1.000  O
  O25      1.0000 0.63395  0.44450  0.88088  Biso   1.000  O
  O26      1.0000 0.37117  0.64308  0.63698  Biso   1.000  O
  O27      1.0000 0.24588  0.53566  0.79798  Biso   1.000  O
  O28      1.0000 0.24009  0.72061  0.46929  Biso   1.000  O
  O29      1.0000 0.05784  0.76752  0.48648  Biso   1.000  O
  O30      1.0000 0.48543  0.39024  0.53970  Biso   1.000  O
  O31      1.0000 0.44842  0.43759  0.00687  Biso   1.000  O
  O32      1.0000 0.40467  0.63563  0.89473  Biso   1.000  O
  O33      1.0000 0.53261  0.69505  0.87821  Biso   1.000  O
  O34      1.0000 0.78177  0.07172  0.65156  Biso   1.000  O
  O35      1.0000 0.95933  0.05550  0.61912  Biso   1.000  O
  O36      1.0000 0.65123  0.85692  0.86302  Biso   1.000  O
  O37      1.0000 0.57952  0.96434  0.70202  Biso   1.000  O
  O38      1.0000 0.42999  0.77939  0.03071  Biso   1.000  O
  O39      1.0000 0.31184  0.73248  0.01352  Biso   1.000  O
  O40      1.0000 0.41537  0.10976  0.96030  Biso   1.000  O
