data_image0
_cell_length_a       16.2387
_cell_length_b       9.3708
_cell_length_c       10.5007
_cell_angle_alpha    90
_cell_angle_beta     93.898
_cell_angle_gamma    90

_symmetry_space_group_name_H-M    "P 1"
_symmetry_int_tables_number       1

loop_
  _symmetry_equiv_pos_as_xyz
  'x, y, z'

loop_
  _atom_site_label
  _atom_site_occupancy
  _atom_site_fract_x
  _atom_site_fract_y
  _atom_site_fract_z
  _atom_site_thermal_displace_type
  _atom_site_B_iso_or_equiv
  _atom_site_type_symbol
  Zn1      1.0000 0.04748  0.42901  0.83836  Biso   1.000  Zn
  Zn2      1.0000 0.41487  0.62609  0.86153  Biso   1.000  Zn
  P1       1.0000 0.93842  0.70717  0.88843  Biso   1.000  P
  P2       1.0000 0.24612  0.47725  0.88173  Biso   1.000  P
  P3       1.0000 0.46048  0.61325  0.15908  Biso   1.000  P
  O1       1.0000 0.84067  0.71930  0.86390  Biso   1.000  O
  H1       1.0000 0.81830  0.67240  0.91780  Biso   1.000  H
  O2       1.0000 0.96141  0.56760  0.82980  Biso   1.000  O
  O3       1.0000 0.97109  0.83680  0.82423  Biso   1.000  O
  O4       1.0000 0.96088  0.71280  0.03032  Biso   1.000  O
  O5       1.0000 0.15615  0.51400  0.86670  Biso   1.000  O
  O6       1.0000 0.27016  0.39960  0.00590  Biso   1.000  O
  O7       1.0000 0.26852  0.37440  0.76940  Biso   1.000  O
  H2       1.0000 0.22650  0.33510  0.73920  Biso   1.000  H
  O8       1.0000 0.29864  0.60970  0.87070  Biso   1.000  O
  O9       1.0000 0.42981  0.71320  0.25450  Biso   1.000  O
  O10      1.0000 0.54253  0.54950  0.20740  Biso   1.000  O
  O11      1.0000 0.46479  0.68180  0.02846  Biso   1.000  O
  O12      1.0000 0.40062  0.48040  0.14660  Biso   1.000  O
  H3       1.0000 0.42110  0.41850  0.10350  Biso   1.000  H
  Zn3      1.0000 0.95252  0.92901  0.66164  Biso   1.000  Zn
  Zn4      1.0000 0.58513  0.12609  0.63847  Biso   1.000  Zn
  P4       1.0000 0.06158  0.20717  0.61157  Biso   1.000  P
  P5       1.0000 0.75388  0.97725  0.61827  Biso   1.000  P
  P6       1.0000 0.53952  0.11325  0.34092  Biso   1.000  P
  O13      1.0000 0.15933  0.21930  0.63610  Biso   1.000  O
  H4       1.0000 0.18170  0.17240  0.58220  Biso   1.000  H
  O14      1.0000 0.03859  0.06760  0.67020  Biso   1.000  O
  O15      1.0000 0.02891  0.33680  0.67577  Biso   1.000  O
  O16      1.0000 0.03912  0.21280  0.46968  Biso   1.000  O
  O17      1.0000 0.84385  0.01400  0.63330  Biso   1.000  O
  O18      1.0000 0.72984  0.89960  0.49410  Biso   1.000  O
  O19      1.0000 0.73148  0.87440  0.73060  Biso   1.000  O
  H5       1.0000 0.77350  0.83510  0.76080  Biso   1.000  H
  O20      1.0000 0.70136  0.10970  0.62930  Biso   1.000  O
  O21      1.0000 0.57019  0.21320  0.24550  Biso   1.000  O
  O22      1.0000 0.45747  0.04950  0.29260  Biso   1.000  O
  O23      1.0000 0.53521  0.18180  0.47154  Biso   1.000  O
  O24      1.0000 0.59938  0.98040  0.35340  Biso   1.000  O
  H6       1.0000 0.57890  0.91850  0.39650  Biso   1.000  H
  Zn5      1.0000 0.95252  0.57099  0.16164  Biso   1.000  Zn
  Zn6      1.0000 0.58513  0.37391  0.13847  Biso   1.000  Zn
  P7       1.0000 0.06158  0.29283  0.11157  Biso   1.000  P
  P8       1.0000 0.75388  0.52275  0.11827  Biso   1.000  P
  P9       1.0000 0.53952  0.38675  0.84092  Biso   1.000  P
  O25      1.0000 0.15933  0.28070  0.13610  Biso   1.000  O
  H7       1.0000 0.18170  0.32760  0.08220  Biso   1.000  H
  O26      1.0000 0.03859  0.43240  0.17020  Biso   1.000  O
  O27      1.0000 0.02891  0.16320  0.17577  Biso   1.000  O
  O28      1.0000 0.03912  0.28720  0.96968  Biso   1.000  O
  O29      1.0000 0.84385  0.48600  0.13330  Biso   1.000  O
  O30      1.0000 0.72984  0.60040  0.99410  Biso   1.000  O
  O31      1.0000 0.73148  0.62560  0.23060  Biso   1.000  O
  H8       1.0000 0.77350  0.66490  0.26080  Biso   1.000  H
  O32      1.0000 0.70136  0.39030  0.12930  Biso   1.000  O
  O33      1.0000 0.57019  0.28680  0.74550  Biso   1.000  O
  O34      1.0000 0.45747  0.45050  0.79260  Biso   1.000  O
  O35      1.0000 0.53521  0.31820  0.97154  Biso   1.000  O
  O36      1.0000 0.59938  0.51960  0.85340  Biso   1.000  O
  H9       1.0000 0.57890  0.58150  0.89650  Biso   1.000  H
  Zn7      1.0000 0.04748  0.07099  0.33836  Biso   1.000  Zn
  Zn8      1.0000 0.41487  0.87391  0.36153  Biso   1.000  Zn
  P10      1.0000 0.93842  0.79283  0.38843  Biso   1.000  P
  P11      1.0000 0.24612  0.02275  0.38173  Biso   1.000  P
  P12      1.0000 0.46048  0.88675  0.65908  Biso   1.000  P
  O37      1.0000 0.84067  0.78070  0.36390  Biso   1.000  O
  H10      1.0000 0.81830  0.82760  0.41780  Biso   1.000  H
  O38      1.0000 0.96141  0.93240  0.32980  Biso   1.000  O
  O39      1.0000 0.97109  0.66320  0.32423  Biso   1.000  O
  O40      1.0000 0.96088  0.78720  0.53032  Biso   1.000  O
  O41      1.0000 0.15615  0.98600  0.36670  Biso   1.000  O
  O42      1.0000 0.27016  0.10040  0.50590  Biso   1.000  O
  O43      1.0000 0.26852  0.12560  0.26940  Biso   1.000  O
  H11      1.0000 0.22650  0.16490  0.23920  Biso   1.000  H
  O44      1.0000 0.29864  0.89030  0.37070  Biso   1.000  O
  O45      1.0000 0.42981  0.78680  0.75450  Biso   1.000  O
  O46      1.0000 0.54253  0.95050  0.70740  Biso   1.000  O
  O47      1.0000 0.46479  0.81820  0.52846  Biso   1.000  O
  O48      1.0000 0.40062  0.01960  0.64660  Biso   1.000  O
  H12      1.0000 0.42110  0.08150  0.60350  Biso   1.000  H
