data_image0
_cell_length_a       16.2045
_cell_length_b       17.6022
_cell_length_c       17.9025
_cell_angle_alpha    90
_cell_angle_beta     90
_cell_angle_gamma    90

_symmetry_space_group_name_H-M    P 1
_symmetry_int_tables_number       1

loop_
  _symmetry_equiv_pos_as_xyz
  'x, y, z'

loop_
  _atom_site_label
  _atom_site_occupancy
  _atom_site_fract_x
  _atom_site_fract_y
  _atom_site_fract_z
  _atom_site_thermal_displace_type
  _atom_site_B_iso_or_equiv
  _atom_site_type_symbol
  Zn1      1.0000 0.27479  0.89917  0.61703  Biso   1.000  Zn
  Zn2      1.0000 0.77479  0.60083  0.38297  Biso   1.000  Zn
  Zn3      1.0000 0.77479  0.39917  0.88297  Biso   1.000  Zn
  Zn4      1.0000 0.27479  0.10083  0.11703  Biso   1.000  Zn
  H1       1.0000 0.28670  0.07560  0.57850  Biso   1.000  H
  H2       1.0000 0.15000  0.00860  0.19500  Biso   1.000  H
  H3       1.0000 0.22520  0.85220  0.44530  Biso   1.000  H
  H4       1.0000 0.32150  0.85130  0.45350  Biso   1.000  H
  H5       1.0000 0.28100  0.87790  0.37840  Biso   1.000  H
  H6       1.0000 0.26160  0.19000  0.51080  Biso   1.000  H
  H7       1.0000 0.20930  0.17880  0.43790  Biso   1.000  H
  H8       1.0000 0.30570  0.18480  0.43300  Biso   1.000  H
  H9       1.0000 0.09600  0.91360  0.30870  Biso   1.000  H
  H10      1.0000 0.05140  0.99220  0.31700  Biso   1.000  H
  H11      1.0000 0.10270  0.95900  0.38370  Biso   1.000  H
  H12      1.0000 0.40930  0.09100  0.25300  Biso   1.000  H
  H13      1.0000 0.39630  0.09470  0.33970  Biso   1.000  H
  H14      1.0000 0.36220  0.15980  0.28870  Biso   1.000  H
  H15      1.0000 0.08400  0.73900  0.55210  Biso   1.000  H
  H16      1.0000 0.98970  0.67830  0.47610  Biso   1.000  H
  H17      1.0000 0.89600  0.87880  0.41530  Biso   1.000  H
  H18      1.0000 0.98500  0.93920  0.49640  Biso   1.000  H
  H19      1.0000 0.78670  0.42440  0.42150  Biso   1.000  H
  H20      1.0000 0.65000  0.49140  0.80500  Biso   1.000  H
  H21      1.0000 0.72520  0.64780  0.55470  Biso   1.000  H
  H22      1.0000 0.82150  0.64870  0.54650  Biso   1.000  H
  H23      1.0000 0.78100  0.62210  0.62160  Biso   1.000  H
  H24      1.0000 0.76160  0.31000  0.48920  Biso   1.000  H
  H25      1.0000 0.70930  0.32120  0.56210  Biso   1.000  H
  H26      1.0000 0.80570  0.31520  0.56700  Biso   1.000  H
  H27      1.0000 0.59600  0.58640  0.69130  Biso   1.000  H
  H28      1.0000 0.55140  0.50780  0.68300  Biso   1.000  H
  H29      1.0000 0.60270  0.54100  0.61630  Biso   1.000  H
  H30      1.0000 0.90930  0.40900  0.74700  Biso   1.000  H
  H31      1.0000 0.89630  0.40530  0.66030  Biso   1.000  H
  H32      1.0000 0.86220  0.34020  0.71130  Biso   1.000  H
  H33      1.0000 0.58400  0.76100  0.44790  Biso   1.000  H
  H34      1.0000 0.48970  0.82170  0.52390  Biso   1.000  H
  H35      1.0000 0.39600  0.62120  0.58470  Biso   1.000  H
  H36      1.0000 0.48500  0.56080  0.50360  Biso   1.000  H
  H37      1.0000 0.78670  0.57560  0.92150  Biso   1.000  H
  H38      1.0000 0.65000  0.50860  0.30500  Biso   1.000  H
  H39      1.0000 0.72520  0.35220  0.05470  Biso   1.000  H
  H40      1.0000 0.82150  0.35130  0.04650  Biso   1.000  H
  H41      1.0000 0.78100  0.37790  0.12160  Biso   1.000  H
  H42      1.0000 0.76160  0.69000  0.98920  Biso   1.000  H
  H43      1.0000 0.70930  0.67880  0.06210  Biso   1.000  H
  H44      1.0000 0.80570  0.68480  0.06700  Biso   1.000  H
  H45      1.0000 0.59600  0.41360  0.19130  Biso   1.000  H
  H46      1.0000 0.55140  0.49220  0.18300  Biso   1.000  H
  H47      1.0000 0.60270  0.45900  0.11630  Biso   1.000  H
  H48      1.0000 0.90930  0.59100  0.24700  Biso   1.000  H
  H49      1.0000 0.89630  0.59470  0.16030  Biso   1.000  H
  H50      1.0000 0.86220  0.65980  0.21130  Biso   1.000  H
  H51      1.0000 0.58400  0.23900  0.94790  Biso   1.000  H
  H52      1.0000 0.48970  0.17830  0.02390  Biso   1.000  H
  H53      1.0000 0.39600  0.37880  0.08470  Biso   1.000  H
  H54      1.0000 0.48500  0.43920  0.00360  Biso   1.000  H
  H55      1.0000 0.28670  0.92440  0.07850  Biso   1.000  H
  H56      1.0000 0.15000  0.99140  0.69500  Biso   1.000  H
  H57      1.0000 0.22520  0.14780  0.94530  Biso   1.000  H
  H58      1.0000 0.32150  0.14870  0.95350  Biso   1.000  H
  H59      1.0000 0.28100  0.12210  0.87840  Biso   1.000  H
  H60      1.0000 0.26160  0.81000  0.01080  Biso   1.000  H
  H61      1.0000 0.20930  0.82120  0.93790  Biso   1.000  H
  H62      1.0000 0.30570  0.81520  0.93300  Biso   1.000  H
  H63      1.0000 0.09600  0.08640  0.80870  Biso   1.000  H
  H64      1.0000 0.05140  0.00780  0.81700  Biso   1.000  H
  H65      1.0000 0.10270  0.04100  0.88370  Biso   1.000  H
  H66      1.0000 0.40930  0.90900  0.75300  Biso   1.000  H
  H67      1.0000 0.39630  0.90530  0.83970  Biso   1.000  H
  H68      1.0000 0.36220  0.84020  0.78870  Biso   1.000  H
  H69      1.0000 0.08400  0.26100  0.05210  Biso   1.000  H
  H70      1.0000 0.98970  0.32170  0.97610  Biso   1.000  H
  H71      1.0000 0.89600  0.12120  0.91530  Biso   1.000  H
  H72      1.0000 0.98500  0.06080  0.99640  Biso   1.000  H
  C1       1.0000 0.27550  0.87757  0.43179  Biso   1.000  C
  C2       1.0000 0.27350  0.95740  0.45998  Biso   1.000  C
  C3       1.0000 0.26113  0.02432  0.41941  Biso   1.000  C
  C4       1.0000 0.26696  0.08266  0.47089  Biso   1.000  C
  C5       1.0000 0.26030  0.16651  0.46237  Biso   1.000  C
  C6       1.0000 0.09950  0.96340  0.33036  Biso   1.000  C
  C7       1.0000 0.17492  0.00280  0.30178  Biso   1.000  C
  C8       1.0000 0.24365  0.03053  0.33902  Biso   1.000  C
  C9       1.0000 0.29272  0.06443  0.28414  Biso   1.000  C
  C10      1.0000 0.37220  0.10620  0.29211  Biso   1.000  C
  C11      1.0000 0.10752  0.88522  0.57957  Biso   1.000  C
  C12      1.0000 0.04454  0.84544  0.53172  Biso   1.000  C
  C13      1.0000 0.04567  0.76730  0.52526  Biso   1.000  C
  C14      1.0000 0.98988  0.73106  0.47883  Biso   1.000  C
  C15      1.0000 0.93331  0.85038  0.44325  Biso   1.000  C
  C16      1.0000 0.98723  0.88669  0.49125  Biso   1.000  C
  C17      1.0000 0.87228  0.73199  0.38817  Biso   1.000  C
  C18      1.0000 0.93436  0.77237  0.43649  Biso   1.000  C
  C19      1.0000 0.77550  0.62243  0.56821  Biso   1.000  C
  C20      1.0000 0.77350  0.54260  0.54002  Biso   1.000  C
  C21      1.0000 0.76113  0.47568  0.58059  Biso   1.000  C
  C22      1.0000 0.76696  0.41734  0.52911  Biso   1.000  C
  C23      1.0000 0.76030  0.33349  0.53763  Biso   1.000  C
  C24      1.0000 0.59950  0.53660  0.66964  Biso   1.000  C
  C25      1.0000 0.67492  0.49720  0.69822  Biso   1.000  C
  C26      1.0000 0.74365  0.46947  0.66098  Biso   1.000  C
  C27      1.0000 0.79272  0.43557  0.71586  Biso   1.000  C
  C28      1.0000 0.87220  0.39380  0.70789  Biso   1.000  C
  C29      1.0000 0.60752  0.61478  0.42043  Biso   1.000  C
  C30      1.0000 0.54454  0.65456  0.46828  Biso   1.000  C
  C31      1.0000 0.54567  0.73270  0.47474  Biso   1.000  C
  C32      1.0000 0.48988  0.76894  0.52117  Biso   1.000  C
  C33      1.0000 0.43331  0.64962  0.55675  Biso   1.000  C
  C34      1.0000 0.48723  0.61331  0.50875  Biso   1.000  C
  C35      1.0000 0.37228  0.76801  0.61183  Biso   1.000  C
  C36      1.0000 0.43436  0.72763  0.56351  Biso   1.000  C
  C37      1.0000 0.77550  0.37757  0.06821  Biso   1.000  C
  C38      1.0000 0.77350  0.45740  0.04002  Biso   1.000  C
  C39      1.0000 0.76113  0.52432  0.08059  Biso   1.000  C
  C40      1.0000 0.76696  0.58266  0.02911  Biso   1.000  C
  C41      1.0000 0.76030  0.66651  0.03763  Biso   1.000  C
  C42      1.0000 0.59950  0.46340  0.16964  Biso   1.000  C
  C43      1.0000 0.67492  0.50280  0.19822  Biso   1.000  C
  C44      1.0000 0.74365  0.53053  0.16098  Biso   1.000  C
  C45      1.0000 0.79272  0.56443  0.21586  Biso   1.000  C
  C46      1.0000 0.87220  0.60620  0.20789  Biso   1.000  C
  C47      1.0000 0.60752  0.38522  0.92043  Biso   1.000  C
  C48      1.0000 0.54454  0.34544  0.96828  Biso   1.000  C
  C49      1.0000 0.54567  0.26730  0.97474  Biso   1.000  C
  C50      1.0000 0.48988  0.23106  0.02117  Biso   1.000  C
  C51      1.0000 0.43331  0.35038  0.05675  Biso   1.000  C
  C52      1.0000 0.48723  0.38669  0.00875  Biso   1.000  C
  C53      1.0000 0.37228  0.23199  0.11183  Biso   1.000  C
  C54      1.0000 0.43436  0.27237  0.06351  Biso   1.000  C
  C55      1.0000 0.27550  0.12243  0.93179  Biso   1.000  C
  C56      1.0000 0.27350  0.04260  0.95998  Biso   1.000  C
  C57      1.0000 0.26113  0.97568  0.91941  Biso   1.000  C
  C58      1.0000 0.26696  0.91734  0.97089  Biso   1.000  C
  C59      1.0000 0.26030  0.83349  0.96237  Biso   1.000  C
  C60      1.0000 0.09950  0.03660  0.83036  Biso   1.000  C
  C61      1.0000 0.17492  0.99720  0.80178  Biso   1.000  C
  C62      1.0000 0.24365  0.96947  0.83902  Biso   1.000  C
  C63      1.0000 0.29272  0.93557  0.78414  Biso   1.000  C
  C64      1.0000 0.37220  0.89380  0.79211  Biso   1.000  C
  C65      1.0000 0.10752  0.11478  0.07957  Biso   1.000  C
  C66      1.0000 0.04454  0.15456  0.03172  Biso   1.000  C
  C67      1.0000 0.04567  0.23270  0.02526  Biso   1.000  C
  C68      1.0000 0.98988  0.26894  0.97883  Biso   1.000  C
  C69      1.0000 0.93331  0.14962  0.94325  Biso   1.000  C
  C70      1.0000 0.98723  0.11331  0.99125  Biso   1.000  C
  C71      1.0000 0.87228  0.26801  0.88817  Biso   1.000  C
  C72      1.0000 0.93436  0.22763  0.93649  Biso   1.000  C
  N1       1.0000 0.28620  0.97396  0.53243  Biso   1.000  N
  N2       1.0000 0.28127  0.05056  0.53749  Biso   1.000  N
  N3       1.0000 0.25602  0.05779  0.21749  Biso   1.000  N
  N4       1.0000 0.18478  0.02011  0.22946  Biso   1.000  N
  N5       1.0000 0.78620  0.52604  0.46757  Biso   1.000  N
  N6       1.0000 0.78127  0.44944  0.46251  Biso   1.000  N
  N7       1.0000 0.75602  0.44221  0.78251  Biso   1.000  N
  N8       1.0000 0.68478  0.47989  0.77054  Biso   1.000  N
  N9       1.0000 0.78620  0.47396  0.96757  Biso   1.000  N
  N10      1.0000 0.78127  0.55056  0.96251  Biso   1.000  N
  N11      1.0000 0.75602  0.55779  0.28251  Biso   1.000  N
  N12      1.0000 0.68478  0.52011  0.27054  Biso   1.000  N
  N13      1.0000 0.28620  0.02604  0.03243  Biso   1.000  N
  N14      1.0000 0.28127  0.94944  0.03749  Biso   1.000  N
  N15      1.0000 0.25602  0.94221  0.71749  Biso   1.000  N
  N16      1.0000 0.18478  0.97989  0.72946  Biso   1.000  N
  O1       1.0000 0.17280  0.84635  0.59199  Biso   1.000  O
  O2       1.0000 0.09481  0.95085  0.60174  Biso   1.000  O
  O3       1.0000 0.87217  0.66021  0.39493  Biso   1.000  O
  O4       1.0000 0.82563  0.76879  0.34826  Biso   1.000  O
  O5       1.0000 0.67280  0.65365  0.40801  Biso   1.000  O
  O6       1.0000 0.59481  0.54915  0.39826  Biso   1.000  O
  O7       1.0000 0.37217  0.83979  0.60507  Biso   1.000  O
  O8       1.0000 0.32563  0.73121  0.65174  Biso   1.000  O
  O9       1.0000 0.67280  0.34635  0.90801  Biso   1.000  O
  O10      1.0000 0.59481  0.45085  0.89826  Biso   1.000  O
  O11      1.0000 0.37217  0.16021  0.10507  Biso   1.000  O
  O12      1.0000 0.32563  0.26879  0.15174  Biso   1.000  O
  O13      1.0000 0.17280  0.15365  0.09199  Biso   1.000  O
  O14      1.0000 0.09481  0.04915  0.10174  Biso   1.000  O
  O15      1.0000 0.87217  0.33979  0.89493  Biso   1.000  O
  O16      1.0000 0.82563  0.23121  0.84826  Biso   1.000  O
  Zn5      1.0000 0.22521  0.60083  0.11703  Biso   1.000  Zn
  Zn6      1.0000 0.72521  0.89917  0.88297  Biso   1.000  Zn
  Zn7      1.0000 0.72521  0.10083  0.38297  Biso   1.000  Zn
  Zn8      1.0000 0.22521  0.39917  0.61703  Biso   1.000  Zn
  H73      1.0000 0.21330  0.42440  0.07850  Biso   1.000  H
  H74      1.0000 0.35000  0.49140  0.69500  Biso   1.000  H
  H75      1.0000 0.27480  0.64780  0.94530  Biso   1.000  H
  H76      1.0000 0.17850  0.64870  0.95350  Biso   1.000  H
  H77      1.0000 0.21900  0.62210  0.87840  Biso   1.000  H
  H78      1.0000 0.23840  0.31000  0.01080  Biso   1.000  H
  H79      1.0000 0.29070  0.32120  0.93790  Biso   1.000  H
  H80      1.0000 0.19430  0.31520  0.93300  Biso   1.000  H
  H81      1.0000 0.40400  0.58640  0.80870  Biso   1.000  H
  H82      1.0000 0.44860  0.50780  0.81700  Biso   1.000  H
  H83      1.0000 0.39730  0.54100  0.88370  Biso   1.000  H
  H84      1.0000 0.09070  0.40900  0.75300  Biso   1.000  H
  H85      1.0000 0.10370  0.40530  0.83970  Biso   1.000  H
  H86      1.0000 0.13780  0.34020  0.78870  Biso   1.000  H
  H87      1.0000 0.41600  0.76100  0.05210  Biso   1.000  H
  H88      1.0000 0.51030  0.82170  0.97610  Biso   1.000  H
  H89      1.0000 0.60400  0.62120  0.91530  Biso   1.000  H
  H90      1.0000 0.51500  0.56080  0.99640  Biso   1.000  H
  H91      1.0000 0.71330  0.07560  0.92150  Biso   1.000  H
  H92      1.0000 0.85000  0.00860  0.30500  Biso   1.000  H
  H93      1.0000 0.77480  0.85220  0.05470  Biso   1.000  H
  H94      1.0000 0.67850  0.85130  0.04650  Biso   1.000  H
  H95      1.0000 0.71900  0.87790  0.12160  Biso   1.000  H
  H96      1.0000 0.73840  0.19000  0.98920  Biso   1.000  H
  H97      1.0000 0.79070  0.17880  0.06210  Biso   1.000  H
  H98      1.0000 0.69430  0.18480  0.06700  Biso   1.000  H
  H99      1.0000 0.90400  0.91360  0.19130  Biso   1.000  H
  H100     1.0000 0.94860  0.99220  0.18300  Biso   1.000  H
  H101     1.0000 0.89730  0.95900  0.11630  Biso   1.000  H
  H102     1.0000 0.59070  0.09100  0.24700  Biso   1.000  H
  H103     1.0000 0.60370  0.09470  0.16030  Biso   1.000  H
  H104     1.0000 0.63780  0.15980  0.21130  Biso   1.000  H
  H105     1.0000 0.91600  0.73900  0.94790  Biso   1.000  H
  H106     1.0000 0.01030  0.67830  0.02390  Biso   1.000  H
  H107     1.0000 0.10400  0.87880  0.08470  Biso   1.000  H
  H108     1.0000 0.01500  0.93920  0.00360  Biso   1.000  H
  H109     1.0000 0.71330  0.92440  0.42150  Biso   1.000  H
  H110     1.0000 0.85000  0.99140  0.80500  Biso   1.000  H
  H111     1.0000 0.77480  0.14780  0.55470  Biso   1.000  H
  H112     1.0000 0.67850  0.14870  0.54650  Biso   1.000  H
  H113     1.0000 0.71900  0.12210  0.62160  Biso   1.000  H
  H114     1.0000 0.73840  0.81000  0.48920  Biso   1.000  H
  H115     1.0000 0.79070  0.82120  0.56210  Biso   1.000  H
  H116     1.0000 0.69430  0.81520  0.56700  Biso   1.000  H
  H117     1.0000 0.90400  0.08640  0.69130  Biso   1.000  H
  H118     1.0000 0.94860  0.00780  0.68300  Biso   1.000  H
  H119     1.0000 0.89730  0.04100  0.61630  Biso   1.000  H
  H120     1.0000 0.59070  0.90900  0.74700  Biso   1.000  H
  H121     1.0000 0.60370  0.90530  0.66030  Biso   1.000  H
  H122     1.0000 0.63780  0.84020  0.71130  Biso   1.000  H
  H123     1.0000 0.91600  0.26100  0.44790  Biso   1.000  H
  H124     1.0000 0.01030  0.32170  0.52390  Biso   1.000  H
  H125     1.0000 0.10400  0.12120  0.58470  Biso   1.000  H
  H126     1.0000 0.01500  0.06080  0.50360  Biso   1.000  H
  H127     1.0000 0.21330  0.57560  0.57850  Biso   1.000  H
  H128     1.0000 0.35000  0.50860  0.19500  Biso   1.000  H
  H129     1.0000 0.27480  0.35220  0.44530  Biso   1.000  H
  H130     1.0000 0.17850  0.35130  0.45350  Biso   1.000  H
  H131     1.0000 0.21900  0.37790  0.37840  Biso   1.000  H
  H132     1.0000 0.23840  0.69000  0.51080  Biso   1.000  H
  H133     1.0000 0.29070  0.67880  0.43790  Biso   1.000  H
  H134     1.0000 0.19430  0.68480  0.43300  Biso   1.000  H
  H135     1.0000 0.40400  0.41360  0.30870  Biso   1.000  H
  H136     1.0000 0.44860  0.49220  0.31700  Biso   1.000  H
  H137     1.0000 0.39730  0.45900  0.38370  Biso   1.000  H
  H138     1.0000 0.09070  0.59100  0.25300  Biso   1.000  H
  H139     1.0000 0.10370  0.59470  0.33970  Biso   1.000  H
  H140     1.0000 0.13780  0.65980  0.28870  Biso   1.000  H
  H141     1.0000 0.41600  0.23900  0.55210  Biso   1.000  H
  H142     1.0000 0.51030  0.17830  0.47610  Biso   1.000  H
  H143     1.0000 0.60400  0.37880  0.41530  Biso   1.000  H
  H144     1.0000 0.51500  0.43920  0.49640  Biso   1.000  H
  C73      1.0000 0.22450  0.62243  0.93179  Biso   1.000  C
  C74      1.0000 0.22650  0.54260  0.95998  Biso   1.000  C
  C75      1.0000 0.23887  0.47568  0.91941  Biso   1.000  C
  C76      1.0000 0.23304  0.41734  0.97089  Biso   1.000  C
  C77      1.0000 0.23970  0.33349  0.96237  Biso   1.000  C
  C78      1.0000 0.40050  0.53660  0.83036  Biso   1.000  C
  C79      1.0000 0.32508  0.49720  0.80178  Biso   1.000  C
  C80      1.0000 0.25635  0.46947  0.83902  Biso   1.000  C
  C81      1.0000 0.20728  0.43557  0.78414  Biso   1.000  C
  C82      1.0000 0.12780  0.39380  0.79211  Biso   1.000  C
  C83      1.0000 0.39248  0.61478  0.07957  Biso   1.000  C
  C84      1.0000 0.45546  0.65456  0.03172  Biso   1.000  C
  C85      1.0000 0.45433  0.73270  0.02526  Biso   1.000  C
  C86      1.0000 0.51012  0.76894  0.97883  Biso   1.000  C
  C87      1.0000 0.56669  0.64962  0.94325  Biso   1.000  C
  C88      1.0000 0.51277  0.61331  0.99125  Biso   1.000  C
  C89      1.0000 0.62772  0.76801  0.88817  Biso   1.000  C
  C90      1.0000 0.56564  0.72763  0.93649  Biso   1.000  C
  C91      1.0000 0.72450  0.87757  0.06821  Biso   1.000  C
  C92      1.0000 0.72650  0.95740  0.04002  Biso   1.000  C
  C93      1.0000 0.73887  0.02432  0.08059  Biso   1.000  C
  C94      1.0000 0.73304  0.08266  0.02911  Biso   1.000  C
  C95      1.0000 0.73970  0.16651  0.03763  Biso   1.000  C
  C96      1.0000 0.90050  0.96340  0.16964  Biso   1.000  C
  C97      1.0000 0.82508  0.00280  0.19822  Biso   1.000  C
  C98      1.0000 0.75635  0.03053  0.16098  Biso   1.000  C
  C99      1.0000 0.70728  0.06443  0.21586  Biso   1.000  C
  C100     1.0000 0.62780  0.10620  0.20789  Biso   1.000  C
  C101     1.0000 0.89248  0.88522  0.92043  Biso   1.000  C
  C102     1.0000 0.95546  0.84544  0.96828  Biso   1.000  C
  C103     1.0000 0.95433  0.76730  0.97474  Biso   1.000  C
  C104     1.0000 0.01012  0.73106  0.02117  Biso   1.000  C
  C105     1.0000 0.06669  0.85038  0.05675  Biso   1.000  C
  C106     1.0000 0.01277  0.88669  0.00875  Biso   1.000  C
  C107     1.0000 0.12772  0.73199  0.11183  Biso   1.000  C
  C108     1.0000 0.06564  0.77237  0.06351  Biso   1.000  C
  C109     1.0000 0.72450  0.12243  0.56821  Biso   1.000  C
  C110     1.0000 0.72650  0.04260  0.54002  Biso   1.000  C
  C111     1.0000 0.73887  0.97568  0.58059  Biso   1.000  C
  C112     1.0000 0.73304  0.91734  0.52911  Biso   1.000  C
  C113     1.0000 0.73970  0.83349  0.53763  Biso   1.000  C
  C114     1.0000 0.90050  0.03660  0.66964  Biso   1.000  C
  C115     1.0000 0.82508  0.99720  0.69822  Biso   1.000  C
  C116     1.0000 0.75635  0.96947  0.66098  Biso   1.000  C
  C117     1.0000 0.70728  0.93557  0.71586  Biso   1.000  C
  C118     1.0000 0.62780  0.89380  0.70789  Biso   1.000  C
  C119     1.0000 0.89248  0.11478  0.42043  Biso   1.000  C
  C120     1.0000 0.95546  0.15456  0.46828  Biso   1.000  C
  C121     1.0000 0.95433  0.23270  0.47474  Biso   1.000  C
  C122     1.0000 0.01012  0.26894  0.52117  Biso   1.000  C
  C123     1.0000 0.06669  0.14962  0.55675  Biso   1.000  C
  C124     1.0000 0.01277  0.11331  0.50875  Biso   1.000  C
  C125     1.0000 0.12772  0.26801  0.61183  Biso   1.000  C
  C126     1.0000 0.06564  0.22763  0.56351  Biso   1.000  C
  C127     1.0000 0.22450  0.37757  0.43179  Biso   1.000  C
  C128     1.0000 0.22650  0.45740  0.45998  Biso   1.000  C
  C129     1.0000 0.23887  0.52432  0.41941  Biso   1.000  C
  C130     1.0000 0.23304  0.58266  0.47089  Biso   1.000  C
  C131     1.0000 0.23970  0.66651  0.46237  Biso   1.000  C
  C132     1.0000 0.40050  0.46340  0.33036  Biso   1.000  C
  C133     1.0000 0.32508  0.50280  0.30178  Biso   1.000  C
  C134     1.0000 0.25635  0.53053  0.33902  Biso   1.000  C
  C135     1.0000 0.20728  0.56443  0.28414  Biso   1.000  C
  C136     1.0000 0.12780  0.60620  0.29211  Biso   1.000  C
  C137     1.0000 0.39248  0.38522  0.57957  Biso   1.000  C
  C138     1.0000 0.45546  0.34544  0.53172  Biso   1.000  C
  C139     1.0000 0.45433  0.26730  0.52526  Biso   1.000  C
  C140     1.0000 0.51012  0.23106  0.47883  Biso   1.000  C
  C141     1.0000 0.56669  0.35038  0.44325  Biso   1.000  C
  C142     1.0000 0.51277  0.38669  0.49125  Biso   1.000  C
  C143     1.0000 0.62772  0.23199  0.38817  Biso   1.000  C
  C144     1.0000 0.56564  0.27237  0.43649  Biso   1.000  C
  N17      1.0000 0.21380  0.52604  0.03243  Biso   1.000  N
  N18      1.0000 0.21873  0.44944  0.03749  Biso   1.000  N
  N19      1.0000 0.24398  0.44221  0.71749  Biso   1.000  N
  N20      1.0000 0.31522  0.47989  0.72946  Biso   1.000  N
  N21      1.0000 0.71380  0.97396  0.96757  Biso   1.000  N
  N22      1.0000 0.71873  0.05056  0.96251  Biso   1.000  N
  N23      1.0000 0.74398  0.05779  0.28251  Biso   1.000  N
  N24      1.0000 0.81522  0.02011  0.27054  Biso   1.000  N
  N25      1.0000 0.71380  0.02604  0.46757  Biso   1.000  N
  N26      1.0000 0.71873  0.94944  0.46251  Biso   1.000  N
  N27      1.0000 0.74398  0.94221  0.78251  Biso   1.000  N
  N28      1.0000 0.81522  0.97989  0.77054  Biso   1.000  N
  N29      1.0000 0.21380  0.47396  0.53243  Biso   1.000  N
  N30      1.0000 0.21873  0.55056  0.53749  Biso   1.000  N
  N31      1.0000 0.24398  0.55779  0.21749  Biso   1.000  N
  N32      1.0000 0.31522  0.52011  0.22946  Biso   1.000  N
  O17      1.0000 0.32720  0.65365  0.09199  Biso   1.000  O
  O18      1.0000 0.40519  0.54915  0.10174  Biso   1.000  O
  O19      1.0000 0.62783  0.83979  0.89493  Biso   1.000  O
  O20      1.0000 0.67437  0.73121  0.84826  Biso   1.000  O
  O21      1.0000 0.82720  0.84635  0.90801  Biso   1.000  O
  O22      1.0000 0.90519  0.95085  0.89826  Biso   1.000  O
  O23      1.0000 0.12783  0.66021  0.10507  Biso   1.000  O
  O24      1.0000 0.17437  0.76879  0.15174  Biso   1.000  O
  O25      1.0000 0.82720  0.15365  0.40801  Biso   1.000  O
  O26      1.0000 0.90519  0.04915  0.39826  Biso   1.000  O
  O27      1.0000 0.12783  0.33979  0.60507  Biso   1.000  O
  O28      1.0000 0.17437  0.23121  0.65174  Biso   1.000  O
  O29      1.0000 0.32720  0.34635  0.59199  Biso   1.000  O
  O30      1.0000 0.40519  0.45085  0.60174  Biso   1.000  O
  O31      1.0000 0.62783  0.16021  0.39493  Biso   1.000  O
  O32      1.0000 0.67437  0.26879  0.34826  Biso   1.000  O
