data_image0
_cell_length_a       8.172
_cell_length_b       14.1969
_cell_length_c       14.1969
_cell_angle_alpha    110.241
_cell_angle_beta     91.0476
_cell_angle_gamma    88.9524

_symmetry_space_group_name_H-M    P 1
_symmetry_int_tables_number       1

loop_
  _symmetry_equiv_pos_as_xyz
  'x, y, z'

loop_
  _atom_site_label
  _atom_site_occupancy
  _atom_site_fract_x
  _atom_site_fract_y
  _atom_site_fract_z
  _atom_site_thermal_displace_type
  _atom_site_B_iso_or_equiv
  _atom_site_type_symbol
  Ce1      1.0000 0.39888  0.91447  0.05243  Biso   1.000  Ce
  Ce2      1.0000 0.89888  0.94757  0.08553  Biso   1.000  Ce
  H1       1.0000 0.90260  0.29930  0.86690  Biso   1.000  H
  H2       1.0000 0.97250  0.10490  0.58530  Biso   1.000  H
  H3       1.0000 0.12290  0.39140  0.66040  Biso   1.000  H
  H4       1.0000 0.94070  0.65000  0.04720  Biso   1.000  H
  H5       1.0000 0.87450  0.47180  0.96200  Biso   1.000  H
  H6       1.0000 0.61780  0.91220  0.70020  Biso   1.000  H
  H7       1.0000 0.77020  0.00850  0.61670  Biso   1.000  H
  H8       1.0000 0.35080  0.26600  0.34120  Biso   1.000  H
  H9       1.0000 0.27070  0.34410  0.51750  Biso   1.000  H
  H10      1.0000 0.21600  0.82440  0.23660  Biso   1.000  H
  H11      1.0000 0.08080  0.72380  0.29800  Biso   1.000  H
  H12      1.0000 0.05570  0.61320  0.21840  Biso   1.000  H
  H13      1.0000 0.19130  0.63240  0.30560  Biso   1.000  H
  H14      1.0000 0.44410  0.62000  0.09820  Biso   1.000  H
  H15      1.0000 0.38190  0.54890  0.15610  Biso   1.000  H
  H16      1.0000 0.27540  0.56130  0.06530  Biso   1.000  H
  H17      1.0000 0.40260  0.13310  0.70070  Biso   1.000  H
  H18      1.0000 0.47250  0.41470  0.89510  Biso   1.000  H
  H19      1.0000 0.62290  0.33960  0.60860  Biso   1.000  H
  H20      1.0000 0.44070  0.95280  0.35000  Biso   1.000  H
  H21      1.0000 0.37450  0.03800  0.52820  Biso   1.000  H
  H22      1.0000 0.11780  0.29980  0.08780  Biso   1.000  H
  H23      1.0000 0.27020  0.38330  0.99150  Biso   1.000  H
  H24      1.0000 0.85080  0.65880  0.73400  Biso   1.000  H
  H25      1.0000 0.77070  0.48250  0.65590  Biso   1.000  H
  H26      1.0000 0.71600  0.76340  0.17560  Biso   1.000  H
  H27      1.0000 0.58080  0.70200  0.27620  Biso   1.000  H
  H28      1.0000 0.55570  0.78160  0.38680  Biso   1.000  H
  H29      1.0000 0.69130  0.69440  0.36760  Biso   1.000  H
  H30      1.0000 0.94410  0.90180  0.38000  Biso   1.000  H
  H31      1.0000 0.88190  0.84390  0.45110  Biso   1.000  H
  H32      1.0000 0.77540  0.93470  0.43870  Biso   1.000  H
  C1       1.0000 0.01740  0.36180  0.77620  Biso   1.000  C
  C2       1.0000 0.94120  0.28570  0.80070  Biso   1.000  C
  C3       1.0000 0.92120  0.18990  0.72870  Biso   1.000  C
  C4       1.0000 0.98240  0.17060  0.63340  Biso   1.000  C
  C5       1.0000 0.05780  0.24380  0.60580  Biso   1.000  C
  C6       1.0000 0.07330  0.34000  0.67820  Biso   1.000  C
  C7       1.0000 0.03360  0.46420  0.85120  Biso   1.000  C
  C8       1.0000 0.10170  0.64130  0.93570  Biso   1.000  C
  C9       1.0000 0.98870  0.60880  0.98600  Biso   1.000  C
  C10      1.0000 0.95070  0.50690  0.93710  Biso   1.000  C
  C11      1.0000 0.17360  0.74450  0.96390  Biso   1.000  C
  C12      1.0000 0.83480  0.11270  0.75430  Biso   1.000  C
  C13      1.0000 0.68690  0.01310  0.83950  Biso   1.000  C
  C14      1.0000 0.67640  0.97150  0.73530  Biso   1.000  C
  C15      1.0000 0.76260  0.02750  0.68750  Biso   1.000  C
  C16      1.0000 0.60980  0.97760  0.91200  Biso   1.000  C
  C17      1.0000 0.12710  0.22290  0.50450  Biso   1.000  C
  C18      1.0000 0.20470  0.14580  0.32840  Biso   1.000  C
  C19      1.0000 0.27770  0.23650  0.37390  Biso   1.000  C
  C20      1.0000 0.23240  0.28080  0.47460  Biso   1.000  C
  C21      1.0000 0.24110  0.07490  0.22630  Biso   1.000  C
  C22      1.0000 0.28350  0.77170  0.19530  Biso   1.000  C
  C23      1.0000 0.13630  0.66080  0.25940  Biso   1.000  C
  C24      1.0000 0.34740  0.59570  0.12230  Biso   1.000  C
  C25      1.0000 0.51740  0.22380  0.63820  Biso   1.000  C
  C26      1.0000 0.44120  0.19930  0.71430  Biso   1.000  C
  C27      1.0000 0.42120  0.27130  0.81010  Biso   1.000  C
  C28      1.0000 0.48240  0.36660  0.82940  Biso   1.000  C
  C29      1.0000 0.55780  0.39420  0.75620  Biso   1.000  C
  C30      1.0000 0.57330  0.32180  0.66000  Biso   1.000  C
  C31      1.0000 0.53360  0.14880  0.53580  Biso   1.000  C
  C32      1.0000 0.60170  0.06430  0.35870  Biso   1.000  C
  C33      1.0000 0.48870  0.01400  0.39120  Biso   1.000  C
  C34      1.0000 0.45070  0.06290  0.49310  Biso   1.000  C
  C35      1.0000 0.67360  0.03610  0.25550  Biso   1.000  C
  C36      1.0000 0.33480  0.24570  0.88730  Biso   1.000  C
  C37      1.0000 0.18690  0.16050  0.98690  Biso   1.000  C
  C38      1.0000 0.17640  0.26470  0.02850  Biso   1.000  C
  C39      1.0000 0.26260  0.31250  0.97250  Biso   1.000  C
  C40      1.0000 0.10980  0.08800  0.02240  Biso   1.000  C
  C41      1.0000 0.62710  0.49550  0.77710  Biso   1.000  C
  C42      1.0000 0.70470  0.67160  0.85420  Biso   1.000  C
  C43      1.0000 0.77770  0.62610  0.76350  Biso   1.000  C
  C44      1.0000 0.73240  0.52540  0.71920  Biso   1.000  C
  C45      1.0000 0.74110  0.77370  0.92510  Biso   1.000  C
  C46      1.0000 0.78350  0.80470  0.22830  Biso   1.000  C
  C47      1.0000 0.63630  0.74060  0.33920  Biso   1.000  C
  C48      1.0000 0.84740  0.87770  0.40430  Biso   1.000  C
  S1       1.0000 0.16620  0.54799  0.82973  Biso   1.000  S
  S2       1.0000 0.80310  0.12046  0.87600  Biso   1.000  S
  S3       1.0000 0.08030  0.11470  0.40704  Biso   1.000  S
  S4       1.0000 0.66620  0.17027  0.45201  Biso   1.000  S
  S5       1.0000 0.30310  0.12400  0.87954  Biso   1.000  S
  S6       1.0000 0.58030  0.59296  0.88530  Biso   1.000  S
  N1       1.0000 0.25950  0.68070  0.19290  Biso   1.000  N
  N2       1.0000 0.75950  0.80710  0.31930  Biso   1.000  N
  O1       1.0000 0.11040  0.81460  0.03640  Biso   1.000  O
  O2       1.0000 0.29580  0.75860  0.91820  Biso   1.000  O
  O3       1.0000 0.49540  0.91580  0.88480  Biso   1.000  O
  O4       1.0000 0.65820  0.01170  0.00530  Biso   1.000  O
  O5       1.0000 0.34940  0.09480  0.17400  Biso   1.000  O
  O6       1.0000 0.16390  0.99090  0.19270  Biso   1.000  O
  O7       1.0000 0.39410  0.79270  0.14430  Biso   1.000  O
  O8       1.0000 0.61040  0.96360  0.18540  Biso   1.000  O
  O9       1.0000 0.79580  0.08180  0.24140  Biso   1.000  O
  O10      1.0000 0.99540  0.11520  0.08420  Biso   1.000  O
  O11      1.0000 0.15820  0.99470  0.98830  Biso   1.000  O
  O12      1.0000 0.84940  0.82600  0.90520  Biso   1.000  O
  O13      1.0000 0.66390  0.80730  0.00910  Biso   1.000  O
  O14      1.0000 0.89410  0.85570  0.20730  Biso   1.000  O
