data_image0
_cell_length_a       21.7633
_cell_length_b       14.1958
_cell_length_c       22.9649
_cell_angle_alpha    90
_cell_angle_beta     90.182
_cell_angle_gamma    90

_symmetry_space_group_name_H-M    "P 1"
_symmetry_int_tables_number       1

loop_
  _symmetry_equiv_pos_as_xyz
  'x, y, z'

loop_
  _atom_site_label
  _atom_site_occupancy
  _atom_site_fract_x
  _atom_site_fract_y
  _atom_site_fract_z
  _atom_site_thermal_displace_type
  _atom_site_B_iso_or_equiv
  _atom_site_type_symbol
  C1       1.0000 0.81030  0.06200  0.84150  Biso   1.000  C
  C2       1.0000 0.84630  0.13910  0.80920  Biso   1.000  C
  C3       1.0000 0.68320  0.30810  0.79300  Biso   1.000  C
  C4       1.0000 0.71290  0.39630  0.82330  Biso   1.000  C
  C5       1.0000 0.78520  0.25890  0.00480  Biso   1.000  C
  C6       1.0000 0.00350  0.95310  0.78370  Biso   1.000  C
  O1       1.0000 0.77503  0.08880  0.88041  Biso   1.000  O
  O2       1.0000 0.83761  0.22270  0.82443  Biso   1.000  O
  O3       1.0000 0.81841  0.97870  0.82621  Biso   1.000  O
  O4       1.0000 0.88041  0.11060  0.76979  Biso   1.000  O
  O5       1.0000 0.70116  0.22890  0.81128  Biso   1.000  O
  O6       1.0000 0.75291  0.38040  0.86276  Biso   1.000  O
  O7       1.0000 0.64409  0.32330  0.75277  Biso   1.000  O
  O8       1.0000 0.69437  0.47520  0.80524  Biso   1.000  O
  O9       1.0000 0.81659  0.26060  0.96010  Biso   1.000  O
  O10      1.0000 0.80456  0.27000  0.05662  Biso   1.000  O
  O11      1.0000 0.95490  0.94900  0.81134  Biso   1.000  O
  O12      1.0000 0.05800  0.95910  0.80469  Biso   1.000  O
  Cr1      1.0000 0.87681  0.96465  0.75790  Biso   1.000  Cr
  Cr2      1.0000 0.76524  0.23741  0.88278  Biso   1.000  Cr
  Mn1      1.0000 0.23476  0.23741  0.61722  Biso   1.000  Mn
  C7       1.0000 0.31030  0.56200  0.84150  Biso   1.000  C
  C8       1.0000 0.34630  0.63910  0.80920  Biso   1.000  C
  C9       1.0000 0.18320  0.80810  0.79300  Biso   1.000  C
  C10      1.0000 0.21290  0.89630  0.82330  Biso   1.000  C
  C11      1.0000 0.28520  0.75890  0.00480  Biso   1.000  C
  C12      1.0000 0.50350  0.45310  0.78370  Biso   1.000  C
  O13      1.0000 0.27503  0.58880  0.88041  Biso   1.000  O
  O14      1.0000 0.33761  0.72270  0.82443  Biso   1.000  O
  O15      1.0000 0.31841  0.47870  0.82621  Biso   1.000  O
  O16      1.0000 0.38041  0.61060  0.76979  Biso   1.000  O
  O17      1.0000 0.20116  0.72890  0.81128  Biso   1.000  O
  O18      1.0000 0.25291  0.88040  0.86276  Biso   1.000  O
  O19      1.0000 0.14409  0.82330  0.75277  Biso   1.000  O
  O20      1.0000 0.19437  0.97520  0.80524  Biso   1.000  O
  O21      1.0000 0.31659  0.76060  0.96010  Biso   1.000  O
  O22      1.0000 0.30456  0.77000  0.05662  Biso   1.000  O
  O23      1.0000 0.45490  0.44900  0.81134  Biso   1.000  O
  O24      1.0000 0.55800  0.45910  0.80469  Biso   1.000  O
  Cr3      1.0000 0.37681  0.46465  0.75790  Biso   1.000  Cr
  Cr4      1.0000 0.26524  0.73741  0.88278  Biso   1.000  Cr
  Mn2      1.0000 0.73476  0.73741  0.61722  Biso   1.000  Mn
  C13      1.0000 0.18970  0.06200  0.65850  Biso   1.000  C
  C14      1.0000 0.15370  0.13910  0.69080  Biso   1.000  C
  C15      1.0000 0.31680  0.30810  0.70700  Biso   1.000  C
  C16      1.0000 0.28710  0.39630  0.67670  Biso   1.000  C
  C17      1.0000 0.21480  0.25890  0.49520  Biso   1.000  C
  C18      1.0000 0.99650  0.95310  0.71630  Biso   1.000  C
  O25      1.0000 0.22497  0.08880  0.61959  Biso   1.000  O
  O26      1.0000 0.16239  0.22270  0.67557  Biso   1.000  O
  O27      1.0000 0.18159  0.97870  0.67379  Biso   1.000  O
  O28      1.0000 0.11959  0.11060  0.73021  Biso   1.000  O
  O29      1.0000 0.29884  0.22890  0.68872  Biso   1.000  O
  O30      1.0000 0.24709  0.38040  0.63724  Biso   1.000  O
  O31      1.0000 0.35591  0.32330  0.74723  Biso   1.000  O
  O32      1.0000 0.30563  0.47520  0.69476  Biso   1.000  O
  O33      1.0000 0.18341  0.26060  0.53990  Biso   1.000  O
  O34      1.0000 0.19544  0.27000  0.44338  Biso   1.000  O
  O35      1.0000 0.04510  0.94900  0.68866  Biso   1.000  O
  O36      1.0000 0.94200  0.95910  0.69531  Biso   1.000  O
  Cr5      1.0000 0.12319  0.96465  0.74210  Biso   1.000  Cr
  C19      1.0000 0.68970  0.56200  0.65850  Biso   1.000  C
  C20      1.0000 0.65370  0.63910  0.69080  Biso   1.000  C
  C21      1.0000 0.81680  0.80810  0.70700  Biso   1.000  C
  C22      1.0000 0.78710  0.89630  0.67670  Biso   1.000  C
  C23      1.0000 0.71480  0.75890  0.49520  Biso   1.000  C
  C24      1.0000 0.49650  0.45310  0.71630  Biso   1.000  C
  O37      1.0000 0.72497  0.58880  0.61959  Biso   1.000  O
  O38      1.0000 0.66239  0.72270  0.67557  Biso   1.000  O
  O39      1.0000 0.68159  0.47870  0.67379  Biso   1.000  O
  O40      1.0000 0.61959  0.61060  0.73021  Biso   1.000  O
  O41      1.0000 0.79884  0.72890  0.68872  Biso   1.000  O
  O42      1.0000 0.74709  0.88040  0.63724  Biso   1.000  O
  O43      1.0000 0.85591  0.82330  0.74723  Biso   1.000  O
  O44      1.0000 0.80563  0.97520  0.69476  Biso   1.000  O
  O45      1.0000 0.68341  0.76060  0.53990  Biso   1.000  O
  O46      1.0000 0.69544  0.77000  0.44338  Biso   1.000  O
  O47      1.0000 0.54510  0.44900  0.68866  Biso   1.000  O
  O48      1.0000 0.44200  0.45910  0.69531  Biso   1.000  O
  Cr6      1.0000 0.62319  0.46465  0.74210  Biso   1.000  Cr
  C25      1.0000 0.18970  0.93800  0.15850  Biso   1.000  C
  C26      1.0000 0.15370  0.86090  0.19080  Biso   1.000  C
  C27      1.0000 0.31680  0.69190  0.20700  Biso   1.000  C
  C28      1.0000 0.28710  0.60370  0.17670  Biso   1.000  C
  C29      1.0000 0.21480  0.74110  0.99520  Biso   1.000  C
  C30      1.0000 0.99650  0.04690  0.21630  Biso   1.000  C
  O49      1.0000 0.22497  0.91120  0.11959  Biso   1.000  O
  O50      1.0000 0.16239  0.77730  0.17557  Biso   1.000  O
  O51      1.0000 0.18159  0.02130  0.17379  Biso   1.000  O
  O52      1.0000 0.11959  0.88940  0.23021  Biso   1.000  O
  O53      1.0000 0.29884  0.77110  0.18872  Biso   1.000  O
  O54      1.0000 0.24709  0.61960  0.13724  Biso   1.000  O
  O55      1.0000 0.35591  0.67670  0.24723  Biso   1.000  O
  O56      1.0000 0.30563  0.52480  0.19476  Biso   1.000  O
  O57      1.0000 0.18341  0.73940  0.03990  Biso   1.000  O
  O58      1.0000 0.19544  0.73000  0.94338  Biso   1.000  O
  O59      1.0000 0.04510  0.05100  0.18866  Biso   1.000  O
  O60      1.0000 0.94200  0.04090  0.19531  Biso   1.000  O
  Cr7      1.0000 0.12319  0.03535  0.24210  Biso   1.000  Cr
  Cr8      1.0000 0.23476  0.76259  0.11722  Biso   1.000  Cr
  Mn3      1.0000 0.76524  0.76259  0.38278  Biso   1.000  Mn
  C31      1.0000 0.68970  0.43800  0.15850  Biso   1.000  C
  C32      1.0000 0.65370  0.36090  0.19080  Biso   1.000  C
  C33      1.0000 0.81680  0.19190  0.20700  Biso   1.000  C
  C34      1.0000 0.78710  0.10370  0.17670  Biso   1.000  C
  C35      1.0000 0.71480  0.24110  0.99520  Biso   1.000  C
  C36      1.0000 0.49650  0.54690  0.21630  Biso   1.000  C
  O61      1.0000 0.72497  0.41120  0.11959  Biso   1.000  O
  O62      1.0000 0.66239  0.27730  0.17557  Biso   1.000  O
  O63      1.0000 0.68159  0.52130  0.17379  Biso   1.000  O
  O64      1.0000 0.61959  0.38940  0.23021  Biso   1.000  O
  O65      1.0000 0.79884  0.27110  0.18872  Biso   1.000  O
  O66      1.0000 0.74709  0.11960  0.13724  Biso   1.000  O
  O67      1.0000 0.85591  0.17670  0.24723  Biso   1.000  O
  O68      1.0000 0.80563  0.02480  0.19476  Biso   1.000  O
  O69      1.0000 0.68341  0.23940  0.03990  Biso   1.000  O
  O70      1.0000 0.69544  0.23000  0.94338  Biso   1.000  O
  O71      1.0000 0.54510  0.55100  0.18866  Biso   1.000  O
  O72      1.0000 0.44200  0.54090  0.19531  Biso   1.000  O
  Cr9      1.0000 0.62319  0.53535  0.24210  Biso   1.000  Cr
  Cr10     1.0000 0.73476  0.26259  0.11722  Biso   1.000  Cr
  Mn4      1.0000 0.26524  0.26259  0.38278  Biso   1.000  Mn
  C37      1.0000 0.81030  0.93800  0.34150  Biso   1.000  C
  C38      1.0000 0.84630  0.86090  0.30920  Biso   1.000  C
  C39      1.0000 0.68320  0.69190  0.29300  Biso   1.000  C
  C40      1.0000 0.71290  0.60370  0.32330  Biso   1.000  C
  C41      1.0000 0.78520  0.74110  0.50480  Biso   1.000  C
  C42      1.0000 0.00350  0.04690  0.28370  Biso   1.000  C
  O73      1.0000 0.77503  0.91120  0.38041  Biso   1.000  O
  O74      1.0000 0.83761  0.77730  0.32443  Biso   1.000  O
  O75      1.0000 0.81841  0.02130  0.32621  Biso   1.000  O
  O76      1.0000 0.88041  0.88940  0.26979  Biso   1.000  O
  O77      1.0000 0.70116  0.77110  0.31128  Biso   1.000  O
  O78      1.0000 0.75291  0.61960  0.36276  Biso   1.000  O
  O79      1.0000 0.64409  0.67670  0.25277  Biso   1.000  O
  O80      1.0000 0.69437  0.52480  0.30524  Biso   1.000  O
  O81      1.0000 0.81659  0.73940  0.46010  Biso   1.000  O
  O82      1.0000 0.80456  0.73000  0.55662  Biso   1.000  O
  O83      1.0000 0.95490  0.05100  0.31134  Biso   1.000  O
  O84      1.0000 0.05800  0.04090  0.30469  Biso   1.000  O
  Cr11     1.0000 0.87681  0.03535  0.25790  Biso   1.000  Cr
  C43      1.0000 0.31030  0.43800  0.34150  Biso   1.000  C
  C44      1.0000 0.34630  0.36090  0.30920  Biso   1.000  C
  C45      1.0000 0.18320  0.19190  0.29300  Biso   1.000  C
  C46      1.0000 0.21290  0.10370  0.32330  Biso   1.000  C
  C47      1.0000 0.28520  0.24110  0.50480  Biso   1.000  C
  C48      1.0000 0.50350  0.54690  0.28370  Biso   1.000  C
  O85      1.0000 0.27503  0.41120  0.38041  Biso   1.000  O
  O86      1.0000 0.33761  0.27730  0.32443  Biso   1.000  O
  O87      1.0000 0.31841  0.52130  0.32621  Biso   1.000  O
  O88      1.0000 0.38041  0.38940  0.26979  Biso   1.000  O
  O89      1.0000 0.20116  0.27110  0.31128  Biso   1.000  O
  O90      1.0000 0.25291  0.11960  0.36276  Biso   1.000  O
  O91      1.0000 0.14409  0.17670  0.25277  Biso   1.000  O
  O92      1.0000 0.19437  0.02480  0.30524  Biso   1.000  O
  O93      1.0000 0.31659  0.23940  0.46010  Biso   1.000  O
  O94      1.0000 0.30456  0.23000  0.55662  Biso   1.000  O
  O95      1.0000 0.45490  0.55100  0.31134  Biso   1.000  O
  O96      1.0000 0.55800  0.54090  0.30469  Biso   1.000  O
  Cr12     1.0000 0.37681  0.53535  0.25790  Biso   1.000  Cr
