data_image0
_cell_length_a       13.5422
_cell_length_b       21.1573
_cell_length_c       24.0112
_cell_angle_alpha    90
_cell_angle_beta     90
_cell_angle_gamma    90

_symmetry_space_group_name_H-M    P 1
_symmetry_int_tables_number       1

loop_
  _symmetry_equiv_pos_as_xyz
  'x, y, z'

loop_
  _atom_site_label
  _atom_site_occupancy
  _atom_site_fract_x
  _atom_site_fract_y
  _atom_site_fract_z
  _atom_site_thermal_displace_type
  _atom_site_B_iso_or_equiv
  _atom_site_type_symbol
  Co1      1.0000 0.36270  0.03143  0.19840  Biso   1.000  Co
  Co2      1.0000 0.36636  0.18047  0.12407  Biso   1.000  Co
  Co3      1.0000 0.63730  0.96857  0.69840  Biso   1.000  Co
  Co4      1.0000 0.63364  0.81953  0.62407  Biso   1.000  Co
  Co5      1.0000 0.13730  0.53143  0.19840  Biso   1.000  Co
  Co6      1.0000 0.13364  0.68047  0.12407  Biso   1.000  Co
  Co7      1.0000 0.86270  0.46857  0.69840  Biso   1.000  Co
  Co8      1.0000 0.86636  0.31953  0.62407  Biso   1.000  Co
  H1       1.0000 0.49220  0.09020  0.13680  Biso   1.000  H
  H2       1.0000 0.48500  0.12650  0.19330  Biso   1.000  H
  H3       1.0000 0.11210  0.97010  0.10530  Biso   1.000  H
  H4       1.0000 0.92870  0.00500  0.97690  Biso   1.000  H
  H5       1.0000 0.15000  0.12650  0.01310  Biso   1.000  H
  H6       1.0000 0.14250  0.09260  0.31230  Biso   1.000  H
  H7       1.0000 0.91940  0.21450  0.34020  Biso   1.000  H
  H8       1.0000 0.10400  0.24080  0.21080  Biso   1.000  H
  H9       1.0000 0.61340  0.98120  0.01970  Biso   1.000  H
  H10      1.0000 0.61760  0.79700  0.97950  Biso   1.000  H
  H11      1.0000 0.47230  0.85410  0.11540  Biso   1.000  H
  H12      1.0000 0.46050  0.36280  0.20040  Biso   1.000  H
  H13      1.0000 0.62660  0.43700  0.32320  Biso   1.000  H
  H14      1.0000 0.61590  0.24870  0.30090  Biso   1.000  H
  H15      1.0000 0.73500  0.99240  0.80840  Biso   1.000  H
  H16      1.0000 0.79080  0.06890  0.86670  Biso   1.000  H
  H17      1.0000 0.74250  0.19390  0.74600  Biso   1.000  H
  H18      1.0000 0.68660  0.11390  0.69050  Biso   1.000  H
  H19      1.0000 0.87070  0.19200  0.85940  Biso   1.000  H
  H20      1.0000 0.78620  0.23480  0.83550  Biso   1.000  H
  H21      1.0000 0.77470  0.22220  0.93450  Biso   1.000  H
  H22      1.0000 0.75510  0.14980  0.92550  Biso   1.000  H
  H23      1.0000 0.63060  0.24700  0.88970  Biso   1.000  H
  H24      1.0000 0.61220  0.17560  0.87560  Biso   1.000  H
  H25      1.0000 0.01600  0.55450  0.75470  Biso   1.000  H
  H26      1.0000 0.10480  0.56530  0.83500  Biso   1.000  H
  H27      1.0000 0.01720  0.39020  0.87560  Biso   1.000  H
  H28      1.0000 0.93200  0.38650  0.79580  Biso   1.000  H
  H29      1.0000 0.09630  0.50880  0.94480  Biso   1.000  H
  H30      1.0000 0.19390  0.50550  0.90990  Biso   1.000  H
  H31      1.0000 0.09650  0.39910  0.95600  Biso   1.000  H
  H32      1.0000 0.18900  0.39290  0.91710  Biso   1.000  H
  H33      1.0000 0.19170  0.45540  0.01830  Biso   1.000  H
  H34      1.0000 0.28370  0.44390  0.98020  Biso   1.000  H
  H35      1.0000 0.44160  0.09910  0.02340  Biso   1.000  H
  H36      1.0000 0.52830  0.10940  0.94280  Biso   1.000  H
  H37      1.0000 0.61810  0.27890  0.99300  Biso   1.000  H
  H38      1.0000 0.52940  0.26590  0.07270  Biso   1.000  H
  H39      1.0000 0.28590  0.21620  0.00750  Biso   1.000  H
  H40      1.0000 0.24530  0.30500  0.95860  Biso   1.000  H
  H41      1.0000 0.23750  0.40160  0.09990  Biso   1.000  H
  H42      1.0000 0.28950  0.31310  0.14460  Biso   1.000  H
  H43      1.0000 0.50780  0.90980  0.63680  Biso   1.000  H
  H44      1.0000 0.51500  0.87350  0.69330  Biso   1.000  H
  H45      1.0000 0.88790  0.02990  0.60530  Biso   1.000  H
  H46      1.0000 0.07130  0.99500  0.47690  Biso   1.000  H
  H47      1.0000 0.85000  0.87350  0.51310  Biso   1.000  H
  H48      1.0000 0.85750  0.90740  0.81230  Biso   1.000  H
  H49      1.0000 0.08060  0.78550  0.84020  Biso   1.000  H
  H50      1.0000 0.89600  0.75920  0.71080  Biso   1.000  H
  H51      1.0000 0.38660  0.01880  0.51970  Biso   1.000  H
  H52      1.0000 0.38240  0.20300  0.47950  Biso   1.000  H
  H53      1.0000 0.52770  0.14590  0.61540  Biso   1.000  H
  H54      1.0000 0.53950  0.63720  0.70040  Biso   1.000  H
  H55      1.0000 0.37340  0.56300  0.82320  Biso   1.000  H
  H56      1.0000 0.38410  0.75130  0.80090  Biso   1.000  H
  H57      1.0000 0.26500  0.00760  0.30840  Biso   1.000  H
  H58      1.0000 0.20920  0.93110  0.36670  Biso   1.000  H
  H59      1.0000 0.25750  0.80610  0.24600  Biso   1.000  H
  H60      1.0000 0.31340  0.88610  0.19050  Biso   1.000  H
  H61      1.0000 0.12930  0.80800  0.35940  Biso   1.000  H
  H62      1.0000 0.21380  0.76520  0.33550  Biso   1.000  H
  H63      1.0000 0.22530  0.77780  0.43450  Biso   1.000  H
  H64      1.0000 0.24490  0.85020  0.42550  Biso   1.000  H
  H65      1.0000 0.36940  0.75300  0.38970  Biso   1.000  H
  H66      1.0000 0.38780  0.82440  0.37560  Biso   1.000  H
  H67      1.0000 0.98400  0.44550  0.25470  Biso   1.000  H
  H68      1.0000 0.89520  0.43470  0.33500  Biso   1.000  H
  H69      1.0000 0.98280  0.60980  0.37560  Biso   1.000  H
  H70      1.0000 0.06800  0.61350  0.29580  Biso   1.000  H
  H71      1.0000 0.90370  0.49120  0.44480  Biso   1.000  H
  H72      1.0000 0.80610  0.49450  0.40990  Biso   1.000  H
  H73      1.0000 0.90350  0.60090  0.45600  Biso   1.000  H
  H74      1.0000 0.81100  0.60710  0.41710  Biso   1.000  H
  H75      1.0000 0.80830  0.54460  0.51830  Biso   1.000  H
  H76      1.0000 0.71630  0.55610  0.48020  Biso   1.000  H
  H77      1.0000 0.55840  0.90090  0.52340  Biso   1.000  H
  H78      1.0000 0.47170  0.89060  0.44280  Biso   1.000  H
  H79      1.0000 0.38190  0.72110  0.49300  Biso   1.000  H
  H80      1.0000 0.47060  0.73410  0.57270  Biso   1.000  H
  H81      1.0000 0.71410  0.78380  0.50750  Biso   1.000  H
  H82      1.0000 0.75470  0.69500  0.45860  Biso   1.000  H
  H83      1.0000 0.76250  0.59840  0.59990  Biso   1.000  H
  H84      1.0000 0.71050  0.68690  0.64460  Biso   1.000  H
  H85      1.0000 0.00780  0.59020  0.13680  Biso   1.000  H
  H86      1.0000 0.01500  0.62650  0.19330  Biso   1.000  H
  H87      1.0000 0.38790  0.47010  0.10530  Biso   1.000  H
  H88      1.0000 0.57130  0.50500  0.97690  Biso   1.000  H
  H89      1.0000 0.35000  0.62650  0.01310  Biso   1.000  H
  H90      1.0000 0.35750  0.59260  0.31230  Biso   1.000  H
  H91      1.0000 0.58060  0.71450  0.34020  Biso   1.000  H
  H92      1.0000 0.39600  0.74080  0.21080  Biso   1.000  H
  H93      1.0000 0.88660  0.48120  0.01970  Biso   1.000  H
  H94      1.0000 0.88240  0.29700  0.97950  Biso   1.000  H
  H95      1.0000 0.02770  0.35410  0.11540  Biso   1.000  H
  H96      1.0000 0.03950  0.86280  0.20040  Biso   1.000  H
  H97      1.0000 0.87340  0.93700  0.32320  Biso   1.000  H
  H98      1.0000 0.88410  0.74870  0.30090  Biso   1.000  H
  H99      1.0000 0.76500  0.49240  0.80840  Biso   1.000  H
  H100     1.0000 0.70920  0.56890  0.86670  Biso   1.000  H
  H101     1.0000 0.75750  0.69390  0.74600  Biso   1.000  H
  H102     1.0000 0.81340  0.61390  0.69050  Biso   1.000  H
  H103     1.0000 0.62930  0.69200  0.85940  Biso   1.000  H
  H104     1.0000 0.71380  0.73480  0.83550  Biso   1.000  H
  H105     1.0000 0.72530  0.72220  0.93450  Biso   1.000  H
  H106     1.0000 0.74490  0.64980  0.92550  Biso   1.000  H
  H107     1.0000 0.86940  0.74700  0.88970  Biso   1.000  H
  H108     1.0000 0.88780  0.67560  0.87560  Biso   1.000  H
  H109     1.0000 0.48400  0.05450  0.75470  Biso   1.000  H
  H110     1.0000 0.39520  0.06530  0.83500  Biso   1.000  H
  H111     1.0000 0.48280  0.89020  0.87560  Biso   1.000  H
  H112     1.0000 0.56800  0.88650  0.79580  Biso   1.000  H
  H113     1.0000 0.40370  0.00880  0.94480  Biso   1.000  H
  H114     1.0000 0.30610  0.00550  0.90990  Biso   1.000  H
  H115     1.0000 0.40350  0.89910  0.95600  Biso   1.000  H
  H116     1.0000 0.31100  0.89290  0.91710  Biso   1.000  H
  H117     1.0000 0.30830  0.95540  0.01830  Biso   1.000  H
  H118     1.0000 0.21630  0.94390  0.98020  Biso   1.000  H
  H119     1.0000 0.05840  0.59910  0.02340  Biso   1.000  H
  H120     1.0000 0.97170  0.60940  0.94280  Biso   1.000  H
  H121     1.0000 0.88190  0.77890  0.99300  Biso   1.000  H
  H122     1.0000 0.97060  0.76590  0.07270  Biso   1.000  H
  H123     1.0000 0.21410  0.71620  0.00750  Biso   1.000  H
  H124     1.0000 0.25470  0.80500  0.95860  Biso   1.000  H
  H125     1.0000 0.26250  0.90160  0.09990  Biso   1.000  H
  H126     1.0000 0.21050  0.81310  0.14460  Biso   1.000  H
  H127     1.0000 0.99220  0.40980  0.63680  Biso   1.000  H
  H128     1.0000 0.98500  0.37350  0.69330  Biso   1.000  H
  H129     1.0000 0.61210  0.52990  0.60530  Biso   1.000  H
  H130     1.0000 0.42870  0.49500  0.47690  Biso   1.000  H
  H131     1.0000 0.65000  0.37350  0.51310  Biso   1.000  H
  H132     1.0000 0.64250  0.40740  0.81230  Biso   1.000  H
  H133     1.0000 0.41940  0.28550  0.84020  Biso   1.000  H
  H134     1.0000 0.60400  0.25920  0.71080  Biso   1.000  H
  H135     1.0000 0.11340  0.51880  0.51970  Biso   1.000  H
  H136     1.0000 0.11760  0.70300  0.47950  Biso   1.000  H
  H137     1.0000 0.97230  0.64590  0.61540  Biso   1.000  H
  H138     1.0000 0.96050  0.13720  0.70040  Biso   1.000  H
  H139     1.0000 0.12660  0.06300  0.82320  Biso   1.000  H
  H140     1.0000 0.11590  0.25130  0.80090  Biso   1.000  H
  H141     1.0000 0.23500  0.50760  0.30840  Biso   1.000  H
  H142     1.0000 0.29080  0.43110  0.36670  Biso   1.000  H
  H143     1.0000 0.24250  0.30610  0.24600  Biso   1.000  H
  H144     1.0000 0.18660  0.38610  0.19050  Biso   1.000  H
  H145     1.0000 0.37070  0.30800  0.35940  Biso   1.000  H
  H146     1.0000 0.28620  0.26520  0.33550  Biso   1.000  H
  H147     1.0000 0.27470  0.27780  0.43450  Biso   1.000  H
  H148     1.0000 0.25510  0.35020  0.42550  Biso   1.000  H
  H149     1.0000 0.13060  0.25300  0.38970  Biso   1.000  H
  H150     1.0000 0.11220  0.32440  0.37560  Biso   1.000  H
  H151     1.0000 0.51600  0.94550  0.25470  Biso   1.000  H
  H152     1.0000 0.60480  0.93470  0.33500  Biso   1.000  H
  H153     1.0000 0.51720  0.10980  0.37560  Biso   1.000  H
  H154     1.0000 0.43200  0.11350  0.29580  Biso   1.000  H
  H155     1.0000 0.59630  0.99120  0.44480  Biso   1.000  H
  H156     1.0000 0.69390  0.99450  0.40990  Biso   1.000  H
  H157     1.0000 0.59650  0.10090  0.45600  Biso   1.000  H
  H158     1.0000 0.68900  0.10710  0.41710  Biso   1.000  H
  H159     1.0000 0.69170  0.04460  0.51830  Biso   1.000  H
  H160     1.0000 0.78370  0.05610  0.48020  Biso   1.000  H
  H161     1.0000 0.94160  0.40090  0.52340  Biso   1.000  H
  H162     1.0000 0.02830  0.39060  0.44280  Biso   1.000  H
  H163     1.0000 0.11810  0.22110  0.49300  Biso   1.000  H
  H164     1.0000 0.02940  0.23410  0.57270  Biso   1.000  H
  H165     1.0000 0.78590  0.28380  0.50750  Biso   1.000  H
  H166     1.0000 0.74530  0.19500  0.45860  Biso   1.000  H
  H167     1.0000 0.73750  0.09840  0.59990  Biso   1.000  H
  H168     1.0000 0.78950  0.18690  0.64460  Biso   1.000  H
  C1       1.0000 0.23660  0.06650  0.09610  Biso   1.000  C
  C2       1.0000 0.14580  0.05080  0.06400  Biso   1.000  C
  C3       1.0000 0.09340  0.99600  0.07580  Biso   1.000  C
  C4       1.0000 0.01270  0.98060  0.04280  Biso   1.000  C
  C5       1.0000 0.98190  0.01690  0.99910  Biso   1.000  C
  C6       1.0000 0.03330  0.07190  0.98970  Biso   1.000  C
  C7       1.0000 0.11590  0.08940  0.02110  Biso   1.000  C
  C8       1.0000 0.23090  0.14620  0.22450  Biso   1.000  C
  C9       1.0000 0.13900  0.16450  0.25680  Biso   1.000  C
  C10      1.0000 0.10840  0.12900  0.30210  Biso   1.000  C
  C11      1.0000 0.02770  0.14800  0.33170  Biso   1.000  C
  C12      1.0000 0.97350  0.20170  0.31910  Biso   1.000  C
  C13      1.0000 0.00590  0.23500  0.27280  Biso   1.000  C
  C14      1.0000 0.08570  0.21730  0.24180  Biso   1.000  C
  C15      1.0000 0.50830  0.97900  0.11290  Biso   1.000  C
  C16      1.0000 0.53880  0.92640  0.07350  Biso   1.000  C
  C17      1.0000 0.59480  0.93980  0.02730  Biso   1.000  C
  C18      1.0000 0.62340  0.89130  0.99240  Biso   1.000  C
  C19      1.0000 0.59750  0.82950  0.00300  Biso   1.000  C
  C20      1.0000 0.54190  0.81770  0.04870  Biso   1.000  C
  C21      1.0000 0.51080  0.86390  0.08460  Biso   1.000  C
  C22      1.0000 0.49940  0.23900  0.21310  Biso   1.000  C
  C23      1.0000 0.53100  0.29670  0.24530  Biso   1.000  C
  C24      1.0000 0.50270  0.35690  0.23050  Biso   1.000  C
  C25      1.0000 0.53640  0.40840  0.25990  Biso   1.000  C
  C26      1.0000 0.60240  0.40210  0.30400  Biso   1.000  C
  C27      1.0000 0.63000  0.34140  0.31760  Biso   1.000  C
  C28      1.0000 0.59600  0.28890  0.29000  Biso   1.000  C
  C29      1.0000 0.73680  0.03380  0.79550  Biso   1.000  C
  C30      1.0000 0.76940  0.07940  0.83110  Biso   1.000  C
  C31      1.0000 0.77020  0.14160  0.81330  Biso   1.000  C
  C32      1.0000 0.74070  0.15290  0.75990  Biso   1.000  C
  C33      1.0000 0.70840  0.10450  0.72630  Biso   1.000  C
  C34      1.0000 0.80010  0.19440  0.85290  Biso   1.000  C
  C35      1.0000 0.74600  0.19140  0.90930  Biso   1.000  C
  C36      1.0000 0.63940  0.20420  0.90330  Biso   1.000  C
  C37      1.0000 0.01590  0.52130  0.78010  Biso   1.000  C
  C38      1.0000 0.07050  0.52800  0.82800  Biso   1.000  C
  C39      1.0000 0.07350  0.47820  0.86580  Biso   1.000  C
  C40      1.0000 0.01840  0.42490  0.85170  Biso   1.000  C
  C41      1.0000 0.96700  0.42320  0.80390  Biso   1.000  C
  C42      1.0000 0.13280  0.48350  0.91810  Biso   1.000  C
  C43      1.0000 0.15730  0.41960  0.94470  Biso   1.000  C
  C44      1.0000 0.22160  0.42580  0.99250  Biso   1.000  C
  C45      1.0000 0.47660  0.13630  0.01730  Biso   1.000  C
  C46      1.0000 0.52890  0.14220  0.96850  Biso   1.000  C
  C47      1.0000 0.58240  0.19650  0.95710  Biso   1.000  C
  C48      1.0000 0.58170  0.24210  0.99800  Biso   1.000  C
  C49      1.0000 0.52820  0.23390  0.04610  Biso   1.000  C
  C50      1.0000 0.28030  0.25450  0.02640  Biso   1.000  C
  C51      1.0000 0.25480  0.30770  0.99680  Biso   1.000  C
  C52      1.0000 0.24330  0.36510  0.02340  Biso   1.000  C
  C53      1.0000 0.25150  0.36520  0.07960  Biso   1.000  C
  C54      1.0000 0.28060  0.31120  0.10620  Biso   1.000  C
  C55      1.0000 0.76340  0.93350  0.59610  Biso   1.000  C
  C56      1.0000 0.85420  0.94920  0.56400  Biso   1.000  C
  C57      1.0000 0.90660  0.00400  0.57580  Biso   1.000  C
  C58      1.0000 0.98730  0.01940  0.54280  Biso   1.000  C
  C59      1.0000 0.01810  0.98310  0.49910  Biso   1.000  C
  C60      1.0000 0.96670  0.92810  0.48970  Biso   1.000  C
  C61      1.0000 0.88410  0.91060  0.52110  Biso   1.000  C
  C62      1.0000 0.76910  0.85380  0.72450  Biso   1.000  C
  C63      1.0000 0.86100  0.83550  0.75680  Biso   1.000  C
  C64      1.0000 0.89160  0.87100  0.80210  Biso   1.000  C
  C65      1.0000 0.97230  0.85200  0.83170  Biso   1.000  C
  C66      1.0000 0.02650  0.79830  0.81910  Biso   1.000  C
  C67      1.0000 0.99410  0.76500  0.77280  Biso   1.000  C
  C68      1.0000 0.91430  0.78270  0.74180  Biso   1.000  C
  C69      1.0000 0.49170  0.02100  0.61290  Biso   1.000  C
  C70      1.0000 0.46120  0.07360  0.57350  Biso   1.000  C
  C71      1.0000 0.40520  0.06020  0.52730  Biso   1.000  C
  C72      1.0000 0.37660  0.10870  0.49240  Biso   1.000  C
  C73      1.0000 0.40250  0.17050  0.50300  Biso   1.000  C
  C74      1.0000 0.45810  0.18230  0.54870  Biso   1.000  C
  C75      1.0000 0.48920  0.13610  0.58460  Biso   1.000  C
  C76      1.0000 0.50060  0.76100  0.71310  Biso   1.000  C
  C77      1.0000 0.46900  0.70330  0.74530  Biso   1.000  C
  C78      1.0000 0.49730  0.64310  0.73050  Biso   1.000  C
  C79      1.0000 0.46360  0.59160  0.75990  Biso   1.000  C
  C80      1.0000 0.39760  0.59790  0.80400  Biso   1.000  C
  C81      1.0000 0.37000  0.65860  0.81760  Biso   1.000  C
  C82      1.0000 0.40400  0.71110  0.79000  Biso   1.000  C
  C83      1.0000 0.26320  0.96620  0.29550  Biso   1.000  C
  C84      1.0000 0.23060  0.92060  0.33110  Biso   1.000  C
  C85      1.0000 0.22980  0.85840  0.31330  Biso   1.000  C
  C86      1.0000 0.25930  0.84710  0.25990  Biso   1.000  C
  C87      1.0000 0.29160  0.89550  0.22630  Biso   1.000  C
  C88      1.0000 0.19990  0.80560  0.35290  Biso   1.000  C
  C89      1.0000 0.25400  0.80860  0.40930  Biso   1.000  C
  C90      1.0000 0.36060  0.79580  0.40330  Biso   1.000  C
  C91      1.0000 0.98410  0.47870  0.28010  Biso   1.000  C
  C92      1.0000 0.92950  0.47200  0.32800  Biso   1.000  C
  C93      1.0000 0.92650  0.52180  0.36580  Biso   1.000  C
  C94      1.0000 0.98160  0.57510  0.35170  Biso   1.000  C
  C95      1.0000 0.03300  0.57680  0.30390  Biso   1.000  C
  C96      1.0000 0.86720  0.51650  0.41810  Biso   1.000  C
  C97      1.0000 0.84270  0.58040  0.44470  Biso   1.000  C
  C98      1.0000 0.77840  0.57420  0.49250  Biso   1.000  C
  C99      1.0000 0.52340  0.86370  0.51730  Biso   1.000  C
  C100     1.0000 0.47110  0.85780  0.46850  Biso   1.000  C
  C101     1.0000 0.41760  0.80350  0.45710  Biso   1.000  C
  C102     1.0000 0.41830  0.75790  0.49800  Biso   1.000  C
  C103     1.0000 0.47180  0.76610  0.54610  Biso   1.000  C
  C104     1.0000 0.71970  0.74550  0.52640  Biso   1.000  C
  C105     1.0000 0.74520  0.69230  0.49680  Biso   1.000  C
  C106     1.0000 0.75670  0.63490  0.52340  Biso   1.000  C
  C107     1.0000 0.74850  0.63480  0.57960  Biso   1.000  C
  C108     1.0000 0.71940  0.68880  0.60620  Biso   1.000  C
  C109     1.0000 0.26340  0.56650  0.09610  Biso   1.000  C
  C110     1.0000 0.35420  0.55080  0.06400  Biso   1.000  C
  C111     1.0000 0.40660  0.49600  0.07580  Biso   1.000  C
  C112     1.0000 0.48730  0.48060  0.04280  Biso   1.000  C
  C113     1.0000 0.51810  0.51690  0.99910  Biso   1.000  C
  C114     1.0000 0.46670  0.57190  0.98970  Biso   1.000  C
  C115     1.0000 0.38410  0.58940  0.02110  Biso   1.000  C
  C116     1.0000 0.26910  0.64620  0.22450  Biso   1.000  C
  C117     1.0000 0.36100  0.66450  0.25680  Biso   1.000  C
  C118     1.0000 0.39160  0.62900  0.30210  Biso   1.000  C
  C119     1.0000 0.47230  0.64800  0.33170  Biso   1.000  C
  C120     1.0000 0.52650  0.70170  0.31910  Biso   1.000  C
  C121     1.0000 0.49410  0.73500  0.27280  Biso   1.000  C
  C122     1.0000 0.41430  0.71730  0.24180  Biso   1.000  C
  C123     1.0000 0.99170  0.47900  0.11290  Biso   1.000  C
  C124     1.0000 0.96120  0.42640  0.07350  Biso   1.000  C
  C125     1.0000 0.90520  0.43980  0.02730  Biso   1.000  C
  C126     1.0000 0.87660  0.39130  0.99240  Biso   1.000  C
  C127     1.0000 0.90250  0.32950  0.00300  Biso   1.000  C
  C128     1.0000 0.95810  0.31770  0.04870  Biso   1.000  C
  C129     1.0000 0.98920  0.36390  0.08460  Biso   1.000  C
  C130     1.0000 0.00060  0.73900  0.21310  Biso   1.000  C
  C131     1.0000 0.96900  0.79670  0.24530  Biso   1.000  C
  C132     1.0000 0.99730  0.85690  0.23050  Biso   1.000  C
  C133     1.0000 0.96360  0.90840  0.25990  Biso   1.000  C
  C134     1.0000 0.89760  0.90210  0.30400  Biso   1.000  C
  C135     1.0000 0.87000  0.84140  0.31760  Biso   1.000  C
  C136     1.0000 0.90400  0.78890  0.29000  Biso   1.000  C
  C137     1.0000 0.76320  0.53380  0.79550  Biso   1.000  C
  C138     1.0000 0.73060  0.57940  0.83110  Biso   1.000  C
  C139     1.0000 0.72980  0.64160  0.81330  Biso   1.000  C
  C140     1.0000 0.75930  0.65290  0.75990  Biso   1.000  C
  C141     1.0000 0.79160  0.60450  0.72630  Biso   1.000  C
  C142     1.0000 0.69990  0.69440  0.85290  Biso   1.000  C
  C143     1.0000 0.75400  0.69140  0.90930  Biso   1.000  C
  C144     1.0000 0.86060  0.70420  0.90330  Biso   1.000  C
  C145     1.0000 0.48410  0.02130  0.78010  Biso   1.000  C
  C146     1.0000 0.42950  0.02800  0.82800  Biso   1.000  C
  C147     1.0000 0.42650  0.97820  0.86580  Biso   1.000  C
  C148     1.0000 0.48160  0.92490  0.85170  Biso   1.000  C
  C149     1.0000 0.53300  0.92320  0.80390  Biso   1.000  C
  C150     1.0000 0.36720  0.98350  0.91810  Biso   1.000  C
  C151     1.0000 0.34270  0.91960  0.94470  Biso   1.000  C
  C152     1.0000 0.27840  0.92580  0.99250  Biso   1.000  C
  C153     1.0000 0.02340  0.63630  0.01730  Biso   1.000  C
  C154     1.0000 0.97110  0.64220  0.96850  Biso   1.000  C
  C155     1.0000 0.91760  0.69650  0.95710  Biso   1.000  C
  C156     1.0000 0.91830  0.74210  0.99800  Biso   1.000  C
  C157     1.0000 0.97180  0.73390  0.04610  Biso   1.000  C
  C158     1.0000 0.21970  0.75450  0.02640  Biso   1.000  C
  C159     1.0000 0.24520  0.80770  0.99680  Biso   1.000  C
  C160     1.0000 0.25670  0.86510  0.02340  Biso   1.000  C
  C161     1.0000 0.24850  0.86520  0.07960  Biso   1.000  C
  C162     1.0000 0.21940  0.81120  0.10620  Biso   1.000  C
  C163     1.0000 0.73660  0.43350  0.59610  Biso   1.000  C
  C164     1.0000 0.64580  0.44920  0.56400  Biso   1.000  C
  C165     1.0000 0.59340  0.50400  0.57580  Biso   1.000  C
  C166     1.0000 0.51270  0.51940  0.54280  Biso   1.000  C
  C167     1.0000 0.48190  0.48310  0.49910  Biso   1.000  C
  C168     1.0000 0.53330  0.42810  0.48970  Biso   1.000  C
  C169     1.0000 0.61590  0.41060  0.52110  Biso   1.000  C
  C170     1.0000 0.73090  0.35380  0.72450  Biso   1.000  C
  C171     1.0000 0.63900  0.33550  0.75680  Biso   1.000  C
  C172     1.0000 0.60840  0.37100  0.80210  Biso   1.000  C
  C173     1.0000 0.52770  0.35200  0.83170  Biso   1.000  C
  C174     1.0000 0.47350  0.29830  0.81910  Biso   1.000  C
  C175     1.0000 0.50590  0.26500  0.77280  Biso   1.000  C
  C176     1.0000 0.58570  0.28270  0.74180  Biso   1.000  C
  C177     1.0000 0.00830  0.52100  0.61290  Biso   1.000  C
  C178     1.0000 0.03880  0.57360  0.57350  Biso   1.000  C
  C179     1.0000 0.09480  0.56020  0.52730  Biso   1.000  C
  C180     1.0000 0.12340  0.60870  0.49240  Biso   1.000  C
  C181     1.0000 0.09750  0.67050  0.50300  Biso   1.000  C
  C182     1.0000 0.04190  0.68230  0.54870  Biso   1.000  C
  C183     1.0000 0.01080  0.63610  0.58460  Biso   1.000  C
  C184     1.0000 0.99940  0.26100  0.71310  Biso   1.000  C
  C185     1.0000 0.03100  0.20330  0.74530  Biso   1.000  C
  C186     1.0000 0.00270  0.14310  0.73050  Biso   1.000  C
  C187     1.0000 0.03640  0.09160  0.75990  Biso   1.000  C
  C188     1.0000 0.10240  0.09790  0.80400  Biso   1.000  C
  C189     1.0000 0.13000  0.15860  0.81760  Biso   1.000  C
  C190     1.0000 0.09600  0.21110  0.79000  Biso   1.000  C
  C191     1.0000 0.23680  0.46620  0.29550  Biso   1.000  C
  C192     1.0000 0.26940  0.42060  0.33110  Biso   1.000  C
  C193     1.0000 0.27020  0.35840  0.31330  Biso   1.000  C
  C194     1.0000 0.24070  0.34710  0.25990  Biso   1.000  C
  C195     1.0000 0.20840  0.39550  0.22630  Biso   1.000  C
  C196     1.0000 0.30010  0.30560  0.35290  Biso   1.000  C
  C197     1.0000 0.24600  0.30860  0.40930  Biso   1.000  C
  C198     1.0000 0.13940  0.29580  0.40330  Biso   1.000  C
  C199     1.0000 0.51590  0.97870  0.28010  Biso   1.000  C
  C200     1.0000 0.57050  0.97200  0.32800  Biso   1.000  C
  C201     1.0000 0.57350  0.02180  0.36580  Biso   1.000  C
  C202     1.0000 0.51840  0.07510  0.35170  Biso   1.000  C
  C203     1.0000 0.46700  0.07680  0.30390  Biso   1.000  C
  C204     1.0000 0.63280  0.01650  0.41810  Biso   1.000  C
  C205     1.0000 0.65730  0.08040  0.44470  Biso   1.000  C
  C206     1.0000 0.72160  0.07420  0.49250  Biso   1.000  C
  C207     1.0000 0.97660  0.36370  0.51730  Biso   1.000  C
  C208     1.0000 0.02890  0.35780  0.46850  Biso   1.000  C
  C209     1.0000 0.08240  0.30350  0.45710  Biso   1.000  C
  C210     1.0000 0.08170  0.25790  0.49800  Biso   1.000  C
  C211     1.0000 0.02820  0.26610  0.54610  Biso   1.000  C
  C212     1.0000 0.78030  0.24550  0.52640  Biso   1.000  C
  C213     1.0000 0.75480  0.19230  0.49680  Biso   1.000  C
  C214     1.0000 0.74330  0.13490  0.52340  Biso   1.000  C
  C215     1.0000 0.75150  0.13480  0.57960  Biso   1.000  C
  C216     1.0000 0.78060  0.18880  0.60620  Biso   1.000  C
  N1       1.0000 0.96030  0.92020  0.05310  Biso   1.000  N
  N2       1.0000 0.00350  0.11330  0.94380  Biso   1.000  N
  N3       1.0000 0.99570  0.10930  0.37950  Biso   1.000  N
  N4       1.0000 0.95290  0.29420  0.25960  Biso   1.000  N
  N5       1.0000 0.68770  0.90600  0.94400  Biso   1.000  N
  N6       1.0000 0.51870  0.75110  0.06130  Biso   1.000  N
  N7       1.0000 0.50610  0.47180  0.24370  Biso   1.000  N
  N8       1.0000 0.70210  0.33320  0.36380  Biso   1.000  N
  N9       1.0000 0.70730  0.04450  0.74324  Biso   1.000  N
  N10      1.0000 0.96280  0.47000  0.76760  Biso   1.000  N
  N11      1.0000 0.47340  0.18130  0.05660  Biso   1.000  N
  N12      1.0000 0.29710  0.25580  0.08086  Biso   1.000  N
  N13      1.0000 0.03970  0.07980  0.55310  Biso   1.000  N
  N14      1.0000 0.99650  0.88670  0.44380  Biso   1.000  N
  N15      1.0000 0.00430  0.89070  0.87950  Biso   1.000  N
  N16      1.0000 0.04710  0.70580  0.75960  Biso   1.000  N
  N17      1.0000 0.31230  0.09400  0.44400  Biso   1.000  N
  N18      1.0000 0.48130  0.24890  0.56130  Biso   1.000  N
  N19      1.0000 0.49390  0.52820  0.74370  Biso   1.000  N
  N20      1.0000 0.29790  0.66680  0.86380  Biso   1.000  N
  N21      1.0000 0.29270  0.95550  0.24324  Biso   1.000  N
  N22      1.0000 0.03720  0.53000  0.26760  Biso   1.000  N
  N23      1.0000 0.52660  0.81870  0.55660  Biso   1.000  N
  N24      1.0000 0.70290  0.74420  0.58086  Biso   1.000  N
  N25      1.0000 0.53970  0.42020  0.05310  Biso   1.000  N
  N26      1.0000 0.49650  0.61330  0.94380  Biso   1.000  N
  N27      1.0000 0.50430  0.60930  0.37950  Biso   1.000  N
  N28      1.0000 0.54710  0.79420  0.25960  Biso   1.000  N
  N29      1.0000 0.81230  0.40600  0.94400  Biso   1.000  N
  N30      1.0000 0.98130  0.25110  0.06130  Biso   1.000  N
  N31      1.0000 0.99390  0.97180  0.24370  Biso   1.000  N
  N32      1.0000 0.79790  0.83320  0.36380  Biso   1.000  N
  N33      1.0000 0.79270  0.54450  0.74324  Biso   1.000  N
  N34      1.0000 0.53720  0.97000  0.76760  Biso   1.000  N
  N35      1.0000 0.02660  0.68130  0.05660  Biso   1.000  N
  N36      1.0000 0.20290  0.75580  0.08086  Biso   1.000  N
  N37      1.0000 0.46030  0.57980  0.55310  Biso   1.000  N
  N38      1.0000 0.50350  0.38670  0.44380  Biso   1.000  N
  N39      1.0000 0.49570  0.39070  0.87950  Biso   1.000  N
  N40      1.0000 0.45290  0.20580  0.75960  Biso   1.000  N
  N41      1.0000 0.18770  0.59400  0.44400  Biso   1.000  N
  N42      1.0000 0.01870  0.74890  0.56130  Biso   1.000  N
  N43      1.0000 0.00610  0.02820  0.74370  Biso   1.000  N
  N44      1.0000 0.20210  0.16680  0.86380  Biso   1.000  N
  N45      1.0000 0.20730  0.45550  0.24324  Biso   1.000  N
  N46      1.0000 0.46280  0.03000  0.26760  Biso   1.000  N
  N47      1.0000 0.97340  0.31870  0.55660  Biso   1.000  N
  N48      1.0000 0.79710  0.24420  0.58086  Biso   1.000  N
  O1       1.0000 0.44620  0.10772  0.16366  Biso   1.000  O
  O2       1.0000 0.26050  0.02922  0.13446  Biso   1.000  O
  O3       1.0000 0.28230  0.11508  0.08118  Biso   1.000  O
  O4       1.0000 0.89940  0.90340  0.01860  Biso   1.000  O
  O5       1.0000 0.98030  0.89100  0.09490  Biso   1.000  O
  O6       1.0000 0.94260  0.09290  0.91170  Biso   1.000  O
  O7       1.0000 0.04140  0.16500  0.93970  Biso   1.000  O
  O8       1.0000 0.27340  0.09616  0.23925  Biso   1.000  O
  O9       1.0000 0.25740  0.18278  0.18666  Biso   1.000  O
  O10      1.0000 0.93340  0.13060  0.41010  Biso   1.000  O
  O11      1.0000 0.03320  0.05870  0.38650  Biso   1.000  O
  O12      1.0000 0.88910  0.31320  0.29050  Biso   1.000  O
  O13      1.0000 0.97910  0.32250  0.21840  Biso   1.000  O
  O14      1.0000 0.44550  0.96571  0.14985  Biso   1.000  O
  O15      1.0000 0.54700  0.03126  0.10460  Biso   1.000  O
  O16      1.0000 0.71400  0.86220  0.91550  Biso   1.000  O
  O17      1.0000 0.70250  0.96070  0.93330  Biso   1.000  O
  O18      1.0000 0.46070  0.74090  0.09940  Biso   1.000  O
  O19      1.0000 0.56100  0.70950  0.03620  Biso   1.000  O
  O20      1.0000 0.44410  0.24854  0.17221  Biso   1.000  O
  O21      1.0000 0.52910  0.18737  0.23010  Biso   1.000  O
  O22      1.0000 0.44300  0.47720  0.20930  Biso   1.000  O
  O23      1.0000 0.53960  0.51600  0.26630  Biso   1.000  O
  O24      1.0000 0.73440  0.38030  0.38720  Biso   1.000  O
  O25      1.0000 0.72600  0.27930  0.37540  Biso   1.000  O
  O26      1.0000 0.55380  0.89228  0.66366  Biso   1.000  O
  O27      1.0000 0.73950  0.97078  0.63446  Biso   1.000  O
  O28      1.0000 0.71770  0.88492  0.58118  Biso   1.000  O
  O29      1.0000 0.10060  0.09660  0.51860  Biso   1.000  O
  O30      1.0000 0.01970  0.10900  0.59490  Biso   1.000  O
  O31      1.0000 0.05740  0.90710  0.41170  Biso   1.000  O
  O32      1.0000 0.95860  0.83500  0.43970  Biso   1.000  O
  O33      1.0000 0.72660  0.90384  0.73925  Biso   1.000  O
  O34      1.0000 0.74260  0.81722  0.68666  Biso   1.000  O
  O35      1.0000 0.06660  0.86940  0.91010  Biso   1.000  O
  O36      1.0000 0.96680  0.94130  0.88650  Biso   1.000  O
  O37      1.0000 0.11090  0.68680  0.79050  Biso   1.000  O
  O38      1.0000 0.02090  0.67750  0.71840  Biso   1.000  O
  O39      1.0000 0.55450  0.03429  0.64985  Biso   1.000  O
  O40      1.0000 0.45300  0.96874  0.60460  Biso   1.000  O
  O41      1.0000 0.28600  0.13780  0.41550  Biso   1.000  O
  O42      1.0000 0.29750  0.03930  0.43330  Biso   1.000  O
  O43      1.0000 0.53930  0.25910  0.59940  Biso   1.000  O
  O44      1.0000 0.43900  0.29050  0.53620  Biso   1.000  O
  O45      1.0000 0.55590  0.75146  0.67221  Biso   1.000  O
  O46      1.0000 0.47090  0.81263  0.73010  Biso   1.000  O
  O47      1.0000 0.55700  0.52280  0.70930  Biso   1.000  O
  O48      1.0000 0.46040  0.48400  0.76630  Biso   1.000  O
  O49      1.0000 0.26560  0.61970  0.88720  Biso   1.000  O
  O50      1.0000 0.27400  0.72070  0.87540  Biso   1.000  O
  O51      1.0000 0.05380  0.60772  0.16366  Biso   1.000  O
  O52      1.0000 0.23950  0.52922  0.13446  Biso   1.000  O
  O53      1.0000 0.21770  0.61508  0.08118  Biso   1.000  O
  O54      1.0000 0.60060  0.40340  0.01860  Biso   1.000  O
  O55      1.0000 0.51970  0.39100  0.09490  Biso   1.000  O
  O56      1.0000 0.55740  0.59290  0.91170  Biso   1.000  O
  O57      1.0000 0.45860  0.66500  0.93970  Biso   1.000  O
  O58      1.0000 0.22660  0.59616  0.23925  Biso   1.000  O
  O59      1.0000 0.24260  0.68278  0.18666  Biso   1.000  O
  O60      1.0000 0.56660  0.63060  0.41010  Biso   1.000  O
  O61      1.0000 0.46680  0.55870  0.38650  Biso   1.000  O
  O62      1.0000 0.61090  0.81320  0.29050  Biso   1.000  O
  O63      1.0000 0.52090  0.82250  0.21840  Biso   1.000  O
  O64      1.0000 0.05450  0.46571  0.14985  Biso   1.000  O
  O65      1.0000 0.95300  0.53126  0.10460  Biso   1.000  O
  O66      1.0000 0.78600  0.36220  0.91550  Biso   1.000  O
  O67      1.0000 0.79750  0.46070  0.93330  Biso   1.000  O
  O68      1.0000 0.03930  0.24090  0.09940  Biso   1.000  O
  O69      1.0000 0.93900  0.20950  0.03620  Biso   1.000  O
  O70      1.0000 0.05590  0.74854  0.17221  Biso   1.000  O
  O71      1.0000 0.97090  0.68737  0.23010  Biso   1.000  O
  O72      1.0000 0.05700  0.97720  0.20930  Biso   1.000  O
  O73      1.0000 0.96040  0.01600  0.26630  Biso   1.000  O
  O74      1.0000 0.76560  0.88030  0.38720  Biso   1.000  O
  O75      1.0000 0.77400  0.77930  0.37540  Biso   1.000  O
  O76      1.0000 0.94620  0.39228  0.66366  Biso   1.000  O
  O77      1.0000 0.76050  0.47078  0.63446  Biso   1.000  O
  O78      1.0000 0.78230  0.38492  0.58118  Biso   1.000  O
  O79      1.0000 0.39940  0.59660  0.51860  Biso   1.000  O
  O80      1.0000 0.48030  0.60900  0.59490  Biso   1.000  O
  O81      1.0000 0.44260  0.40710  0.41170  Biso   1.000  O
  O82      1.0000 0.54140  0.33500  0.43970  Biso   1.000  O
  O83      1.0000 0.77340  0.40384  0.73925  Biso   1.000  O
  O84      1.0000 0.75740  0.31722  0.68666  Biso   1.000  O
  O85      1.0000 0.43340  0.36940  0.91010  Biso   1.000  O
  O86      1.0000 0.53320  0.44130  0.88650  Biso   1.000  O
  O87      1.0000 0.38910  0.18680  0.79050  Biso   1.000  O
  O88      1.0000 0.47910  0.17750  0.71840  Biso   1.000  O
  O89      1.0000 0.94550  0.53429  0.64985  Biso   1.000  O
  O90      1.0000 0.04700  0.46874  0.60460  Biso   1.000  O
  O91      1.0000 0.21400  0.63780  0.41550  Biso   1.000  O
  O92      1.0000 0.20250  0.53930  0.43330  Biso   1.000  O
  O93      1.0000 0.96070  0.75910  0.59940  Biso   1.000  O
  O94      1.0000 0.06100  0.79050  0.53620  Biso   1.000  O
  O95      1.0000 0.94410  0.25146  0.67221  Biso   1.000  O
  O96      1.0000 0.02910  0.31263  0.73010  Biso   1.000  O
  O97      1.0000 0.94300  0.02280  0.70930  Biso   1.000  O
  O98      1.0000 0.03960  0.98400  0.76630  Biso   1.000  O
  O99      1.0000 0.23440  0.11970  0.88720  Biso   1.000  O
  O100     1.0000 0.22600  0.22070  0.87540  Biso   1.000  O
