data_POHMAC_freeONLY
_audit_creation_date              2015-10-16
_audit_creation_method            'Materials Studio'
_symmetry_space_group_name_H-M    'P1'
_symmetry_Int_Tables_number       1
_symmetry_cell_setting            triclinic
loop_
_symmetry_equiv_pos_as_xyz
  x,y,z
_cell_length_a                    8.7830
_cell_length_b                    9.2850
_cell_length_c                    18.9520
_cell_angle_alpha                 90.0000
_cell_angle_beta                  90.0000
_cell_angle_gamma                 109.3980
loop_
_atom_site_label
_atom_site_type_symbol
_atom_site_fract_x
_atom_site_fract_y
_atom_site_fract_z
_atom_site_U_iso_or_equiv
_atom_site_adp_type
_atom_site_occupancy
Gd1    Gd    0.21026   0.48489   0.55312   0.01267  Uiso   1.00
Gd2    Gd    0.78974   0.01511   0.05312   0.01267  Uiso   1.00
Gd3    Gd    0.21026   0.98489   0.94688   0.01267  Uiso   1.00
Gd4    Gd    0.78974   0.51511   0.44688   0.01267  Uiso   1.00
H1     H     0.20140   0.44090   0.05890   0.01267  Uiso   1.00
H2     H     0.20140   0.94090   0.44110   0.01267  Uiso   1.00
H3     H     0.58970   0.57410   0.70950   0.01267  Uiso   1.00
H4     H     0.36140   0.23910   0.06240   0.01267  Uiso   1.00
H5     H     0.74540   0.30710   0.09070   0.01267  Uiso   1.00
H6     H     0.58970   0.07410   0.79050   0.01267  Uiso   1.00
H7     H     0.76570   0.70500   0.33440   0.01267  Uiso   1.00
H8     H     0.25460   0.69290   0.90930   0.01267  Uiso   1.00
H9     H     0.74510   0.16900   0.69180   0.01267  Uiso   1.00
H10    H     0.79860   0.55910   0.94110   0.01267  Uiso   1.00
H11    H     0.23430   0.29500   0.66560   0.01267  Uiso   1.00
H12    H     0.24620   0.06010   0.08010   0.01267  Uiso   1.00
H13    H     0.41030   0.42590   0.29050   0.01267  Uiso   1.00
H14    H     0.25490   0.33100   0.19180   0.01267  Uiso   1.00
H15    H     0.93850   0.01630   0.31290   0.01267  Uiso   1.00
H16    H     0.06150   0.98370   0.68710   0.01267  Uiso   1.00
H17    H     0.74540   0.80710   0.40930   0.01267  Uiso   1.00
H18    H     0.76570   0.20500   0.16560   0.01267  Uiso   1.00
H19    H     0.63860   0.26090   0.56240   0.01267  Uiso   1.00
H20    H     0.74510   0.66900   0.80820   0.01267  Uiso   1.00
H21    H     0.25460   0.19290   0.59070   0.01267  Uiso   1.00
H22    H     0.24620   0.56010   0.41990   0.01267  Uiso   1.00
H23    H     0.23430   0.79500   0.83440   0.01267  Uiso   1.00
H24    H     0.93850   0.51630   0.18710   0.01267  Uiso   1.00
H25    H     0.63860   0.76090   0.93760   0.01267  Uiso   1.00
H26    H     0.36140   0.73910   0.43760   0.01267  Uiso   1.00
H27    H     0.25490   0.83100   0.30820   0.01267  Uiso   1.00
H28    H     0.41030   0.92590   0.20950   0.01267  Uiso   1.00
H29    H     0.06150   0.48370   0.81290   0.01267  Uiso   1.00
H30    H     0.75380   0.43990   0.58010   0.01267  Uiso   1.00
H31    H     0.79860   0.05910   0.55890   0.01267  Uiso   1.00
H32    H     0.75380   0.93990   0.91990   0.01267  Uiso   1.00
C1     C     0.27220   0.27520   0.36100   0.01267  Uiso   1.00
C2     C     0.01780   0.90060   0.82180   0.01267  Uiso   1.00
C3     C     0.22350   0.28590   0.23570   0.01267  Uiso   1.00
C4     C     0.38360   0.84000   0.07740   0.01267  Uiso   1.00
C5     C     0.68350   0.15790   0.79490   0.01267  Uiso   1.00
C6     C     0.01780   0.40060   0.67820   0.01267  Uiso   1.00
C7     C     0.72780   0.72480   0.63900   0.01267  Uiso   1.00
C8     C     0.94390   0.61300   0.02590   0.01267  Uiso   1.00
C9     C     0.12030   0.46530   0.03540   0.01267  Uiso   1.00
C10    C     0.22350   0.78590   0.26430   0.01267  Uiso   1.00
C11    C     0.68350   0.65790   0.70510   0.01267  Uiso   1.00
C12    C     0.27220   0.77520   0.13900   0.01267  Uiso   1.00
C13    C     0.06730   0.07850   0.43740   0.01267  Uiso   1.00
C14    C     0.91730   0.33860   0.74240   0.01267  Uiso   1.00
C15    C     0.91730   0.83860   0.75760   0.01267  Uiso   1.00
C16    C     0.89630   0.74490   0.04860   0.01267  Uiso   1.00
C17    C     0.96580   0.90220   0.69150   0.01267  Uiso   1.00
C18    C     0.31650   0.34210   0.29490   0.01267  Uiso   1.00
C19    C     0.12780   0.65510   0.13160   0.01267  Uiso   1.00
C20    C     0.87220   0.84490   0.63160   0.01267  Uiso   1.00
C21    C     0.87970   0.03470   0.53540   0.01267  Uiso   1.00
C22    C     0.05610   0.38700   0.97410   0.01267  Uiso   1.00
C23    C     0.08270   0.16140   0.24240   0.01267  Uiso   1.00
C24    C     0.96580   0.40220   0.80850   0.01267  Uiso   1.00
C25    C     0.94390   0.11300   0.47410   0.01267  Uiso   1.00
C26    C     0.77650   0.71410   0.76430   0.01267  Uiso   1.00
C27    C     0.87220   0.34490   0.86840   0.01267  Uiso   1.00
C28    C     0.06730   0.57850   0.06260   0.01267  Uiso   1.00
C29    C     0.87970   0.53470   0.96460   0.01267  Uiso   1.00
C30    C     0.61640   0.16000   0.92260   0.01267  Uiso   1.00
C31    C     0.98220   0.09940   0.17820   0.01267  Uiso   1.00
C32    C     0.08270   0.66140   0.25760   0.01267  Uiso   1.00
C33    C     0.98220   0.59940   0.32180   0.01267  Uiso   1.00
C34    C     0.12030   0.96530   0.46460   0.01267  Uiso   1.00
C35    C     0.93270   0.42150   0.93740   0.01267  Uiso   1.00
C36    C     0.77650   0.21410   0.73570   0.01267  Uiso   1.00
C37    C     0.12780   0.15510   0.36840   0.01267  Uiso   1.00
C38    C     0.72780   0.22480   0.86100   0.01267  Uiso   1.00
C39    C     0.03420   0.09780   0.30850   0.01267  Uiso   1.00
C40    C     0.10370   0.25510   0.95140   0.01267  Uiso   1.00
C41    C     0.05610   0.88700   0.52590   0.01267  Uiso   1.00
C42    C     0.61640   0.66000   0.57740   0.01267  Uiso   1.00
C43    C     0.89630   0.24490   0.45140   0.01267  Uiso   1.00
C44    C     0.31650   0.84210   0.20510   0.01267  Uiso   1.00
C45    C     0.03420   0.59780   0.19150   0.01267  Uiso   1.00
C46    C     0.93270   0.92150   0.56260   0.01267  Uiso   1.00
C47    C     0.38360   0.34000   0.42260   0.01267  Uiso   1.00
C48    C     0.10370   0.75510   0.54860   0.01267  Uiso   1.00
O1     O     0.23910   0.27120   0.92500   0.01267  Uiso   1.00
O2     O     0.73220   0.71680   0.38090   0.01267  Uiso   1.00
O3     O     0.73220   0.21680   0.11910   0.01267  Uiso   1.00
O4     O     0.67450   0.66000   0.51670   0.01267  Uiso   1.00
O5     O     0.26780   0.28320   0.61910   0.01267  Uiso   1.00
O6     O     0.23910   0.77120   0.57500   0.01267  Uiso   1.00
O7     O     0.46800   0.61170   0.59200   0.01267  Uiso   1.00
O8     O     0.30320   0.63280   0.44540   0.01267  Uiso   1.00
O9     O     0.32550   0.84000   0.01670   0.01267  Uiso   1.00
O10    O     0.00520   0.62160   0.53540   0.01267  Uiso   1.00
O11    O     0.15180   0.50270   0.68260   0.01267  Uiso   1.00
O12    O     0.00520   0.12160   0.96460   0.01267  Uiso   1.00
O13    O     0.76090   0.22880   0.42500   0.01267  Uiso   1.00
O14    O     0.53200   0.88830   0.09200   0.01267  Uiso   1.00
O15    O     0.84820   0.99730   0.18260   0.01267  Uiso   1.00
O16    O     0.84820   0.49730   0.31740   0.01267  Uiso   1.00
O17    O     0.69680   0.86720   0.94540   0.01267  Uiso   1.00
O18    O     0.53200   0.38830   0.40800   0.01267  Uiso   1.00
O19    O     0.99480   0.87840   0.03540   0.01267  Uiso   1.00
O20    O     0.03690   0.15510   0.11820   0.01267  Uiso   1.00
O21    O     0.69680   0.36720   0.55460   0.01267  Uiso   1.00
O22    O     0.46800   0.11170   0.90800   0.01267  Uiso   1.00
O23    O     0.32550   0.34000   0.48330   0.01267  Uiso   1.00
O24    O     0.96310   0.84490   0.88180   0.01267  Uiso   1.00
O25    O     0.99480   0.37840   0.46460   0.01267  Uiso   1.00
O26    O     0.67450   0.16000   0.98330   0.01267  Uiso   1.00
O27    O     0.26780   0.78320   0.88090   0.01267  Uiso   1.00
O28    O     0.15180   0.00270   0.81740   0.01267  Uiso   1.00
O29    O     0.30320   0.13280   0.05460   0.01267  Uiso   1.00
O30    O     0.76090   0.72880   0.07500   0.01267  Uiso   1.00
O31    O     0.03690   0.65510   0.38180   0.01267  Uiso   1.00
O32    O     0.96310   0.34490   0.61820   0.01267  Uiso   1.00
