data_image0
_cell_length_a       6.8351
_cell_length_b       15.0362
_cell_length_c       19.3197
_cell_angle_alpha    90
_cell_angle_beta     96.305
_cell_angle_gamma    90

_symmetry_space_group_name_H-M    P 1
_symmetry_int_tables_number       1

loop_
  _symmetry_equiv_pos_as_xyz
  'x, y, z'

loop_
  _atom_site_label
  _atom_site_occupancy
  _atom_site_fract_x
  _atom_site_fract_y
  _atom_site_fract_z
  _atom_site_thermal_displace_type
  _atom_site_B_iso_or_equiv
  _atom_site_type_symbol
  Fe1      1.0000 0.52510  0.74420  0.50560  Biso   1.000  Fe
  Fe2      1.0000 0.97490  0.24420  0.49440  Biso   1.000  Fe
  Fe3      1.0000 0.47490  0.25580  0.49440  Biso   1.000  Fe
  Fe4      1.0000 0.02510  0.75580  0.50560  Biso   1.000  Fe
  Fe5      1.0000 0.50000  0.00000  0.00000  Biso   1.000  Fe
  Fe6      1.0000 0.00000  0.50000  0.00000  Biso   1.000  Fe
  Fe7      1.0000 0.50000  0.50000  0.00000  Biso   1.000  Fe
  Fe8      1.0000 0.00000  0.00000  0.00000  Biso   1.000  Fe
  H1       1.0000 0.48390  0.63090  0.17200  Biso   1.000  H
  H2       1.0000 0.45830  0.66510  0.28940  Biso   1.000  H
  H3       1.0000 0.03810  0.60560  0.33780  Biso   1.000  H
  H4       1.0000 0.06370  0.57140  0.22050  Biso   1.000  H
  H5       1.0000 0.47380  0.61490  0.66960  Biso   1.000  H
  H6       1.0000 0.44260  0.58880  0.78780  Biso   1.000  H
  H7       1.0000 0.02650  0.63970  0.83610  Biso   1.000  H
  H8       1.0000 0.05770  0.66580  0.71790  Biso   1.000  H
  H9       1.0000 0.01610  0.13090  0.82800  Biso   1.000  H
  H10      1.0000 0.04170  0.16510  0.71060  Biso   1.000  H
  H11      1.0000 0.46190  0.10560  0.66220  Biso   1.000  H
  H12      1.0000 0.43630  0.07140  0.77950  Biso   1.000  H
  H13      1.0000 0.02620  0.11490  0.33040  Biso   1.000  H
  H14      1.0000 0.05740  0.08880  0.21220  Biso   1.000  H
  H15      1.0000 0.47350  0.13970  0.16390  Biso   1.000  H
  H16      1.0000 0.44230  0.16580  0.28210  Biso   1.000  H
  H17      1.0000 0.51610  0.36910  0.82800  Biso   1.000  H
  H18      1.0000 0.54170  0.33490  0.71060  Biso   1.000  H
  H19      1.0000 0.96190  0.39440  0.66220  Biso   1.000  H
  H20      1.0000 0.93630  0.42860  0.77950  Biso   1.000  H
  H21      1.0000 0.52620  0.38510  0.33040  Biso   1.000  H
  H22      1.0000 0.55740  0.41120  0.21220  Biso   1.000  H
  H23      1.0000 0.97350  0.36030  0.16390  Biso   1.000  H
  H24      1.0000 0.94230  0.33420  0.28210  Biso   1.000  H
  H25      1.0000 0.98390  0.86910  0.17200  Biso   1.000  H
  H26      1.0000 0.95830  0.83490  0.28940  Biso   1.000  H
  H27      1.0000 0.53810  0.89440  0.33780  Biso   1.000  H
  H28      1.0000 0.56370  0.92860  0.22050  Biso   1.000  H
  H29      1.0000 0.97380  0.88510  0.66960  Biso   1.000  H
  H30      1.0000 0.94260  0.91120  0.78780  Biso   1.000  H
  H31      1.0000 0.52650  0.86030  0.83610  Biso   1.000  H
  H32      1.0000 0.55770  0.83420  0.71790  Biso   1.000  H
  C1       1.0000 0.77590  0.59830  0.18650  Biso   1.000  C
  C2       1.0000 0.59940  0.62560  0.20660  Biso   1.000  C
  C3       1.0000 0.58450  0.64560  0.27500  Biso   1.000  C
  C4       1.0000 0.74610  0.63820  0.32340  Biso   1.000  C
  C5       1.0000 0.92260  0.61090  0.30330  Biso   1.000  C
  C6       1.0000 0.93750  0.59090  0.23490  Biso   1.000  C
  C7       1.0000 0.79240  0.57620  0.11100  Biso   1.000  C
  C8       1.0000 0.72960  0.66020  0.39890  Biso   1.000  C
  C9       1.0000 0.76840  0.64260  0.68390  Biso   1.000  C
  C10      1.0000 0.58910  0.62010  0.70430  Biso   1.000  C
  C11      1.0000 0.57090  0.60480  0.77320  Biso   1.000  C
  C12      1.0000 0.73200  0.61200  0.82180  Biso   1.000  C
  C13      1.0000 0.91130  0.63450  0.80140  Biso   1.000  C
  C14      1.0000 0.92950  0.64980  0.73250  Biso   1.000  C
  C15      1.0000 0.78800  0.65900  0.60950  Biso   1.000  C
  C16      1.0000 0.21230  0.90440  0.89620  Biso   1.000  C
  C17      1.0000 0.72410  0.09830  0.81350  Biso   1.000  C
  C18      1.0000 0.90060  0.12560  0.79340  Biso   1.000  C
  C19      1.0000 0.91550  0.14560  0.72500  Biso   1.000  C
  C20      1.0000 0.75390  0.13820  0.67660  Biso   1.000  C
  C21      1.0000 0.57740  0.11090  0.69670  Biso   1.000  C
  C22      1.0000 0.56250  0.09090  0.76510  Biso   1.000  C
  C23      1.0000 0.70760  0.07620  0.88900  Biso   1.000  C
  C24      1.0000 0.77040  0.16020  0.60110  Biso   1.000  C
  C25      1.0000 0.73160  0.14260  0.31610  Biso   1.000  C
  C26      1.0000 0.91090  0.12010  0.29570  Biso   1.000  C
  C27      1.0000 0.92910  0.10480  0.22680  Biso   1.000  C
  C28      1.0000 0.76800  0.11200  0.17820  Biso   1.000  C
  C29      1.0000 0.58870  0.13450  0.19860  Biso   1.000  C
  C30      1.0000 0.57050  0.14980  0.26750  Biso   1.000  C
  C31      1.0000 0.71200  0.15900  0.39050  Biso   1.000  C
  C32      1.0000 0.28770  0.40440  0.10380  Biso   1.000  C
  C33      1.0000 0.22410  0.40170  0.81350  Biso   1.000  C
  C34      1.0000 0.40060  0.37440  0.79340  Biso   1.000  C
  C35      1.0000 0.41550  0.35440  0.72500  Biso   1.000  C
  C36      1.0000 0.25390  0.36180  0.67660  Biso   1.000  C
  C37      1.0000 0.07740  0.38910  0.69670  Biso   1.000  C
  C38      1.0000 0.06250  0.40910  0.76510  Biso   1.000  C
  C39      1.0000 0.20760  0.42380  0.88900  Biso   1.000  C
  C40      1.0000 0.27040  0.33980  0.60110  Biso   1.000  C
  C41      1.0000 0.23160  0.35740  0.31610  Biso   1.000  C
  C42      1.0000 0.41090  0.37990  0.29570  Biso   1.000  C
  C43      1.0000 0.42910  0.39520  0.22680  Biso   1.000  C
  C44      1.0000 0.26800  0.38800  0.17820  Biso   1.000  C
  C45      1.0000 0.08870  0.36550  0.19860  Biso   1.000  C
  C46      1.0000 0.07050  0.35020  0.26750  Biso   1.000  C
  C47      1.0000 0.21200  0.34100  0.39050  Biso   1.000  C
  C48      1.0000 0.78770  0.09560  0.10380  Biso   1.000  C
  C49      1.0000 0.27590  0.90170  0.18650  Biso   1.000  C
  C50      1.0000 0.09940  0.87440  0.20660  Biso   1.000  C
  C51      1.0000 0.08450  0.85440  0.27500  Biso   1.000  C
  C52      1.0000 0.24610  0.86180  0.32340  Biso   1.000  C
  C53      1.0000 0.42260  0.88910  0.30330  Biso   1.000  C
  C54      1.0000 0.43750  0.90910  0.23490  Biso   1.000  C
  C55      1.0000 0.29240  0.92380  0.11100  Biso   1.000  C
  C56      1.0000 0.22960  0.83980  0.39890  Biso   1.000  C
  C57      1.0000 0.26840  0.85740  0.68390  Biso   1.000  C
  C58      1.0000 0.08910  0.87990  0.70430  Biso   1.000  C
  C59      1.0000 0.07090  0.89520  0.77320  Biso   1.000  C
  C60      1.0000 0.23200  0.88800  0.82180  Biso   1.000  C
  C61      1.0000 0.41130  0.86550  0.80140  Biso   1.000  C
  C62      1.0000 0.42950  0.85020  0.73250  Biso   1.000  C
  C63      1.0000 0.28800  0.84100  0.60950  Biso   1.000  C
  C64      1.0000 0.71230  0.59560  0.89620  Biso   1.000  C
  O1       1.0000 0.27860  0.68840  0.50540  Biso   1.000  O
  O2       1.0000 0.74440  0.93340  0.99960  Biso   1.000  O
  O3       1.0000 0.64000  0.57740  0.06700  Biso   1.000  O
  O4       1.0000 0.95850  0.55660  0.09150  Biso   1.000  O
  O5       1.0000 0.56780  0.68830  0.41710  Biso   1.000  O
  O6       1.0000 0.37770  0.84940  0.44410  Biso   1.000  O
  O7       1.0000 0.63950  0.65070  0.56430  Biso   1.000  O
  O8       1.0000 0.45340  0.81850  0.59080  Biso   1.000  O
  O9       1.0000 0.04490  0.92230  0.91540  Biso   1.000  O
  O10      1.0000 0.36290  0.90070  0.94090  Biso   1.000  O
  O11      1.0000 0.22140  0.18840  0.49460  Biso   1.000  O
  O12      1.0000 0.75560  0.43340  0.00040  Biso   1.000  O
  O13      1.0000 0.86000  0.07740  0.93300  Biso   1.000  O
  O14      1.0000 0.54150  0.05660  0.90850  Biso   1.000  O
  O15      1.0000 0.93220  0.18830  0.58290  Biso   1.000  O
  O16      1.0000 0.12230  0.34940  0.55590  Biso   1.000  O
  O17      1.0000 0.86050  0.15070  0.43570  Biso   1.000  O
  O18      1.0000 0.04660  0.31850  0.40920  Biso   1.000  O
  O19      1.0000 0.45510  0.42230  0.08460  Biso   1.000  O
  O20      1.0000 0.13710  0.40070  0.05910  Biso   1.000  O
  O21      1.0000 0.72140  0.31160  0.49460  Biso   1.000  O
  O22      1.0000 0.25560  0.06660  0.00040  Biso   1.000  O
  O23      1.0000 0.36000  0.42260  0.93300  Biso   1.000  O
  O24      1.0000 0.04150  0.44340  0.90850  Biso   1.000  O
  O25      1.0000 0.43220  0.31170  0.58290  Biso   1.000  O
  O26      1.0000 0.62230  0.15060  0.55590  Biso   1.000  O
  O27      1.0000 0.36050  0.34930  0.43570  Biso   1.000  O
  O28      1.0000 0.54660  0.18150  0.40920  Biso   1.000  O
  O29      1.0000 0.95510  0.07770  0.08460  Biso   1.000  O
  O30      1.0000 0.63710  0.09930  0.05910  Biso   1.000  O
  O31      1.0000 0.77860  0.81160  0.50540  Biso   1.000  O
  O32      1.0000 0.24440  0.56660  0.99960  Biso   1.000  O
  O33      1.0000 0.14000  0.92260  0.06700  Biso   1.000  O
  O34      1.0000 0.45850  0.94340  0.09150  Biso   1.000  O
  O35      1.0000 0.06780  0.81170  0.41710  Biso   1.000  O
  O36      1.0000 0.87770  0.65060  0.44410  Biso   1.000  O
  O37      1.0000 0.13950  0.84930  0.56430  Biso   1.000  O
  O38      1.0000 0.95340  0.68150  0.59080  Biso   1.000  O
  O39      1.0000 0.54490  0.57770  0.91540  Biso   1.000  O
  O40      1.0000 0.86290  0.59930  0.94090  Biso   1.000  O
