data_image0
_cell_length_a       8.787
_cell_length_b       17.783
_cell_length_c       9.204
_cell_angle_alpha    90
_cell_angle_beta     109.56
_cell_angle_gamma    90

_symmetry_space_group_name_H-M    "P 1"
_symmetry_int_tables_number       1

loop_
  _symmetry_equiv_pos_as_xyz
  'x, y, z'

loop_
  _atom_site_label
  _atom_site_occupancy
  _atom_site_fract_x
  _atom_site_fract_y
  _atom_site_fract_z
  _atom_site_thermal_displace_type
  _atom_site_B_iso_or_equiv
  _atom_site_type_symbol
  Ga1      1.0000 0.06790  0.29490  0.30360  Biso   1.000  Ga
  Ga2      1.0000 0.13550  0.11000  0.16580  Biso   1.000  Ga
  Ga3      1.0000 0.51350  0.32910  0.19620  Biso   1.000  Ga
  P1       1.0000 0.34120  0.42940  0.36980  Biso   1.000  P
  P2       1.0000 0.80270  0.28870  0.48310  Biso   1.000  P
  P3       1.0000 0.24830  0.16130  0.50890  Biso   1.000  P
  O1       1.0000 0.03490  0.20950  0.17830  Biso   1.000  O
  O2       1.0000 0.19490  0.37820  0.31460  Biso   1.000  O
  O3       1.0000 0.24200  0.24420  0.46200  Biso   1.000  O
  O4       1.0000 0.95020  0.30320  0.43910  Biso   1.000  O
  O5       1.0000 0.40330  0.14680  0.64250  Biso   1.000  O
  O6       1.0000 0.45840  0.41250  0.28020  Biso   1.000  O
  O7       1.0000 0.82920  0.22070  0.59260  Biso   1.000  O
  O8       1.0000 0.10120  0.13840  0.55550  Biso   1.000  O
  O9       1.0000 0.65400  0.26960  0.34280  Biso   1.000  O
  O10      1.0000 0.24470  0.10880  0.37620  Biso   1.000  O
  O11      1.0000 0.42900  0.41900  0.54260  Biso   1.000  O
  O12      1.0000 0.27820  0.50920  0.33560  Biso   1.000  O
  O13      1.0000 0.77320  0.35930  0.56270  Biso   1.000  O
  H1       1.0000 0.92100  0.21100  0.09500  Biso   1.000  H
  Ga4      1.0000 0.43210  0.79490  0.19640  Biso   1.000  Ga
  Ga5      1.0000 0.36450  0.61000  0.33420  Biso   1.000  Ga
  Ga6      1.0000 0.98650  0.82910  0.30380  Biso   1.000  Ga
  P4       1.0000 0.15880  0.92940  0.13020  Biso   1.000  P
  P5       1.0000 0.69730  0.78870  0.01690  Biso   1.000  P
  P6       1.0000 0.25170  0.66130  0.99110  Biso   1.000  P
  O14      1.0000 0.46510  0.70950  0.32170  Biso   1.000  O
  O15      1.0000 0.30510  0.87820  0.18540  Biso   1.000  O
  O16      1.0000 0.25800  0.74420  0.03800  Biso   1.000  O
  O17      1.0000 0.54980  0.80320  0.06090  Biso   1.000  O
  O18      1.0000 0.09670  0.64680  0.85750  Biso   1.000  O
  O19      1.0000 0.04160  0.91250  0.21980  Biso   1.000  O
  O20      1.0000 0.67080  0.72070  0.90740  Biso   1.000  O
  O21      1.0000 0.39880  0.63840  0.94450  Biso   1.000  O
  O22      1.0000 0.84600  0.76960  0.15720  Biso   1.000  O
  O23      1.0000 0.25530  0.60880  0.12380  Biso   1.000  O
  O24      1.0000 0.07100  0.91900  0.95740  Biso   1.000  O
  O25      1.0000 0.22180  0.00920  0.16440  Biso   1.000  O
  O26      1.0000 0.72680  0.85930  0.93730  Biso   1.000  O
  H2       1.0000 0.57900  0.71100  0.40500  Biso   1.000  H
  Ga7      1.0000 0.93210  0.70510  0.69640  Biso   1.000  Ga
  Ga8      1.0000 0.86450  0.89000  0.83420  Biso   1.000  Ga
  Ga9      1.0000 0.48650  0.67090  0.80380  Biso   1.000  Ga
  P7       1.0000 0.65880  0.57060  0.63020  Biso   1.000  P
  P8       1.0000 0.19730  0.71130  0.51690  Biso   1.000  P
  P9       1.0000 0.75170  0.83870  0.49110  Biso   1.000  P
  O27      1.0000 0.96510  0.79050  0.82170  Biso   1.000  O
  O28      1.0000 0.80510  0.62180  0.68540  Biso   1.000  O
  O29      1.0000 0.75800  0.75580  0.53800  Biso   1.000  O
  O30      1.0000 0.04980  0.69680  0.56090  Biso   1.000  O
  O31      1.0000 0.59670  0.85320  0.35750  Biso   1.000  O
  O32      1.0000 0.54160  0.58750  0.71980  Biso   1.000  O
  O33      1.0000 0.17080  0.77930  0.40740  Biso   1.000  O
  O34      1.0000 0.89880  0.86160  0.44450  Biso   1.000  O
  O35      1.0000 0.34600  0.73040  0.65720  Biso   1.000  O
  O36      1.0000 0.75530  0.89120  0.62380  Biso   1.000  O
  O37      1.0000 0.57100  0.58100  0.45740  Biso   1.000  O
  O38      1.0000 0.72180  0.49080  0.66440  Biso   1.000  O
  O39      1.0000 0.22680  0.64070  0.43730  Biso   1.000  O
  H3       1.0000 0.07900  0.78900  0.90500  Biso   1.000  H
  Ga10     1.0000 0.56790  0.20510  0.80360  Biso   1.000  Ga
  Ga11     1.0000 0.63550  0.39000  0.66580  Biso   1.000  Ga
  Ga12     1.0000 0.01350  0.17090  0.69620  Biso   1.000  Ga
  P10      1.0000 0.84120  0.07060  0.86980  Biso   1.000  P
  P11      1.0000 0.30270  0.21130  0.98310  Biso   1.000  P
  P12      1.0000 0.74830  0.33870  0.00890  Biso   1.000  P
  O40      1.0000 0.53490  0.29050  0.67830  Biso   1.000  O
  O41      1.0000 0.69490  0.12180  0.81460  Biso   1.000  O
  O42      1.0000 0.74200  0.25580  0.96200  Biso   1.000  O
  O43      1.0000 0.45020  0.19680  0.93910  Biso   1.000  O
  O44      1.0000 0.90330  0.35320  0.14250  Biso   1.000  O
  O45      1.0000 0.95840  0.08750  0.78020  Biso   1.000  O
  O46      1.0000 0.32920  0.27930  0.09260  Biso   1.000  O
  O47      1.0000 0.60120  0.36160  0.05550  Biso   1.000  O
  O48      1.0000 0.15400  0.23040  0.84280  Biso   1.000  O
  O49      1.0000 0.74470  0.39120  0.87620  Biso   1.000  O
  O50      1.0000 0.92900  0.08100  0.04260  Biso   1.000  O
  O51      1.0000 0.77820  0.99080  0.83560  Biso   1.000  O
  O52      1.0000 0.27320  0.14070  0.06270  Biso   1.000  O
  H4       1.0000 0.42100  0.28900  0.59500  Biso   1.000  H
