data_image0
_cell_length_a       10.252
_cell_length_b       18.409
_cell_length_c       24.639
_cell_angle_alpha    90
_cell_angle_beta     90
_cell_angle_gamma    90

_symmetry_space_group_name_H-M    "P 1"
_symmetry_int_tables_number       1

loop_
  _symmetry_equiv_pos_as_xyz
  'x, y, z'

loop_
  _atom_site_label
  _atom_site_occupancy
  _atom_site_fract_x
  _atom_site_fract_y
  _atom_site_fract_z
  _atom_site_thermal_displace_type
  _atom_site_B_iso_or_equiv
  _atom_site_type_symbol
  Ga1      1.0000 0.11420  0.08600  0.43280  Biso   1.000  Ga
  Ga2      1.0000 0.92280  0.85070  0.33980  Biso   1.000  Ga
  Ga3      1.0000 0.38070  0.06690  0.55830  Biso   1.000  Ga
  Ga4      1.0000 0.60220  0.92050  0.23470  Biso   1.000  Ga
  Ga5      1.0000 0.59290  0.17450  0.34590  Biso   1.000  Ga
  Ga6      1.0000 0.89650  0.10950  0.23990  Biso   1.000  Ga
  Ga7      1.0000 0.91770  0.30000  0.27590  Biso   1.000  Ga
  Ga8      1.0000 0.42240  0.23070  0.23110  Biso   1.000  Ga
  P1       1.0000 0.89770  0.93760  0.23220  Biso   1.000  P
  P2       1.0000 0.41580  0.09800  0.43830  Biso   1.000  P
  P3       1.0000 0.08360  0.91590  0.43770  Biso   1.000  P
  P4       1.0000 0.60560  0.09280  0.23260  Biso   1.000  P
  P5       1.0000 0.90080  0.17030  0.36010  Biso   1.000  P
  P6       1.0000 0.58180  0.14100  0.64510  Biso   1.000  P
  P7       1.0000 0.62240  0.32290  0.29870  Biso   1.000  P
  P8       1.0000 0.87520  0.70780  0.29150  Biso   1.000  P
  F1       1.0000 0.83230  0.21400  0.24600  Biso   1.000  F
  F2       1.0000 0.66790  0.81530  0.23700  Biso   1.000  F
  F3       1.0000 0.42270  0.19120  0.30670  Biso   1.000  F
  O1       1.0000 0.86900  0.91710  0.29240  Biso   1.000  O
  O2       1.0000 0.76210  0.93720  0.20440  Biso   1.000  O
  O3       1.0000 0.95750  0.01330  0.23180  Biso   1.000  O
  O4       1.0000 0.98230  0.88340  0.20320  Biso   1.000  O
  O5       1.0000 0.46860  0.09630  0.49690  Biso   1.000  O
  O6       1.0000 0.41790  0.02280  0.41150  Biso   1.000  O
  O7       1.0000 0.27850  0.12770  0.43850  Biso   1.000  O
  O8       1.0000 0.50210  0.15030  0.40770  Biso   1.000  O
  O9       1.0000 0.98740  0.86810  0.40670  Biso   1.000  O
  O10      1.0000 0.22440  0.88950  0.42770  Biso   1.000  O
  O11      1.0000 0.06860  0.99240  0.41560  Biso   1.000  O
  O12      1.0000 0.04330  0.90650  0.49790  Biso   1.000  O
  O13      1.0000 0.51830  0.14960  0.20510  Biso   1.000  O
  O14      1.0000 0.63120  0.10780  0.29330  Biso   1.000  O
  O15      1.0000 0.54160  0.01860  0.22690  Biso   1.000  O
  O16      1.0000 0.74050  0.09440  0.20360  Biso   1.000  O
  O17      1.0000 0.92710  0.24870  0.34450  Biso   1.000  O
  O18      1.0000 0.99270  0.15220  0.40720  Biso   1.000  O
  O19      1.0000 0.76370  0.15740  0.38060  Biso   1.000  O
  O20      1.0000 0.93620  0.11510  0.31290  Biso   1.000  O
  O21      1.0000 0.56120  0.08700  0.69210  Biso   1.000  O
  O22      1.0000 0.57770  0.22010  0.66090  Biso   1.000  O
  O23      1.0000 0.71740  0.12520  0.61710  Biso   1.000  O
  O24      1.0000 0.47350  0.12960  0.60340  Biso   1.000  O
  O25      1.0000 0.61000  0.27420  0.34930  Biso   1.000  O
  O26      1.0000 0.58280  0.28130  0.24740  Biso   1.000  O
  O27      1.0000 0.53290  0.39040  0.30920  Biso   1.000  O
  O28      1.0000 0.75780  0.35040  0.29200  Biso   1.000  O
  O29      1.0000 0.73790  0.67860  0.28240  Biso   1.000  O
  O30      1.0000 0.88110  0.75560  0.34250  Biso   1.000  O
  O31      1.0000 0.96320  0.64190  0.30160  Biso   1.000  O
  O32      1.0000 0.91990  0.75280  0.24310  Biso   1.000  O
  O33      1.0000 0.09070  0.83700  0.30110  Biso   1.000  O
  Ga9      1.0000 0.11420  0.91400  0.56720  Biso   1.000  Ga
  Ga10     1.0000 0.92280  0.14930  0.66020  Biso   1.000  Ga
  Ga11     1.0000 0.38070  0.93310  0.44170  Biso   1.000  Ga
  Ga12     1.0000 0.60220  0.07950  0.76530  Biso   1.000  Ga
  Ga13     1.0000 0.59290  0.82550  0.65410  Biso   1.000  Ga
  Ga14     1.0000 0.89650  0.89050  0.76010  Biso   1.000  Ga
  Ga15     1.0000 0.91770  0.70000  0.72410  Biso   1.000  Ga
  Ga16     1.0000 0.42240  0.76930  0.76890  Biso   1.000  Ga
  P9       1.0000 0.89770  0.06240  0.76780  Biso   1.000  P
  P10      1.0000 0.41580  0.90200  0.56170  Biso   1.000  P
  P11      1.0000 0.08360  0.08410  0.56230  Biso   1.000  P
  P12      1.0000 0.60560  0.90720  0.76740  Biso   1.000  P
  P13      1.0000 0.90080  0.82970  0.63990  Biso   1.000  P
  P14      1.0000 0.58180  0.85900  0.35490  Biso   1.000  P
  P15      1.0000 0.62240  0.67710  0.70130  Biso   1.000  P
  P16      1.0000 0.87520  0.29220  0.70850  Biso   1.000  P
  F4       1.0000 0.83230  0.78600  0.75400  Biso   1.000  F
  F5       1.0000 0.66790  0.18470  0.76300  Biso   1.000  F
  F6       1.0000 0.42270  0.80880  0.69330  Biso   1.000  F
  O34      1.0000 0.86900  0.08290  0.70760  Biso   1.000  O
  O35      1.0000 0.76210  0.06280  0.79560  Biso   1.000  O
  O36      1.0000 0.95750  0.98670  0.76820  Biso   1.000  O
  O37      1.0000 0.98230  0.11660  0.79680  Biso   1.000  O
  O38      1.0000 0.46860  0.90370  0.50310  Biso   1.000  O
  O39      1.0000 0.41790  0.97720  0.58850  Biso   1.000  O
  O40      1.0000 0.27850  0.87230  0.56150  Biso   1.000  O
  O41      1.0000 0.50210  0.84970  0.59230  Biso   1.000  O
  O42      1.0000 0.98740  0.13190  0.59330  Biso   1.000  O
  O43      1.0000 0.22440  0.11050  0.57230  Biso   1.000  O
  O44      1.0000 0.06860  0.00760  0.58440  Biso   1.000  O
  O45      1.0000 0.04330  0.09350  0.50210  Biso   1.000  O
  O46      1.0000 0.51830  0.85040  0.79490  Biso   1.000  O
  O47      1.0000 0.63120  0.89220  0.70670  Biso   1.000  O
  O48      1.0000 0.54160  0.98140  0.77310  Biso   1.000  O
  O49      1.0000 0.74050  0.90560  0.79640  Biso   1.000  O
  O50      1.0000 0.92710  0.75130  0.65550  Biso   1.000  O
  O51      1.0000 0.99270  0.84780  0.59280  Biso   1.000  O
  O52      1.0000 0.76370  0.84260  0.61940  Biso   1.000  O
  O53      1.0000 0.93620  0.88490  0.68710  Biso   1.000  O
  O54      1.0000 0.56120  0.91300  0.30790  Biso   1.000  O
  O55      1.0000 0.57770  0.77990  0.33910  Biso   1.000  O
  O56      1.0000 0.71740  0.87480  0.38290  Biso   1.000  O
  O57      1.0000 0.47350  0.87040  0.39660  Biso   1.000  O
  O58      1.0000 0.61000  0.72580  0.65070  Biso   1.000  O
  O59      1.0000 0.58280  0.71870  0.75260  Biso   1.000  O
  O60      1.0000 0.53290  0.60960  0.69080  Biso   1.000  O
  O61      1.0000 0.75780  0.64960  0.70800  Biso   1.000  O
  O62      1.0000 0.73790  0.32140  0.71760  Biso   1.000  O
  O63      1.0000 0.88110  0.24440  0.65750  Biso   1.000  O
  O64      1.0000 0.96320  0.35810  0.69840  Biso   1.000  O
  O65      1.0000 0.91990  0.24720  0.75690  Biso   1.000  O
  O66      1.0000 0.09070  0.16300  0.69890  Biso   1.000  O
  Ga17     1.0000 0.88580  0.41400  0.93280  Biso   1.000  Ga
  Ga18     1.0000 0.07720  0.64930  0.83980  Biso   1.000  Ga
  Ga19     1.0000 0.61930  0.43310  0.05830  Biso   1.000  Ga
  Ga20     1.0000 0.39780  0.57950  0.73470  Biso   1.000  Ga
  Ga21     1.0000 0.40710  0.32550  0.84590  Biso   1.000  Ga
  Ga22     1.0000 0.10350  0.39050  0.73990  Biso   1.000  Ga
  Ga23     1.0000 0.08230  0.20000  0.77590  Biso   1.000  Ga
  Ga24     1.0000 0.57760  0.26930  0.73110  Biso   1.000  Ga
  P17      1.0000 0.10230  0.56240  0.73220  Biso   1.000  P
  P18      1.0000 0.58420  0.40200  0.93830  Biso   1.000  P
  P19      1.0000 0.91640  0.58410  0.93770  Biso   1.000  P
  P20      1.0000 0.39440  0.40720  0.73260  Biso   1.000  P
  P21      1.0000 0.09920  0.32970  0.86010  Biso   1.000  P
  P22      1.0000 0.41820  0.35900  0.14510  Biso   1.000  P
  P23      1.0000 0.37760  0.17710  0.79870  Biso   1.000  P
  P24      1.0000 0.12480  0.79220  0.79150  Biso   1.000  P
  F7       1.0000 0.16770  0.28600  0.74600  Biso   1.000  F
  F8       1.0000 0.33210  0.68470  0.73700  Biso   1.000  F
  F9       1.0000 0.57730  0.30880  0.80670  Biso   1.000  F
  O67      1.0000 0.13100  0.58290  0.79240  Biso   1.000  O
  O68      1.0000 0.23790  0.56280  0.70440  Biso   1.000  O
  O69      1.0000 0.04250  0.48670  0.73180  Biso   1.000  O
  O70      1.0000 0.01770  0.61660  0.70320  Biso   1.000  O
  O71      1.0000 0.53140  0.40370  0.99690  Biso   1.000  O
  O72      1.0000 0.58210  0.47720  0.91150  Biso   1.000  O
  O73      1.0000 0.72150  0.37230  0.93850  Biso   1.000  O
  O74      1.0000 0.49790  0.34970  0.90770  Biso   1.000  O
  O75      1.0000 0.01260  0.63190  0.90670  Biso   1.000  O
  O76      1.0000 0.77560  0.61050  0.92770  Biso   1.000  O
  O77      1.0000 0.93140  0.50760  0.91560  Biso   1.000  O
  O78      1.0000 0.95670  0.59350  0.99790  Biso   1.000  O
  O79      1.0000 0.48170  0.35040  0.70510  Biso   1.000  O
  O80      1.0000 0.36880  0.39220  0.79330  Biso   1.000  O
  O81      1.0000 0.45840  0.48140  0.72690  Biso   1.000  O
  O82      1.0000 0.25950  0.40560  0.70360  Biso   1.000  O
  O83      1.0000 0.07290  0.25130  0.84450  Biso   1.000  O
  O84      1.0000 0.00730  0.34780  0.90720  Biso   1.000  O
  O85      1.0000 0.23630  0.34260  0.88060  Biso   1.000  O
  O86      1.0000 0.06380  0.38490  0.81290  Biso   1.000  O
  O87      1.0000 0.43880  0.41300  0.19210  Biso   1.000  O
  O88      1.0000 0.42230  0.27990  0.16090  Biso   1.000  O
  O89      1.0000 0.28260  0.37480  0.11710  Biso   1.000  O
  O90      1.0000 0.52650  0.37040  0.10340  Biso   1.000  O
  O91      1.0000 0.39000  0.22580  0.84930  Biso   1.000  O
  O92      1.0000 0.41720  0.21870  0.74740  Biso   1.000  O
  O93      1.0000 0.46710  0.10960  0.80920  Biso   1.000  O
  O94      1.0000 0.24220  0.14960  0.79200  Biso   1.000  O
  O95      1.0000 0.26210  0.82140  0.78240  Biso   1.000  O
  O96      1.0000 0.11890  0.74440  0.84250  Biso   1.000  O
  O97      1.0000 0.03680  0.85810  0.80160  Biso   1.000  O
  O98      1.0000 0.08010  0.74720  0.74310  Biso   1.000  O
  O99      1.0000 0.90930  0.66300  0.80110  Biso   1.000  O
  Ga25     1.0000 0.88580  0.58600  0.06720  Biso   1.000  Ga
  Ga26     1.0000 0.07720  0.35070  0.16020  Biso   1.000  Ga
  Ga27     1.0000 0.61930  0.56690  0.94170  Biso   1.000  Ga
  Ga28     1.0000 0.39780  0.42050  0.26530  Biso   1.000  Ga
  Ga29     1.0000 0.40710  0.67450  0.15410  Biso   1.000  Ga
  Ga30     1.0000 0.10350  0.60950  0.26010  Biso   1.000  Ga
  Ga31     1.0000 0.08230  0.80000  0.22410  Biso   1.000  Ga
  Ga32     1.0000 0.57760  0.73070  0.26890  Biso   1.000  Ga
  P25      1.0000 0.10230  0.43760  0.26780  Biso   1.000  P
  P26      1.0000 0.58420  0.59800  0.06170  Biso   1.000  P
  P27      1.0000 0.91640  0.41590  0.06230  Biso   1.000  P
  P28      1.0000 0.39440  0.59280  0.26740  Biso   1.000  P
  P29      1.0000 0.09920  0.67030  0.13990  Biso   1.000  P
  P30      1.0000 0.41820  0.64100  0.85490  Biso   1.000  P
  P31      1.0000 0.37760  0.82290  0.20130  Biso   1.000  P
  P32      1.0000 0.12480  0.20780  0.20850  Biso   1.000  P
  F10      1.0000 0.16770  0.71400  0.25400  Biso   1.000  F
  F11      1.0000 0.33210  0.31530  0.26300  Biso   1.000  F
  F12      1.0000 0.57730  0.69120  0.19330  Biso   1.000  F
  O100     1.0000 0.13100  0.41710  0.20760  Biso   1.000  O
  O101     1.0000 0.23790  0.43720  0.29560  Biso   1.000  O
  O102     1.0000 0.04250  0.51330  0.26820  Biso   1.000  O
  O103     1.0000 0.01770  0.38340  0.29680  Biso   1.000  O
  O104     1.0000 0.53140  0.59630  0.00310  Biso   1.000  O
  O105     1.0000 0.58210  0.52280  0.08850  Biso   1.000  O
  O106     1.0000 0.72150  0.62770  0.06150  Biso   1.000  O
  O107     1.0000 0.49790  0.65030  0.09230  Biso   1.000  O
  O108     1.0000 0.01260  0.36810  0.09330  Biso   1.000  O
  O109     1.0000 0.77560  0.38950  0.07230  Biso   1.000  O
  O110     1.0000 0.93140  0.49240  0.08440  Biso   1.000  O
  O111     1.0000 0.95670  0.40650  0.00210  Biso   1.000  O
  O112     1.0000 0.48170  0.64960  0.29490  Biso   1.000  O
  O113     1.0000 0.36880  0.60780  0.20670  Biso   1.000  O
  O114     1.0000 0.45840  0.51860  0.27310  Biso   1.000  O
  O115     1.0000 0.25950  0.59440  0.29640  Biso   1.000  O
  O116     1.0000 0.07290  0.74870  0.15550  Biso   1.000  O
  O117     1.0000 0.00730  0.65220  0.09280  Biso   1.000  O
  O118     1.0000 0.23630  0.65740  0.11940  Biso   1.000  O
  O119     1.0000 0.06380  0.61510  0.18710  Biso   1.000  O
  O120     1.0000 0.43880  0.58700  0.80790  Biso   1.000  O
  O121     1.0000 0.42230  0.72010  0.83910  Biso   1.000  O
  O122     1.0000 0.28260  0.62520  0.88290  Biso   1.000  O
  O123     1.0000 0.52650  0.62960  0.89660  Biso   1.000  O
  O124     1.0000 0.39000  0.77420  0.15070  Biso   1.000  O
  O125     1.0000 0.41720  0.78130  0.25260  Biso   1.000  O
  O126     1.0000 0.46710  0.89040  0.19080  Biso   1.000  O
  O127     1.0000 0.24220  0.85040  0.20800  Biso   1.000  O
  O128     1.0000 0.26210  0.17860  0.21760  Biso   1.000  O
  O129     1.0000 0.11890  0.25560  0.15750  Biso   1.000  O
  O130     1.0000 0.03680  0.14190  0.19840  Biso   1.000  O
  O131     1.0000 0.08010  0.25280  0.25690  Biso   1.000  O
  O132     1.0000 0.90930  0.33700  0.19890  Biso   1.000  O
