data_image0
_cell_length_a       9.6427
_cell_length_b       9.9392
_cell_length_c       9.9832
_cell_angle_alpha    86.303
_cell_angle_beta     81.118
_cell_angle_gamma    65.262

_symmetry_space_group_name_H-M    P 1
_symmetry_int_tables_number       1

loop_
  _symmetry_equiv_pos_as_xyz
  'x, y, z'

loop_
  _atom_site_label
  _atom_site_occupancy
  _atom_site_fract_x
  _atom_site_fract_y
  _atom_site_fract_z
  _atom_site_thermal_displace_type
  _atom_site_B_iso_or_equiv
  _atom_site_type_symbol
  Cd1      1.0000 0.95039  0.72492  0.54150  Biso   1.000  Cd
  Cd2      1.0000 0.04961  0.27508  0.45850  Biso   1.000  Cd
  H1       1.0000 0.17100  0.99430  0.80520  Biso   1.000  H
  H2       1.0000 0.82220  0.89760  0.99760  Biso   1.000  H
  H3       1.0000 0.49210  0.65670  0.66970  Biso   1.000  H
  H4       1.0000 0.70730  0.41930  0.32570  Biso   1.000  H
  H5       1.0000 0.44930  0.44900  0.89460  Biso   1.000  H
  H6       1.0000 0.41680  0.41360  0.05190  Biso   1.000  H
  H7       1.0000 0.19930  0.61130  0.96870  Biso   1.000  H
  H8       1.0000 0.29750  0.70890  0.94580  Biso   1.000  H
  H9       1.0000 0.23320  0.83240  0.39360  Biso   1.000  H
  H10      1.0000 0.07130  0.59840  0.21670  Biso   1.000  H
  H11      1.0000 0.71600  0.96500  0.44700  Biso   1.000  H
  H12      1.0000 0.84500  0.99500  0.42400  Biso   1.000  H
  H13      1.0000 0.82900  0.00570  0.19480  Biso   1.000  H
  H14      1.0000 0.17780  0.10240  0.00240  Biso   1.000  H
  H15      1.0000 0.50790  0.34330  0.33030  Biso   1.000  H
  H16      1.0000 0.29270  0.58070  0.67430  Biso   1.000  H
  H17      1.0000 0.55070  0.55100  0.10540  Biso   1.000  H
  H18      1.0000 0.58320  0.58640  0.94810  Biso   1.000  H
  H19      1.0000 0.80070  0.38870  0.03130  Biso   1.000  H
  H20      1.0000 0.70250  0.29110  0.05420  Biso   1.000  H
  H21      1.0000 0.76680  0.16760  0.60640  Biso   1.000  H
  H22      1.0000 0.92870  0.40160  0.78330  Biso   1.000  H
  H23      1.0000 0.28400  0.03500  0.55300  Biso   1.000  H
  H24      1.0000 0.15500  0.00500  0.57600  Biso   1.000  H
  C1       1.0000 0.99330  0.86290  0.75430  Biso   1.000  C
  C2       1.0000 0.99650  0.93500  0.88080  Biso   1.000  C
  C3       1.0000 0.10130  0.99650  0.88430  Biso   1.000  C
  C4       1.0000 0.89460  0.93920  0.99840  Biso   1.000  C
  C5       1.0000 0.75130  0.58740  0.49600  Biso   1.000  C
  C6       1.0000 0.61980  0.54430  0.49650  Biso   1.000  C
  C7       1.0000 0.49550  0.59310  0.60100  Biso   1.000  C
  C8       1.0000 0.62280  0.45210  0.39680  Biso   1.000  C
  C9       1.0000 0.43010  0.48860  0.98730  Biso   1.000  C
  C10      1.0000 0.28120  0.62980  0.00220  Biso   1.000  C
  C11      1.0000 0.21670  0.77920  0.32650  Biso   1.000  C
  C12      1.0000 0.12710  0.65340  0.23380  Biso   1.000  C
  C13      1.0000 0.00670  0.13710  0.24570  Biso   1.000  C
  C14      1.0000 0.00350  0.06500  0.11920  Biso   1.000  C
  C15      1.0000 0.89870  0.00350  0.11570  Biso   1.000  C
  C16      1.0000 0.10540  0.06080  0.00160  Biso   1.000  C
  C17      1.0000 0.24870  0.41260  0.50400  Biso   1.000  C
  C18      1.0000 0.38020  0.45570  0.50350  Biso   1.000  C
  C19      1.0000 0.50450  0.40690  0.39900  Biso   1.000  C
  C20      1.0000 0.37720  0.54790  0.60320  Biso   1.000  C
  C21      1.0000 0.56990  0.51140  0.01270  Biso   1.000  C
  C22      1.0000 0.71880  0.37020  0.99780  Biso   1.000  C
  C23      1.0000 0.78330  0.22080  0.67350  Biso   1.000  C
  C24      1.0000 0.87290  0.34660  0.76620  Biso   1.000  C
  N1       1.0000 0.23090  0.67920  0.14300  Biso   1.000  N
  N2       1.0000 0.28970  0.76040  0.20340  Biso   1.000  N
  N3       1.0000 0.11420  0.71580  0.35060  Biso   1.000  N
  N4       1.0000 0.76910  0.32080  0.85700  Biso   1.000  N
  N5       1.0000 0.71030  0.23960  0.79660  Biso   1.000  N
  N6       1.0000 0.88580  0.28420  0.64940  Biso   1.000  N
  O1       1.0000 0.06700  0.87720  0.64400  Biso   1.000  O
  O2       1.0000 0.91550  0.78600  0.76290  Biso   1.000  O
  O3       1.0000 0.73520  0.68520  0.57890  Biso   1.000  O
  O4       1.0000 0.87310  0.52560  0.41280  Biso   1.000  O
  O5       1.0000 0.78380  0.95770  0.47320  Biso   1.000  O
  O6       1.0000 0.93300  0.12280  0.35600  Biso   1.000  O
  O7       1.0000 0.08450  0.21400  0.23710  Biso   1.000  O
  O8       1.0000 0.26480  0.31480  0.42110  Biso   1.000  O
  O9       1.0000 0.12690  0.47440  0.58720  Biso   1.000  O
  O10      1.0000 0.21620  0.04230  0.52680  Biso   1.000  O
