data_image0
_cell_length_a       9.1405
_cell_length_b       9.1984
_cell_length_c       9.612
_cell_angle_alpha    90
_cell_angle_beta     115.995
_cell_angle_gamma    90

_symmetry_space_group_name_H-M    "P 1"
_symmetry_int_tables_number       1

loop_
  _symmetry_equiv_pos_as_xyz
  'x, y, z'

loop_
  _atom_site_label
  _atom_site_occupancy
  _atom_site_fract_x
  _atom_site_fract_y
  _atom_site_fract_z
  _atom_site_thermal_displace_type
  _atom_site_B_iso_or_equiv
  _atom_site_type_symbol
  P1       1.0000 0.84609  0.83097  0.02462  Biso   1.000  P
  H1       1.0000 0.90500  0.72800  0.94900  Biso   1.000  H
  P2       1.0000 0.67689  0.40090  0.92343  Biso   1.000  P
  H2       1.0000 0.75700  0.50900  0.88400  Biso   1.000  H
  O1       1.0000 0.73300  0.75860  0.08240  Biso   1.000  O
  O2       1.0000 0.50280  0.41220  0.80490  Biso   1.000  O
  O3       1.0000 0.70330  0.42650  0.08830  Biso   1.000  O
  O4       1.0000 0.99150  0.90710  0.14730  Biso   1.000  O
  O5       1.0000 0.73980  0.93270  0.89530  Biso   1.000  O
  O6       1.0000 0.75880  0.25810  0.91780  Biso   1.000  O
  P3       1.0000 0.65391  0.83097  0.47538  Biso   1.000  P
  H3       1.0000 0.59500  0.72800  0.55100  Biso   1.000  H
  P4       1.0000 0.82311  0.40090  0.57657  Biso   1.000  P
  H4       1.0000 0.74300  0.50900  0.61600  Biso   1.000  H
  O7       1.0000 0.76700  0.75860  0.41760  Biso   1.000  O
  O8       1.0000 0.99720  0.41220  0.69510  Biso   1.000  O
  O9       1.0000 0.79670  0.42650  0.41170  Biso   1.000  O
  O10      1.0000 0.50850  0.90710  0.35270  Biso   1.000  O
  O11      1.0000 0.76020  0.93270  0.60470  Biso   1.000  O
  O12      1.0000 0.74120  0.25810  0.58220  Biso   1.000  O
  P5       1.0000 0.15391  0.16903  0.97538  Biso   1.000  P
  H5       1.0000 0.09500  0.27200  0.05100  Biso   1.000  H
  P6       1.0000 0.32311  0.59910  0.07657  Biso   1.000  P
  H6       1.0000 0.24300  0.49100  0.11600  Biso   1.000  H
  O13      1.0000 0.26700  0.24140  0.91760  Biso   1.000  O
  O14      1.0000 0.49720  0.58780  0.19510  Biso   1.000  O
  O15      1.0000 0.29670  0.57350  0.91170  Biso   1.000  O
  O16      1.0000 0.00850  0.09290  0.85270  Biso   1.000  O
  O17      1.0000 0.26020  0.06730  0.10470  Biso   1.000  O
  O18      1.0000 0.24120  0.74190  0.08220  Biso   1.000  O
  P7       1.0000 0.34609  0.16903  0.52462  Biso   1.000  P
  H7       1.0000 0.40500  0.27200  0.44900  Biso   1.000  H
  P8       1.0000 0.17689  0.59910  0.42343  Biso   1.000  P
  H8       1.0000 0.25700  0.49100  0.38400  Biso   1.000  H
  O19      1.0000 0.23300  0.24140  0.58240  Biso   1.000  O
  O20      1.0000 0.00280  0.58780  0.30490  Biso   1.000  O
  O21      1.0000 0.20330  0.57350  0.58830  Biso   1.000  O
  O22      1.0000 0.49150  0.09290  0.64730  Biso   1.000  O
  O23      1.0000 0.23980  0.06730  0.39530  Biso   1.000  O
  O24      1.0000 0.25880  0.74190  0.41780  Biso   1.000  O
  In1      1.0000 0.25000  0.89664  0.25000  Biso   1.000  In
  In2      1.0000 0.75000  0.10336  0.75000  Biso   1.000  In
  In3      1.0000 0.75000  0.60203  0.25000  Biso   1.000  In
  In4      1.0000 0.25000  0.39797  0.75000  Biso   1.000  In
