data_image0
_cell_length_a       15.0578
_cell_length_b       13.197
_cell_length_c       15.2727
_cell_angle_alpha    90
_cell_angle_beta     112.197
_cell_angle_gamma    90

_symmetry_space_group_name_H-M    "P 1"
_symmetry_int_tables_number       1

loop_
  _symmetry_equiv_pos_as_xyz
  'x, y, z'

loop_
  _atom_site_label
  _atom_site_occupancy
  _atom_site_fract_x
  _atom_site_fract_y
  _atom_site_fract_z
  _atom_site_thermal_displace_type
  _atom_site_B_iso_or_equiv
  _atom_site_type_symbol
  Ga1      1.0000 0.56738  0.10568  0.65382  Biso   1.000  Ga
  Ga2      1.0000 0.73158  0.87308  0.57730  Biso   1.000  Ga
  Co1      1.0000 0.63532  0.19004  0.36767  Biso   1.000  Co
  P1       1.0000 0.57160  0.86940  0.65730  Biso   1.000  P
  P2       1.0000 0.73170  0.11440  0.57590  Biso   1.000  P
  P3       1.0000 0.63680  0.18690  0.86470  Biso   1.000  P
  O1       1.0000 0.62700  0.82890  0.60020  Biso   1.000  O
  O2       1.0000 0.71560  0.14230  0.95280  Biso   1.000  O
  O3       1.0000 0.52950  0.97360  0.62270  Biso   1.000  O
  O4       1.0000 0.71260  0.11690  0.47060  Biso   1.000  O
  O5       1.0000 0.75720  0.00680  0.61510  Biso   1.000  O
  O6       1.0000 0.81780  0.17990  0.62990  Biso   1.000  O
  O7       1.0000 0.49050  0.79440  0.64350  Biso   1.000  O
  O8       1.0000 0.63490  0.12180  0.78310  Biso   1.000  O
  O9       1.0000 0.65980  0.29740  0.85140  Biso   1.000  O
  O10      1.0000 0.63790  0.87570  0.76160  Biso   1.000  O
  O11      1.0000 0.54060  0.18690  0.87670  Biso   1.000  O
  O12      1.0000 0.64370  0.15460  0.59070  Biso   1.000  O
  Ga3      1.0000 0.06738  0.60568  0.65382  Biso   1.000  Ga
  Ga4      1.0000 0.23158  0.37308  0.57730  Biso   1.000  Ga
  Co2      1.0000 0.13532  0.69004  0.36767  Biso   1.000  Co
  P4       1.0000 0.07160  0.36940  0.65730  Biso   1.000  P
  P5       1.0000 0.23170  0.61440  0.57590  Biso   1.000  P
  P6       1.0000 0.13680  0.68690  0.86470  Biso   1.000  P
  O13      1.0000 0.12700  0.32890  0.60020  Biso   1.000  O
  O14      1.0000 0.21560  0.64230  0.95280  Biso   1.000  O
  O15      1.0000 0.02950  0.47360  0.62270  Biso   1.000  O
  O16      1.0000 0.21260  0.61690  0.47060  Biso   1.000  O
  O17      1.0000 0.25720  0.50680  0.61510  Biso   1.000  O
  O18      1.0000 0.31780  0.67990  0.62990  Biso   1.000  O
  O19      1.0000 0.99050  0.29440  0.64350  Biso   1.000  O
  O20      1.0000 0.13490  0.62180  0.78310  Biso   1.000  O
  O21      1.0000 0.15980  0.79740  0.85140  Biso   1.000  O
  O22      1.0000 0.13790  0.37570  0.76160  Biso   1.000  O
  O23      1.0000 0.04060  0.68690  0.87670  Biso   1.000  O
  O24      1.0000 0.14370  0.65460  0.59070  Biso   1.000  O
  Ga5      1.0000 0.43262  0.10568  0.84618  Biso   1.000  Ga
  Ga6      1.0000 0.26842  0.87308  0.92270  Biso   1.000  Ga
  Co3      1.0000 0.36468  0.19004  0.13233  Biso   1.000  Co
  P7       1.0000 0.42840  0.86940  0.84270  Biso   1.000  P
  P8       1.0000 0.26830  0.11440  0.92410  Biso   1.000  P
  P9       1.0000 0.36320  0.18690  0.63530  Biso   1.000  P
  O25      1.0000 0.37300  0.82890  0.89980  Biso   1.000  O
  O26      1.0000 0.28440  0.14230  0.54720  Biso   1.000  O
  O27      1.0000 0.47050  0.97360  0.87730  Biso   1.000  O
  O28      1.0000 0.28740  0.11690  0.02940  Biso   1.000  O
  O29      1.0000 0.24280  0.00680  0.88490  Biso   1.000  O
  O30      1.0000 0.18220  0.17990  0.87010  Biso   1.000  O
  O31      1.0000 0.50950  0.79440  0.85650  Biso   1.000  O
  O32      1.0000 0.36510  0.12180  0.71690  Biso   1.000  O
  O33      1.0000 0.34020  0.29740  0.64860  Biso   1.000  O
  O34      1.0000 0.36210  0.87570  0.73840  Biso   1.000  O
  O35      1.0000 0.45940  0.18690  0.62330  Biso   1.000  O
  O36      1.0000 0.35630  0.15460  0.90930  Biso   1.000  O
  Ga7      1.0000 0.93262  0.60568  0.84618  Biso   1.000  Ga
  Ga8      1.0000 0.76842  0.37308  0.92270  Biso   1.000  Ga
  Co4      1.0000 0.86468  0.69004  0.13233  Biso   1.000  Co
  P10      1.0000 0.92840  0.36940  0.84270  Biso   1.000  P
  P11      1.0000 0.76830  0.61440  0.92410  Biso   1.000  P
  P12      1.0000 0.86320  0.68690  0.63530  Biso   1.000  P
  O37      1.0000 0.87300  0.32890  0.89980  Biso   1.000  O
  O38      1.0000 0.78440  0.64230  0.54720  Biso   1.000  O
  O39      1.0000 0.97050  0.47360  0.87730  Biso   1.000  O
  O40      1.0000 0.78740  0.61690  0.02940  Biso   1.000  O
  O41      1.0000 0.74280  0.50680  0.88490  Biso   1.000  O
  O42      1.0000 0.68220  0.67990  0.87010  Biso   1.000  O
  O43      1.0000 0.00950  0.29440  0.85650  Biso   1.000  O
  O44      1.0000 0.86510  0.62180  0.71690  Biso   1.000  O
  O45      1.0000 0.84020  0.79740  0.64860  Biso   1.000  O
  O46      1.0000 0.86210  0.37570  0.73840  Biso   1.000  O
  O47      1.0000 0.95940  0.68690  0.62330  Biso   1.000  O
  O48      1.0000 0.85630  0.65460  0.90930  Biso   1.000  O
  Ga9      1.0000 0.43262  0.89432  0.34618  Biso   1.000  Ga
  Ga10     1.0000 0.26842  0.12692  0.42270  Biso   1.000  Ga
  Co5      1.0000 0.36468  0.80996  0.63233  Biso   1.000  Co
  P13      1.0000 0.42840  0.13060  0.34270  Biso   1.000  P
  P14      1.0000 0.26830  0.88560  0.42410  Biso   1.000  P
  P15      1.0000 0.36320  0.81310  0.13530  Biso   1.000  P
  O49      1.0000 0.37300  0.17110  0.39980  Biso   1.000  O
  O50      1.0000 0.28440  0.85770  0.04720  Biso   1.000  O
  O51      1.0000 0.47050  0.02640  0.37730  Biso   1.000  O
  O52      1.0000 0.28740  0.88310  0.52940  Biso   1.000  O
  O53      1.0000 0.24280  0.99320  0.38490  Biso   1.000  O
  O54      1.0000 0.18220  0.82010  0.37010  Biso   1.000  O
  O55      1.0000 0.50950  0.20560  0.35650  Biso   1.000  O
  O56      1.0000 0.36510  0.87820  0.21690  Biso   1.000  O
  O57      1.0000 0.34020  0.70260  0.14860  Biso   1.000  O
  O58      1.0000 0.36210  0.12430  0.23840  Biso   1.000  O
  O59      1.0000 0.45940  0.81310  0.12330  Biso   1.000  O
  O60      1.0000 0.35630  0.84540  0.40930  Biso   1.000  O
  Ga11     1.0000 0.93262  0.39432  0.34618  Biso   1.000  Ga
  Ga12     1.0000 0.76842  0.62692  0.42270  Biso   1.000  Ga
  Co6      1.0000 0.86468  0.30996  0.63233  Biso   1.000  Co
  P16      1.0000 0.92840  0.63060  0.34270  Biso   1.000  P
  P17      1.0000 0.76830  0.38560  0.42410  Biso   1.000  P
  P18      1.0000 0.86320  0.31310  0.13530  Biso   1.000  P
  O61      1.0000 0.87300  0.67110  0.39980  Biso   1.000  O
  O62      1.0000 0.78440  0.35770  0.04720  Biso   1.000  O
  O63      1.0000 0.97050  0.52640  0.37730  Biso   1.000  O
  O64      1.0000 0.78740  0.38310  0.52940  Biso   1.000  O
  O65      1.0000 0.74280  0.49320  0.38490  Biso   1.000  O
  O66      1.0000 0.68220  0.32010  0.37010  Biso   1.000  O
  O67      1.0000 0.00950  0.70560  0.35650  Biso   1.000  O
  O68      1.0000 0.86510  0.37820  0.21690  Biso   1.000  O
  O69      1.0000 0.84020  0.20260  0.14860  Biso   1.000  O
  O70      1.0000 0.86210  0.62430  0.23840  Biso   1.000  O
  O71      1.0000 0.95940  0.31310  0.12330  Biso   1.000  O
  O72      1.0000 0.85630  0.34540  0.40930  Biso   1.000  O
  Ga13     1.0000 0.56738  0.89432  0.15382  Biso   1.000  Ga
  Ga14     1.0000 0.73158  0.12692  0.07730  Biso   1.000  Ga
  Co7      1.0000 0.63532  0.80996  0.86767  Biso   1.000  Co
  P19      1.0000 0.57160  0.13060  0.15730  Biso   1.000  P
  P20      1.0000 0.73170  0.88560  0.07590  Biso   1.000  P
  P21      1.0000 0.63680  0.81310  0.36470  Biso   1.000  P
  O73      1.0000 0.62700  0.17110  0.10020  Biso   1.000  O
  O74      1.0000 0.71560  0.85770  0.45280  Biso   1.000  O
  O75      1.0000 0.52950  0.02640  0.12270  Biso   1.000  O
  O76      1.0000 0.71260  0.88310  0.97060  Biso   1.000  O
  O77      1.0000 0.75720  0.99320  0.11510  Biso   1.000  O
  O78      1.0000 0.81780  0.82010  0.12990  Biso   1.000  O
  O79      1.0000 0.49050  0.20560  0.14350  Biso   1.000  O
  O80      1.0000 0.63490  0.87820  0.28310  Biso   1.000  O
  O81      1.0000 0.65980  0.70260  0.35140  Biso   1.000  O
  O82      1.0000 0.63790  0.12430  0.26160  Biso   1.000  O
  O83      1.0000 0.54060  0.81310  0.37670  Biso   1.000  O
  O84      1.0000 0.64370  0.84540  0.09070  Biso   1.000  O
  Ga15     1.0000 0.06738  0.39432  0.15382  Biso   1.000  Ga
  Ga16     1.0000 0.23158  0.62692  0.07730  Biso   1.000  Ga
  Co8      1.0000 0.13532  0.30996  0.86767  Biso   1.000  Co
  P22      1.0000 0.07160  0.63060  0.15730  Biso   1.000  P
  P23      1.0000 0.23170  0.38560  0.07590  Biso   1.000  P
  P24      1.0000 0.13680  0.31310  0.36470  Biso   1.000  P
  O85      1.0000 0.12700  0.67110  0.10020  Biso   1.000  O
  O86      1.0000 0.21560  0.35770  0.45280  Biso   1.000  O
  O87      1.0000 0.02950  0.52640  0.12270  Biso   1.000  O
  O88      1.0000 0.21260  0.38310  0.97060  Biso   1.000  O
  O89      1.0000 0.25720  0.49320  0.11510  Biso   1.000  O
  O90      1.0000 0.31780  0.32010  0.12990  Biso   1.000  O
  O91      1.0000 0.99050  0.70560  0.14350  Biso   1.000  O
  O92      1.0000 0.13490  0.37820  0.28310  Biso   1.000  O
  O93      1.0000 0.15980  0.20260  0.35140  Biso   1.000  O
  O94      1.0000 0.13790  0.62430  0.26160  Biso   1.000  O
  O95      1.0000 0.04060  0.31310  0.37670  Biso   1.000  O
  O96      1.0000 0.14370  0.34540  0.09070  Biso   1.000  O
