data_image0
_cell_length_a       6.2226
_cell_length_b       14.702
_cell_length_c       17.5045
_cell_angle_alpha    102.233
_cell_angle_beta     90
_cell_angle_gamma    102.218

_symmetry_space_group_name_H-M    P 1
_symmetry_int_tables_number       1

loop_
  _symmetry_equiv_pos_as_xyz
  'x, y, z'

loop_
  _atom_site_label
  _atom_site_occupancy
  _atom_site_fract_x
  _atom_site_fract_y
  _atom_site_fract_z
  _atom_site_thermal_displace_type
  _atom_site_B_iso_or_equiv
  _atom_site_type_symbol
  Zn1      1.0000 0.43648  0.00000  0.25000  Biso   1.000  Zn
  Zn2      1.0000 0.56352  0.00000  0.75000  Biso   1.000  Zn
  H1       1.0000 0.02170  0.19060  0.36200  Biso   1.000  H
  H2       1.0000 0.88620  0.31700  0.43120  Biso   1.000  H
  H3       1.0000 0.46260  0.49200  0.41520  Biso   1.000  H
  H4       1.0000 0.59750  0.36760  0.34500  Biso   1.000  H
  H5       1.0000 0.17820  0.56100  0.48110  Biso   1.000  H
  H6       1.0000 0.88900  0.09840  0.21500  Biso   1.000  H
  H7       1.0000 0.12850  0.09780  0.11600  Biso   1.000  H
  H8       1.0000 0.66510  0.89920  0.97830  Biso   1.000  H
  H9       1.0000 0.43430  0.91620  0.07970  Biso   1.000  H
  H10      1.0000 0.83110  0.80940  0.13800  Biso   1.000  H
  H11      1.0000 0.56920  0.68300  0.06880  Biso   1.000  H
  H12      1.0000 0.97060  0.50800  0.08480  Biso   1.000  H
  H13      1.0000 0.22990  0.63240  0.15500  Biso   1.000  H
  H14      1.0000 0.61720  0.43900  0.01890  Biso   1.000  H
  H15      1.0000 0.79060  0.90160  0.28500  Biso   1.000  H
  H16      1.0000 0.03070  0.90220  0.38400  Biso   1.000  H
  H17      1.0000 0.76590  0.10080  0.52170  Biso   1.000  H
  H18      1.0000 0.51810  0.08380  0.42030  Biso   1.000  H
  H19      1.0000 0.97830  0.80940  0.63800  Biso   1.000  H
  H20      1.0000 0.11380  0.68300  0.56880  Biso   1.000  H
  H21      1.0000 0.53740  0.50800  0.58480  Biso   1.000  H
  H22      1.0000 0.40250  0.63240  0.65500  Biso   1.000  H
  H23      1.0000 0.82180  0.43900  0.51890  Biso   1.000  H
  H24      1.0000 0.11100  0.90160  0.78500  Biso   1.000  H
  H25      1.0000 0.87150  0.90220  0.88400  Biso   1.000  H
  H26      1.0000 0.33490  0.10080  0.02170  Biso   1.000  H
  H27      1.0000 0.56570  0.08380  0.92030  Biso   1.000  H
  H28      1.0000 0.16890  0.19060  0.86200  Biso   1.000  H
  H29      1.0000 0.43080  0.31700  0.93120  Biso   1.000  H
  H30      1.0000 0.02940  0.49200  0.91520  Biso   1.000  H
  H31      1.0000 0.77010  0.36760  0.84500  Biso   1.000  H
  H32      1.0000 0.38280  0.56100  0.98110  Biso   1.000  H
  H33      1.0000 0.20940  0.09840  0.71500  Biso   1.000  H
  H34      1.0000 0.96930  0.09780  0.61600  Biso   1.000  H
  H35      1.0000 0.23410  0.89920  0.47830  Biso   1.000  H
  H36      1.0000 0.48190  0.91620  0.57970  Biso   1.000  H
  C1       1.0000 0.41210  0.18240  0.30370  Biso   1.000  C
  C2       1.0000 0.32210  0.26540  0.34630  Biso   1.000  C
  C3       1.0000 0.11090  0.25140  0.37260  Biso   1.000  C
  C4       1.0000 0.02980  0.32740  0.41480  Biso   1.000  C
  C5       1.0000 0.16150  0.41820  0.43260  Biso   1.000  C
  C6       1.0000 0.37340  0.43100  0.40480  Biso   1.000  C
  C7       1.0000 0.45520  0.35680  0.36250  Biso   1.000  C
  C8       1.0000 0.08900  0.50120  0.47990  Biso   1.000  C
  C9       1.0000 0.84350  0.05820  0.16650  Biso   1.000  C
  C10      1.0000 0.98850  0.05880  0.10700  Biso   1.000  C
  C11      1.0000 0.92430  0.00000  0.03270  Biso   1.000  C
  C12      1.0000 0.71440  0.94260  0.02500  Biso   1.000  C
  C13      1.0000 0.57920  0.95060  0.08790  Biso   1.000  C
  C14      1.0000 0.22970  0.81760  0.19630  Biso   1.000  C
  C15      1.0000 0.05670  0.73460  0.15370  Biso   1.000  C
  C16      1.0000 0.85950  0.74860  0.12740  Biso   1.000  C
  C17      1.0000 0.70240  0.67260  0.08520  Biso   1.000  C
  C18      1.0000 0.74330  0.58180  0.06740  Biso   1.000  C
  C19      1.0000 0.94240  0.56900  0.09520  Biso   1.000  C
  C20      1.0000 0.09840  0.64320  0.13750  Biso   1.000  C
  C21      1.0000 0.58780  0.49880  0.02010  Biso   1.000  C
  C22      1.0000 0.78530  0.94180  0.33350  Biso   1.000  C
  C23      1.0000 0.92970  0.94120  0.39300  Biso   1.000  C
  C24      1.0000 0.92430  0.00000  0.46730  Biso   1.000  C
  C25      1.0000 0.77180  0.05740  0.47500  Biso   1.000  C
  C26      1.0000 0.62860  0.04940  0.41210  Biso   1.000  C
  C27      1.0000 0.58790  0.81760  0.69630  Biso   1.000  C
  C28      1.0000 0.67790  0.73460  0.65370  Biso   1.000  C
  C29      1.0000 0.88910  0.74860  0.62740  Biso   1.000  C
  C30      1.0000 0.97020  0.67260  0.58520  Biso   1.000  C
  C31      1.0000 0.83850  0.58180  0.56740  Biso   1.000  C
  C32      1.0000 0.62660  0.56900  0.59520  Biso   1.000  C
  C33      1.0000 0.54480  0.64320  0.63750  Biso   1.000  C
  C34      1.0000 0.91100  0.49880  0.52010  Biso   1.000  C
  C35      1.0000 0.15650  0.94180  0.83350  Biso   1.000  C
  C36      1.0000 0.01150  0.94120  0.89300  Biso   1.000  C
  C37      1.0000 0.07570  0.00000  0.96730  Biso   1.000  C
  C38      1.0000 0.28560  0.05740  0.97500  Biso   1.000  C
  C39      1.0000 0.42080  0.04940  0.91210  Biso   1.000  C
  C40      1.0000 0.77030  0.18240  0.80370  Biso   1.000  C
  C41      1.0000 0.94330  0.26540  0.84630  Biso   1.000  C
  C42      1.0000 0.14050  0.25140  0.87260  Biso   1.000  C
  C43      1.0000 0.29760  0.32740  0.91480  Biso   1.000  C
  C44      1.0000 0.25670  0.41820  0.93260  Biso   1.000  C
  C45      1.0000 0.05760  0.43100  0.90480  Biso   1.000  C
  C46      1.0000 0.90160  0.35680  0.86250  Biso   1.000  C
  C47      1.0000 0.41220  0.50120  0.97990  Biso   1.000  C
  C48      1.0000 0.21470  0.05820  0.66650  Biso   1.000  C
  C49      1.0000 0.07030  0.05880  0.60700  Biso   1.000  C
  C50      1.0000 0.07570  0.00000  0.53270  Biso   1.000  C
  C51      1.0000 0.22820  0.94260  0.52500  Biso   1.000  C
  C52      1.0000 0.37140  0.95060  0.58790  Biso   1.000  C
  N1       1.0000 0.63910  0.00260  0.15800  Biso   1.000  N
  N2       1.0000 0.63650  0.99740  0.34200  Biso   1.000  N
  N3       1.0000 0.36090  0.99740  0.84200  Biso   1.000  N
  N4       1.0000 0.36350  0.00260  0.65800  Biso   1.000  N
  O1       1.0000 0.28183  0.10166  0.29110  Biso   1.000  O
  O2       1.0000 0.60640  0.19400  0.28680  Biso   1.000  O
  O3       1.0000 0.18017  0.89834  0.20890  Biso   1.000  O
  O4       1.0000 0.41240  0.80600  0.21320  Biso   1.000  O
  O5       1.0000 0.71817  0.89834  0.70890  Biso   1.000  O
  O6       1.0000 0.39360  0.80600  0.71320  Biso   1.000  O
  O7       1.0000 0.81983  0.10166  0.79110  Biso   1.000  O
  O8       1.0000 0.58760  0.19400  0.78680  Biso   1.000  O
