data_image0
_cell_length_a       13.4425
_cell_length_b       14.4204
_cell_length_c       20.4469
_cell_angle_alpha    90
_cell_angle_beta     108.168
_cell_angle_gamma    90

_symmetry_space_group_name_H-M    "P 1"
_symmetry_int_tables_number       1

loop_
  _symmetry_equiv_pos_as_xyz
  'x, y, z'

loop_
  _atom_site_label
  _atom_site_occupancy
  _atom_site_fract_x
  _atom_site_fract_y
  _atom_site_fract_z
  _atom_site_thermal_displace_type
  _atom_site_B_iso_or_equiv
  _atom_site_type_symbol
  Cu1      1.0000 0.71989  0.51715  0.48770  Biso   1.000  Cu
  C1       1.0000 0.66990  0.33440  0.29000  Biso   1.000  C
  H1       1.0000 0.71730  0.38210  0.29200  Biso   1.000  H
  C2       1.0000 0.63050  0.28360  0.22990  Biso   1.000  C
  H2       1.0000 0.65190  0.29710  0.19190  Biso   1.000  H
  C3       1.0000 0.55910  0.21240  0.22630  Biso   1.000  C
  C4       1.0000 0.52940  0.19210  0.28380  Biso   1.000  C
  H3       1.0000 0.48240  0.14420  0.28210  Biso   1.000  H
  C5       1.0000 0.56930  0.24270  0.34360  Biso   1.000  C
  H4       1.0000 0.54910  0.22840  0.38190  Biso   1.000  H
  C6       1.0000 0.63910  0.31470  0.34690  Biso   1.000  C
  C7       1.0000 0.67190  0.37560  0.40890  Biso   1.000  C
  C8       1.0000 0.50970  0.16280  0.16070  Biso   1.000  C
  C9       1.0000 0.42050  0.11190  0.13910  Biso   1.000  C
  H5       1.0000 0.37790  0.09720  0.16570  Biso   1.000  H
  C10      1.0000 0.48140  0.11880  0.05410  Biso   1.000  C
  H6       1.0000 0.48990  0.11140  0.01100  Biso   1.000  H
  C11      1.0000 0.75090  0.68460  0.72470  Biso   1.000  C
  H7       1.0000 0.80200  0.72420  0.71880  Biso   1.000  H
  C12      1.0000 0.73390  0.68070  0.78790  Biso   1.000  C
  H8       1.0000 0.77520  0.71570  0.82450  Biso   1.000  H
  C13      1.0000 0.65510  0.62470  0.79670  Biso   1.000  C
  C14      1.0000 0.59440  0.57230  0.74120  Biso   1.000  C
  H9       1.0000 0.54010  0.53590  0.74630  Biso   1.000  H
  C15      1.0000 0.61400  0.57410  0.67910  Biso   1.000  C
  H10      1.0000 0.57440  0.53750  0.64290  Biso   1.000  H
  C16      1.0000 0.69350  0.63080  0.67030  Biso   1.000  C
  C17      1.0000 0.71650  0.62800  0.60280  Biso   1.000  C
  C18      1.0000 0.63410  0.61640  0.86270  Biso   1.000  C
  C19      1.0000 0.64280  0.63950  0.97080  Biso   1.000  C
  H11      1.0000 0.66270  0.66340  0.01530  Biso   1.000  H
  C20      1.0000 0.56830  0.55790  0.88120  Biso   1.000  C
  H12      1.0000 0.52540  0.51420  0.85240  Biso   1.000  H
  C21      1.0000 0.74550  0.56810  0.21830  Biso   1.000  C
  H13      1.0000 0.68890  0.60860  0.20550  Biso   1.000  H
  C22      1.0000 0.82050  0.57680  0.28280  Biso   1.000  C
  H14      1.0000 0.81260  0.62200  0.31330  Biso   1.000  H
  C23      1.0000 0.90640  0.51880  0.30180  Biso   1.000  C
  C24      1.0000 0.91500  0.45070  0.25600  Biso   1.000  C
  H15      1.0000 0.97230  0.41100  0.26810  Biso   1.000  H
  C25      1.0000 0.83960  0.44120  0.19310  Biso   1.000  C
  H16      1.0000 0.84610  0.39430  0.16340  Biso   1.000  H
  C26      1.0000 0.75440  0.50010  0.17330  Biso   1.000  C
  C27      1.0000 0.67130  0.48760  0.10450  Biso   1.000  C
  C28      1.0000 0.98870  0.52700  0.36830  Biso   1.000  C
  C29      1.0000 0.08330  0.49130  0.39170  Biso   1.000  C
  H17      1.0000 0.11050  0.45050  0.36640  Biso   1.000  H
  C30      1.0000 0.07380  0.57710  0.47290  Biso   1.000  C
  H18      1.0000 0.09160  0.61140  0.51350  Biso   1.000  H
  N1       1.0000 0.13710  0.51970  0.45610  Biso   1.000  N
  N2       1.0000 0.57450  0.57250  0.94855  Biso   1.000  N
  N3       1.0000 0.40290  0.08530  0.07210  Biso   1.000  N
  N4       1.0000 0.54710  0.16500  0.10620  Biso   1.000  N
  H19      1.0000 0.60390  0.19180  0.10550  Biso   1.000  H
  N5       1.0000 0.67980  0.66880  0.92070  Biso   1.000  N
  H20      1.0000 0.72430  0.71280  0.92420  Biso   1.000  H
  N6       1.0000 0.97760  0.58040  0.42320  Biso   1.000  N
  H21      1.0000 0.92250  0.60900  0.42510  Biso   1.000  H
  O1       1.0000 0.72940  0.44560  0.40742  Biso   1.000  O
  O2       1.0000 0.64270  0.35860  0.46001  Biso   1.000  O
  O3       1.0000 0.68500  0.55510  0.56823  Biso   1.000  O
  O4       1.0000 0.76560  0.69270  0.58670  Biso   1.000  O
  O5       1.0000 0.59780  0.54680  0.08816  Biso   1.000  O
  O6       1.0000 0.67580  0.42140  0.06750  Biso   1.000  O
  Cu2      1.0000 0.28011  0.01715  0.01230  Biso   1.000  Cu
  C31      1.0000 0.33010  0.83440  0.21000  Biso   1.000  C
  H22      1.0000 0.28270  0.88210  0.20800  Biso   1.000  H
  C32      1.0000 0.36950  0.78360  0.27010  Biso   1.000  C
  H23      1.0000 0.34810  0.79710  0.30810  Biso   1.000  H
  C33      1.0000 0.44090  0.71240  0.27370  Biso   1.000  C
  C34      1.0000 0.47060  0.69210  0.21620  Biso   1.000  C
  H24      1.0000 0.51760  0.64420  0.21790  Biso   1.000  H
  C35      1.0000 0.43070  0.74270  0.15640  Biso   1.000  C
  H25      1.0000 0.45090  0.72840  0.11810  Biso   1.000  H
  C36      1.0000 0.36090  0.81470  0.15310  Biso   1.000  C
  C37      1.0000 0.32810  0.87560  0.09110  Biso   1.000  C
  C38      1.0000 0.49030  0.66280  0.33930  Biso   1.000  C
  C39      1.0000 0.57950  0.61190  0.36090  Biso   1.000  C
  H26      1.0000 0.62210  0.59720  0.33430  Biso   1.000  H
  C40      1.0000 0.51860  0.61880  0.44590  Biso   1.000  C
  H27      1.0000 0.51010  0.61140  0.48900  Biso   1.000  H
  C41      1.0000 0.24910  0.18460  0.77530  Biso   1.000  C
  H28      1.0000 0.19800  0.22420  0.78120  Biso   1.000  H
  C42      1.0000 0.26610  0.18070  0.71210  Biso   1.000  C
  H29      1.0000 0.22480  0.21570  0.67550  Biso   1.000  H
  C43      1.0000 0.34490  0.12470  0.70330  Biso   1.000  C
  C44      1.0000 0.40560  0.07230  0.75880  Biso   1.000  C
  H30      1.0000 0.45990  0.03590  0.75370  Biso   1.000  H
  C45      1.0000 0.38600  0.07410  0.82090  Biso   1.000  C
  H31      1.0000 0.42560  0.03750  0.85710  Biso   1.000  H
  C46      1.0000 0.30650  0.13080  0.82970  Biso   1.000  C
  C47      1.0000 0.28350  0.12800  0.89720  Biso   1.000  C
  C48      1.0000 0.36590  0.11640  0.63730  Biso   1.000  C
  C49      1.0000 0.35720  0.13950  0.52920  Biso   1.000  C
  H32      1.0000 0.33730  0.16340  0.48470  Biso   1.000  H
  C50      1.0000 0.43170  0.05790  0.61880  Biso   1.000  C
  H33      1.0000 0.47460  0.01420  0.64760  Biso   1.000  H
  C51      1.0000 0.25450  0.06810  0.28170  Biso   1.000  C
  H34      1.0000 0.31110  0.10860  0.29450  Biso   1.000  H
  C52      1.0000 0.17950  0.07680  0.21720  Biso   1.000  C
  H35      1.0000 0.18740  0.12200  0.18670  Biso   1.000  H
  C53      1.0000 0.09360  0.01880  0.19820  Biso   1.000  C
  C54      1.0000 0.08500  0.95070  0.24400  Biso   1.000  C
  H36      1.0000 0.02770  0.91100  0.23190  Biso   1.000  H
  C55      1.0000 0.16040  0.94120  0.30690  Biso   1.000  C
  H37      1.0000 0.15390  0.89430  0.33660  Biso   1.000  H
  C56      1.0000 0.24560  0.00010  0.32670  Biso   1.000  C
  C57      1.0000 0.32870  0.98760  0.39550  Biso   1.000  C
  C58      1.0000 0.01130  0.02700  0.13170  Biso   1.000  C
  C59      1.0000 0.91670  0.99130  0.10830  Biso   1.000  C
  H38      1.0000 0.88950  0.95050  0.13360  Biso   1.000  H
  C60      1.0000 0.92620  0.07710  0.02710  Biso   1.000  C
  H39      1.0000 0.90840  0.11140  0.98650  Biso   1.000  H
  N7       1.0000 0.86290  0.01970  0.04390  Biso   1.000  N
  N8       1.0000 0.42550  0.07250  0.55145  Biso   1.000  N
  N9       1.0000 0.59710  0.58530  0.42790  Biso   1.000  N
  N10      1.0000 0.45290  0.66500  0.39380  Biso   1.000  N
  H40      1.0000 0.39610  0.69180  0.39450  Biso   1.000  H
  N11      1.0000 0.32020  0.16880  0.57930  Biso   1.000  N
  H41      1.0000 0.27570  0.21280  0.57580  Biso   1.000  H
  N12      1.0000 0.02240  0.08040  0.07680  Biso   1.000  N
  H42      1.0000 0.07750  0.10900  0.07490  Biso   1.000  H
  O7       1.0000 0.27060  0.94560  0.09258  Biso   1.000  O
  O8       1.0000 0.35730  0.85860  0.03999  Biso   1.000  O
  O9       1.0000 0.31500  0.05510  0.93177  Biso   1.000  O
  O10      1.0000 0.23440  0.19270  0.91330  Biso   1.000  O
  O11      1.0000 0.40220  0.04680  0.41184  Biso   1.000  O
  O12      1.0000 0.32420  0.92140  0.43250  Biso   1.000  O
  Cu3      1.0000 0.28011  0.48285  0.51230  Biso   1.000  Cu
  C61      1.0000 0.33010  0.66560  0.71000  Biso   1.000  C
  H43      1.0000 0.28270  0.61790  0.70800  Biso   1.000  H
  C62      1.0000 0.36950  0.71640  0.77010  Biso   1.000  C
  H44      1.0000 0.34810  0.70290  0.80810  Biso   1.000  H
  C63      1.0000 0.44090  0.78760  0.77370  Biso   1.000  C
  C64      1.0000 0.47060  0.80790  0.71620  Biso   1.000  C
  H45      1.0000 0.51760  0.85580  0.71790  Biso   1.000  H
  C65      1.0000 0.43070  0.75730  0.65640  Biso   1.000  C
  H46      1.0000 0.45090  0.77160  0.61810  Biso   1.000  H
  C66      1.0000 0.36090  0.68530  0.65310  Biso   1.000  C
  C67      1.0000 0.32810  0.62440  0.59110  Biso   1.000  C
  C68      1.0000 0.49030  0.83720  0.83930  Biso   1.000  C
  C69      1.0000 0.57950  0.88810  0.86090  Biso   1.000  C
  H47      1.0000 0.62210  0.90280  0.83430  Biso   1.000  H
  C70      1.0000 0.51860  0.88120  0.94590  Biso   1.000  C
  H48      1.0000 0.51010  0.88860  0.98900  Biso   1.000  H
  C71      1.0000 0.24910  0.31540  0.27530  Biso   1.000  C
  H49      1.0000 0.19800  0.27580  0.28120  Biso   1.000  H
  C72      1.0000 0.26610  0.31930  0.21210  Biso   1.000  C
  H50      1.0000 0.22480  0.28430  0.17550  Biso   1.000  H
  C73      1.0000 0.34490  0.37530  0.20330  Biso   1.000  C
  C74      1.0000 0.40560  0.42770  0.25880  Biso   1.000  C
  H51      1.0000 0.45990  0.46410  0.25370  Biso   1.000  H
  C75      1.0000 0.38600  0.42590  0.32090  Biso   1.000  C
  H52      1.0000 0.42560  0.46250  0.35710  Biso   1.000  H
  C76      1.0000 0.30650  0.36920  0.32970  Biso   1.000  C
  C77      1.0000 0.28350  0.37200  0.39720  Biso   1.000  C
  C78      1.0000 0.36590  0.38360  0.13730  Biso   1.000  C
  C79      1.0000 0.35720  0.36050  0.02920  Biso   1.000  C
  H53      1.0000 0.33730  0.33660  0.98470  Biso   1.000  H
  C80      1.0000 0.43170  0.44210  0.11880  Biso   1.000  C
  H54      1.0000 0.47460  0.48580  0.14760  Biso   1.000  H
  C81      1.0000 0.25450  0.43190  0.78170  Biso   1.000  C
  H55      1.0000 0.31110  0.39140  0.79450  Biso   1.000  H
  C82      1.0000 0.17950  0.42320  0.71720  Biso   1.000  C
  H56      1.0000 0.18740  0.37800  0.68670  Biso   1.000  H
  C83      1.0000 0.09360  0.48120  0.69820  Biso   1.000  C
  C84      1.0000 0.08500  0.54930  0.74400  Biso   1.000  C
  H57      1.0000 0.02770  0.58900  0.73190  Biso   1.000  H
  C85      1.0000 0.16040  0.55880  0.80690  Biso   1.000  C
  H58      1.0000 0.15390  0.60570  0.83660  Biso   1.000  H
  C86      1.0000 0.24560  0.49990  0.82670  Biso   1.000  C
  C87      1.0000 0.32870  0.51240  0.89550  Biso   1.000  C
  C88      1.0000 0.01130  0.47300  0.63170  Biso   1.000  C
  C89      1.0000 0.91670  0.50870  0.60830  Biso   1.000  C
  H59      1.0000 0.88950  0.54950  0.63360  Biso   1.000  H
  C90      1.0000 0.92620  0.42290  0.52710  Biso   1.000  C
  H60      1.0000 0.90840  0.38860  0.48650  Biso   1.000  H
  N13      1.0000 0.86290  0.48030  0.54390  Biso   1.000  N
  N14      1.0000 0.42550  0.42750  0.05145  Biso   1.000  N
  N15      1.0000 0.59710  0.91470  0.92790  Biso   1.000  N
  N16      1.0000 0.45290  0.83500  0.89380  Biso   1.000  N
  H61      1.0000 0.39610  0.80820  0.89450  Biso   1.000  H
  N17      1.0000 0.32020  0.33120  0.07930  Biso   1.000  N
  H62      1.0000 0.27570  0.28720  0.07580  Biso   1.000  H
  N18      1.0000 0.02240  0.41960  0.57680  Biso   1.000  N
  H63      1.0000 0.07750  0.39100  0.57490  Biso   1.000  H
  O13      1.0000 0.27060  0.55440  0.59258  Biso   1.000  O
  O14      1.0000 0.35730  0.64140  0.53999  Biso   1.000  O
  O15      1.0000 0.31500  0.44490  0.43177  Biso   1.000  O
  O16      1.0000 0.23440  0.30730  0.41330  Biso   1.000  O
  O17      1.0000 0.40220  0.45320  0.91184  Biso   1.000  O
  O18      1.0000 0.32420  0.57860  0.93250  Biso   1.000  O
  Cu4      1.0000 0.71989  0.98285  0.98770  Biso   1.000  Cu
  C91      1.0000 0.66990  0.16560  0.79000  Biso   1.000  C
  H64      1.0000 0.71730  0.11790  0.79200  Biso   1.000  H
  C92      1.0000 0.63050  0.21640  0.72990  Biso   1.000  C
  H65      1.0000 0.65190  0.20290  0.69190  Biso   1.000  H
  C93      1.0000 0.55910  0.28760  0.72630  Biso   1.000  C
  C94      1.0000 0.52940  0.30790  0.78380  Biso   1.000  C
  H66      1.0000 0.48240  0.35580  0.78210  Biso   1.000  H
  C95      1.0000 0.56930  0.25730  0.84360  Biso   1.000  C
  H67      1.0000 0.54910  0.27160  0.88190  Biso   1.000  H
  C96      1.0000 0.63910  0.18530  0.84690  Biso   1.000  C
  C97      1.0000 0.67190  0.12440  0.90890  Biso   1.000  C
  C98      1.0000 0.50970  0.33720  0.66070  Biso   1.000  C
  C99      1.0000 0.42050  0.38810  0.63910  Biso   1.000  C
  H68      1.0000 0.37790  0.40280  0.66570  Biso   1.000  H
  C100     1.0000 0.48140  0.38120  0.55410  Biso   1.000  C
  H69      1.0000 0.48990  0.38860  0.51100  Biso   1.000  H
  C101     1.0000 0.75090  0.81540  0.22470  Biso   1.000  C
  H70      1.0000 0.80200  0.77580  0.21880  Biso   1.000  H
  C102     1.0000 0.73390  0.81930  0.28790  Biso   1.000  C
  H71      1.0000 0.77520  0.78430  0.32450  Biso   1.000  H
  C103     1.0000 0.65510  0.87530  0.29670  Biso   1.000  C
  C104     1.0000 0.59440  0.92770  0.24120  Biso   1.000  C
  H72      1.0000 0.54010  0.96410  0.24630  Biso   1.000  H
  C105     1.0000 0.61400  0.92590  0.17910  Biso   1.000  C
  H73      1.0000 0.57440  0.96250  0.14290  Biso   1.000  H
  C106     1.0000 0.69350  0.86920  0.17030  Biso   1.000  C
  C107     1.0000 0.71650  0.87200  0.10280  Biso   1.000  C
  C108     1.0000 0.63410  0.88360  0.36270  Biso   1.000  C
  C109     1.0000 0.64280  0.86050  0.47080  Biso   1.000  C
  H74      1.0000 0.66270  0.83660  0.51530  Biso   1.000  H
  C110     1.0000 0.56830  0.94210  0.38120  Biso   1.000  C
  H75      1.0000 0.52540  0.98580  0.35240  Biso   1.000  H
  C111     1.0000 0.74550  0.93190  0.71830  Biso   1.000  C
  H76      1.0000 0.68890  0.89140  0.70550  Biso   1.000  H
  C112     1.0000 0.82050  0.92320  0.78280  Biso   1.000  C
  H77      1.0000 0.81260  0.87800  0.81330  Biso   1.000  H
  C113     1.0000 0.90640  0.98120  0.80180  Biso   1.000  C
  C114     1.0000 0.91500  0.04930  0.75600  Biso   1.000  C
  H78      1.0000 0.97230  0.08900  0.76810  Biso   1.000  H
  C115     1.0000 0.83960  0.05880  0.69310  Biso   1.000  C
  H79      1.0000 0.84610  0.10570  0.66340  Biso   1.000  H
  C116     1.0000 0.75440  0.99990  0.67330  Biso   1.000  C
  C117     1.0000 0.67130  0.01240  0.60450  Biso   1.000  C
  C118     1.0000 0.98870  0.97300  0.86830  Biso   1.000  C
  C119     1.0000 0.08330  0.00870  0.89170  Biso   1.000  C
  H80      1.0000 0.11050  0.04950  0.86640  Biso   1.000  H
  C120     1.0000 0.07380  0.92290  0.97290  Biso   1.000  C
  H81      1.0000 0.09160  0.88860  0.01350  Biso   1.000  H
  N19      1.0000 0.13710  0.98030  0.95610  Biso   1.000  N
  N20      1.0000 0.57450  0.92750  0.44855  Biso   1.000  N
  N21      1.0000 0.40290  0.41470  0.57210  Biso   1.000  N
  N22      1.0000 0.54710  0.33500  0.60620  Biso   1.000  N
  H82      1.0000 0.60390  0.30820  0.60550  Biso   1.000  H
  N23      1.0000 0.67980  0.83120  0.42070  Biso   1.000  N
  H83      1.0000 0.72430  0.78720  0.42420  Biso   1.000  H
  N24      1.0000 0.97760  0.91960  0.92320  Biso   1.000  N
  H84      1.0000 0.92250  0.89100  0.92510  Biso   1.000  H
  O19      1.0000 0.72940  0.05440  0.90742  Biso   1.000  O
  O20      1.0000 0.64270  0.14140  0.96001  Biso   1.000  O
  O21      1.0000 0.68500  0.94490  0.06823  Biso   1.000  O
  O22      1.0000 0.76560  0.80730  0.08670  Biso   1.000  O
  O23      1.0000 0.59780  0.95320  0.58816  Biso   1.000  O
  O24      1.0000 0.67580  0.07860  0.56750  Biso   1.000  O
  Cu5      1.0000 0.50000  0.50000  0.00000  Biso   1.000  Cu
  Cu6      1.0000 0.50000  0.00000  0.50000  Biso   1.000  Cu
