data_image0
_cell_length_a       10.788
_cell_length_b       12.702
_cell_length_c       15.784
_cell_angle_alpha    90
_cell_angle_beta     90
_cell_angle_gamma    90

_symmetry_space_group_name_H-M    P 1
_symmetry_int_tables_number       1

loop_
  _symmetry_equiv_pos_as_xyz
  'x, y, z'

loop_
  _atom_site_label
  _atom_site_occupancy
  _atom_site_fract_x
  _atom_site_fract_y
  _atom_site_fract_z
  _atom_site_thermal_displace_type
  _atom_site_B_iso_or_equiv
  _atom_site_type_symbol
  Mn1      1.0000 0.04447  0.25000  0.63752  Biso   1.000  Mn
  Mn2      1.0000 0.31414  0.25000  0.71722  Biso   1.000  Mn
  Mn3      1.0000 0.45553  0.75000  0.13752  Biso   1.000  Mn
  Mn4      1.0000 0.18586  0.75000  0.21722  Biso   1.000  Mn
  Mn5      1.0000 0.95553  0.75000  0.36248  Biso   1.000  Mn
  Mn6      1.0000 0.68586  0.75000  0.28278  Biso   1.000  Mn
  Mn7      1.0000 0.54447  0.25000  0.86248  Biso   1.000  Mn
  Mn8      1.0000 0.81414  0.25000  0.78278  Biso   1.000  Mn
  Mn9      1.0000 0.00000  0.00000  0.50000  Biso   1.000  Mn
  Mn10     1.0000 0.50000  0.00000  0.00000  Biso   1.000  Mn
  Mn11     1.0000 0.00000  0.50000  0.50000  Biso   1.000  Mn
  Mn12     1.0000 0.50000  0.50000  0.00000  Biso   1.000  Mn
  H1       1.0000 0.37640  0.55680  0.60480  Biso   1.000  H
  H2       1.0000 0.41200  0.45250  0.65620  Biso   1.000  H
  H3       1.0000 0.43410  0.45780  0.55600  Biso   1.000  H
  H4       1.0000 0.70490  0.50860  0.63950  Biso   1.000  H
  H5       1.0000 0.70630  0.45000  0.72920  Biso   1.000  H
  H6       1.0000 0.76190  0.56630  0.72080  Biso   1.000  H
  H7       1.0000 0.12360  0.44320  0.10480  Biso   1.000  H
  H8       1.0000 0.08800  0.54750  0.15620  Biso   1.000  H
  H9       1.0000 0.06590  0.54220  0.05600  Biso   1.000  H
  H10      1.0000 0.79510  0.49140  0.13950  Biso   1.000  H
  H11      1.0000 0.79370  0.55000  0.22920  Biso   1.000  H
  H12      1.0000 0.73810  0.43370  0.22080  Biso   1.000  H
  H13      1.0000 0.62360  0.05680  0.39520  Biso   1.000  H
  H14      1.0000 0.58800  0.95250  0.34380  Biso   1.000  H
  H15      1.0000 0.56590  0.95780  0.44400  Biso   1.000  H
  H16      1.0000 0.29510  0.00860  0.36050  Biso   1.000  H
  H17      1.0000 0.29370  0.95000  0.27080  Biso   1.000  H
  H18      1.0000 0.23810  0.06630  0.27920  Biso   1.000  H
  H19      1.0000 0.87640  0.94320  0.89520  Biso   1.000  H
  H20      1.0000 0.91200  0.04750  0.84380  Biso   1.000  H
  H21      1.0000 0.93410  0.04220  0.94400  Biso   1.000  H
  H22      1.0000 0.20490  0.99140  0.86050  Biso   1.000  H
  H23      1.0000 0.20630  0.05000  0.77080  Biso   1.000  H
  H24      1.0000 0.26190  0.93370  0.77920  Biso   1.000  H
  H25      1.0000 0.62360  0.44320  0.39520  Biso   1.000  H
  H26      1.0000 0.58800  0.54750  0.34380  Biso   1.000  H
  H27      1.0000 0.56590  0.54220  0.44400  Biso   1.000  H
  H28      1.0000 0.29510  0.49140  0.36050  Biso   1.000  H
  H29      1.0000 0.29370  0.55000  0.27080  Biso   1.000  H
  H30      1.0000 0.23810  0.43370  0.27920  Biso   1.000  H
  H31      1.0000 0.87640  0.55680  0.89520  Biso   1.000  H
  H32      1.0000 0.91200  0.45250  0.84380  Biso   1.000  H
  H33      1.0000 0.93410  0.45780  0.94400  Biso   1.000  H
  H34      1.0000 0.20490  0.50860  0.86050  Biso   1.000  H
  H35      1.0000 0.20630  0.45000  0.77080  Biso   1.000  H
  H36      1.0000 0.26190  0.56630  0.77920  Biso   1.000  H
  H37      1.0000 0.37640  0.94320  0.60480  Biso   1.000  H
  H38      1.0000 0.41200  0.04750  0.65620  Biso   1.000  H
  H39      1.0000 0.43410  0.04220  0.55600  Biso   1.000  H
  H40      1.0000 0.70490  0.99140  0.63950  Biso   1.000  H
  H41      1.0000 0.70630  0.05000  0.72920  Biso   1.000  H
  H42      1.0000 0.76190  0.93370  0.72080  Biso   1.000  H
  H43      1.0000 0.12360  0.05680  0.10480  Biso   1.000  H
  H44      1.0000 0.08800  0.95250  0.15620  Biso   1.000  H
  H45      1.0000 0.06590  0.95780  0.05600  Biso   1.000  H
  H46      1.0000 0.79510  0.00860  0.13950  Biso   1.000  H
  H47      1.0000 0.79370  0.95000  0.22920  Biso   1.000  H
  H48      1.0000 0.73810  0.06630  0.22080  Biso   1.000  H
  C1       1.0000 0.25158  0.43705  0.58784  Biso   1.000  C
  C2       1.0000 0.37970  0.47980  0.60250  Biso   1.000  C
  C3       1.0000 0.87690  0.45301  0.67196  Biso   1.000  C
  C4       1.0000 0.75160  0.49840  0.69210  Biso   1.000  C
  C5       1.0000 0.24842  0.56295  0.08784  Biso   1.000  C
  C6       1.0000 0.12030  0.52020  0.10250  Biso   1.000  C
  C7       1.0000 0.62310  0.54699  0.17196  Biso   1.000  C
  C8       1.0000 0.74840  0.50160  0.19210  Biso   1.000  C
  C9       1.0000 0.74842  0.93705  0.41216  Biso   1.000  C
  C10      1.0000 0.62030  0.97980  0.39750  Biso   1.000  C
  C11      1.0000 0.12310  0.95301  0.32804  Biso   1.000  C
  C12      1.0000 0.24840  0.99840  0.30790  Biso   1.000  C
  C13      1.0000 0.75158  0.06295  0.91216  Biso   1.000  C
  C14      1.0000 0.87970  0.02020  0.89750  Biso   1.000  C
  C15      1.0000 0.37690  0.04699  0.82804  Biso   1.000  C
  C16      1.0000 0.25160  0.00160  0.80790  Biso   1.000  C
  C17      1.0000 0.74842  0.56295  0.41216  Biso   1.000  C
  C18      1.0000 0.62030  0.52020  0.39750  Biso   1.000  C
  C19      1.0000 0.12310  0.54699  0.32804  Biso   1.000  C
  C20      1.0000 0.24840  0.50160  0.30790  Biso   1.000  C
  C21      1.0000 0.75158  0.43705  0.91216  Biso   1.000  C
  C22      1.0000 0.87970  0.47980  0.89750  Biso   1.000  C
  C23      1.0000 0.37690  0.45301  0.82804  Biso   1.000  C
  C24      1.0000 0.25160  0.49840  0.80790  Biso   1.000  C
  C25      1.0000 0.25158  0.06295  0.58784  Biso   1.000  C
  C26      1.0000 0.37970  0.02020  0.60250  Biso   1.000  C
  C27      1.0000 0.87690  0.04699  0.67196  Biso   1.000  C
  C28      1.0000 0.75160  0.00160  0.69210  Biso   1.000  C
  C29      1.0000 0.24842  0.93705  0.08784  Biso   1.000  C
  C30      1.0000 0.12030  0.97980  0.10250  Biso   1.000  C
  C31      1.0000 0.62310  0.95301  0.17196  Biso   1.000  C
  C32      1.0000 0.74840  0.99840  0.19210  Biso   1.000  C
  C33      1.0000 0.95660  0.25000  0.47600  Biso   1.000  C
  C34      1.0000 0.90480  0.25000  0.38807  Biso   1.000  C
  C35      1.0000 0.08360  0.25000  0.84620  Biso   1.000  C
  C36      1.0000 0.17040  0.25000  0.92162  Biso   1.000  C
  C37      1.0000 0.54340  0.75000  0.97600  Biso   1.000  C
  C38      1.0000 0.59520  0.75000  0.88807  Biso   1.000  C
  C39      1.0000 0.41640  0.75000  0.34620  Biso   1.000  C
  C40      1.0000 0.32960  0.75000  0.42162  Biso   1.000  C
  C41      1.0000 0.04340  0.75000  0.52400  Biso   1.000  C
  C42      1.0000 0.09520  0.75000  0.61193  Biso   1.000  C
  C43      1.0000 0.91640  0.75000  0.15380  Biso   1.000  C
  C44      1.0000 0.82960  0.75000  0.07838  Biso   1.000  C
  C45      1.0000 0.45660  0.25000  0.02400  Biso   1.000  C
  C46      1.0000 0.40480  0.25000  0.11193  Biso   1.000  C
  C47      1.0000 0.58360  0.25000  0.65380  Biso   1.000  C
  C48      1.0000 0.67040  0.25000  0.57838  Biso   1.000  C
  O1       1.0000 0.21410  0.35767  0.63072  Biso   1.000  O
  O2       1.0000 0.95068  0.50827  0.63187  Biso   1.000  O
  O3       1.0000 0.19026  0.48174  0.53218  Biso   1.000  O
  O4       1.0000 0.90082  0.35776  0.69395  Biso   1.000  O
  O5       1.0000 0.97815  0.16621  0.51492  Biso   1.000  O
  O6       1.0000 0.28590  0.64233  0.13072  Biso   1.000  O
  O7       1.0000 0.54932  0.49173  0.13187  Biso   1.000  O
  O8       1.0000 0.30974  0.51826  0.03218  Biso   1.000  O
  O9       1.0000 0.59918  0.64224  0.19395  Biso   1.000  O
  O10      1.0000 0.52185  0.83379  0.01492  Biso   1.000  O
  O11      1.0000 0.78590  0.85767  0.36928  Biso   1.000  O
  O12      1.0000 0.04932  0.00827  0.36813  Biso   1.000  O
  O13      1.0000 0.80974  0.98174  0.46782  Biso   1.000  O
  O14      1.0000 0.09918  0.85776  0.30605  Biso   1.000  O
  O15      1.0000 0.02185  0.66621  0.48508  Biso   1.000  O
  O16      1.0000 0.71410  0.14233  0.86928  Biso   1.000  O
  O17      1.0000 0.45068  0.99173  0.86813  Biso   1.000  O
  O18      1.0000 0.69026  0.01826  0.96782  Biso   1.000  O
  O19      1.0000 0.40082  0.14224  0.80605  Biso   1.000  O
  O20      1.0000 0.47815  0.33379  0.98508  Biso   1.000  O
  O21      1.0000 0.78590  0.64233  0.36928  Biso   1.000  O
  O22      1.0000 0.04932  0.49173  0.36813  Biso   1.000  O
  O23      1.0000 0.80974  0.51826  0.46782  Biso   1.000  O
  O24      1.0000 0.09918  0.64224  0.30605  Biso   1.000  O
  O25      1.0000 0.02185  0.83379  0.48508  Biso   1.000  O
  O26      1.0000 0.71410  0.35767  0.86928  Biso   1.000  O
  O27      1.0000 0.45068  0.50827  0.86813  Biso   1.000  O
  O28      1.0000 0.69026  0.48174  0.96782  Biso   1.000  O
  O29      1.0000 0.40082  0.35776  0.80605  Biso   1.000  O
  O30      1.0000 0.47815  0.16621  0.98508  Biso   1.000  O
  O31      1.0000 0.21410  0.14233  0.63072  Biso   1.000  O
  O32      1.0000 0.95068  0.99173  0.63187  Biso   1.000  O
  O33      1.0000 0.19026  0.01826  0.53218  Biso   1.000  O
  O34      1.0000 0.90082  0.14224  0.69395  Biso   1.000  O
  O35      1.0000 0.97815  0.33379  0.51492  Biso   1.000  O
  O36      1.0000 0.28590  0.85767  0.13072  Biso   1.000  O
  O37      1.0000 0.54932  0.00827  0.13187  Biso   1.000  O
  O38      1.0000 0.30974  0.98174  0.03218  Biso   1.000  O
  O39      1.0000 0.59918  0.85776  0.19395  Biso   1.000  O
  O40      1.0000 0.52185  0.66621  0.01492  Biso   1.000  O
  O41      1.0000 0.12887  0.25000  0.77135  Biso   1.000  O
  O42      1.0000 0.97080  0.25000  0.86156  Biso   1.000  O
  O43      1.0000 0.37113  0.75000  0.27135  Biso   1.000  O
  O44      1.0000 0.52920  0.75000  0.36156  Biso   1.000  O
  O45      1.0000 0.87113  0.75000  0.22865  Biso   1.000  O
  O46      1.0000 0.02920  0.75000  0.13844  Biso   1.000  O
  O47      1.0000 0.62887  0.25000  0.72865  Biso   1.000  O
  O48      1.0000 0.47080  0.25000  0.63844  Biso   1.000  O
