data_POVZOR_freeONLY
_audit_creation_date              2015-10-16
_audit_creation_method            'Materials Studio'
_symmetry_space_group_name_H-M    'P1'
_symmetry_Int_Tables_number       1
_symmetry_cell_setting            triclinic
loop_
_symmetry_equiv_pos_as_xyz
  x,y,z
_cell_length_a                    11.3780
_cell_length_b                    12.1840
_cell_length_c                    23.3280
_cell_angle_alpha                 83.7150
_cell_angle_beta                  81.9900
_cell_angle_gamma                 70.7140
loop_
_atom_site_label
_atom_site_type_symbol
_atom_site_fract_x
_atom_site_fract_y
_atom_site_fract_z
_atom_site_U_iso_or_equiv
_atom_site_adp_type
_atom_site_occupancy
Eu1    Eu    0.26236   0.73370   0.25992   0.01267  Uiso   1.00
Eu2    Eu    0.73764   0.26630   0.74008   0.01267  Uiso   1.00
Cu1    Cu    0.89154   0.75676   0.74514   0.01267  Uiso   1.00
Cu2    Cu    0.30816   0.86919   0.02764   0.01267  Uiso   1.00
Cu3    Cu    0.10846   0.24324   0.25486   0.01267  Uiso   1.00
Cu4    Cu    0.69184   0.13081   0.97236   0.01267  Uiso   1.00
Cu5    Cu    0.50000   0.50000   0.50000   0.01267  Uiso   1.00
Si1    Si    0.12780   0.21330   0.76220   0.01267  Uiso   1.00
Si2    Si    0.87220   0.78670   0.23780   0.01267  Uiso   1.00
H1     H     0.25290   0.46660   0.46340   0.01267  Uiso   1.00
H2     H     0.24880   0.56300   0.58380   0.01267  Uiso   1.00
H3     H     0.53390   0.88100   0.93340   0.01267  Uiso   1.00
H4     H     0.89150   0.74810   0.98960   0.01267  Uiso   1.00
H5     H     0.71520   0.76790   0.85050   0.01267  Uiso   1.00
H6     H     0.39360   0.64760   0.94480   0.01267  Uiso   1.00
H7     H     0.92850   0.25060   0.17370   0.01267  Uiso   1.00
H8     H     0.08700   0.31940   0.49320   0.01267  Uiso   1.00
H9     H     0.31950   0.72170   0.43390   0.01267  Uiso   1.00
H10    H     0.91000   0.20820   0.53960   0.01267  Uiso   1.00
H11    H     0.68050   0.27830   0.56610   0.01267  Uiso   1.00
H12    H     0.74600   0.38710   0.11290   0.01267  Uiso   1.00
H13    H     0.93790   0.13670   0.01250   0.01267  Uiso   1.00
H14    H     0.07300   0.73870   0.63850   0.01267  Uiso   1.00
H15    H     0.46610   0.11900   0.06660   0.01267  Uiso   1.00
H16    H     0.27790   0.26210   0.33630   0.01267  Uiso   1.00
H17    H     0.92700   0.26130   0.36150   0.01267  Uiso   1.00
H18    H     0.75120   0.43700   0.41620   0.01267  Uiso   1.00
H19    H     0.24630   0.38390   0.97810   0.01267  Uiso   1.00
H20    H     0.09000   0.79180   0.46040   0.01267  Uiso   1.00
H21    H     0.45040   0.14490   0.41760   0.01267  Uiso   1.00
H22    H     0.41520   0.76070   0.54580   0.01267  Uiso   1.00
H23    H     0.47140   0.35560   0.93620   0.01267  Uiso   1.00
H24    H     0.28480   0.23210   0.14950   0.01267  Uiso   1.00
H25    H     0.25400   0.61290   0.88710   0.01267  Uiso   1.00
H26    H     0.91300   0.68060   0.50680   0.01267  Uiso   1.00
H27    H     0.74710   0.53340   0.53660   0.01267  Uiso   1.00
H28    H     0.60640   0.35240   0.05520   0.01267  Uiso   1.00
H29    H     0.72210   0.73790   0.66370   0.01267  Uiso   1.00
H30    H     0.06210   0.86330   0.98750   0.01267  Uiso   1.00
H31    H     0.10850   0.25190   0.01040   0.01267  Uiso   1.00
H32    H     0.07150   0.74940   0.82630   0.01267  Uiso   1.00
H33    H     0.75370   0.61610   0.02190   0.01267  Uiso   1.00
H34    H     0.52860   0.64440   0.06380   0.01267  Uiso   1.00
H35    H     0.54960   0.85510   0.58240   0.01267  Uiso   1.00
H36    H     0.58480   0.23930   0.45420   0.01267  Uiso   1.00
W1     W     0.43794   0.16621   0.78313   0.01267  Uiso   1.00
W2     W     0.91159   0.49050   0.76447   0.01267  Uiso   1.00
W3     W     0.78866   0.53435   0.21813   0.01267  Uiso   1.00
W4     W     0.25790   0.07524   0.89223   0.01267  Uiso   1.00
W5     W     0.92837   0.11757   0.86702   0.01267  Uiso   1.00
W6     W     0.23462   0.07867   0.63081   0.01267  Uiso   1.00
W7     W     0.35086   0.93184   0.76909   0.01267  Uiso   1.00
W8     W     0.98256   0.01434   0.25484   0.01267  Uiso   1.00
W9     W     0.01103   0.34321   0.63086   0.01267  Uiso   1.00
W10    W     0.97035   0.62909   0.11102   0.01267  Uiso   1.00
W11    W     0.01744   0.98566   0.74516   0.01267  Uiso   1.00
W12    W     0.21134   0.46565   0.78187   0.01267  Uiso   1.00
W13    W     0.74210   0.92476   0.10777   0.01267  Uiso   1.00
W14    W     0.98897   0.65679   0.36914   0.01267  Uiso   1.00
W15    W     0.31633   0.31380   0.64534   0.01267  Uiso   1.00
W16    W     0.56206   0.83379   0.21687   0.01267  Uiso   1.00
W17    W     0.02965   0.37091   0.88898   0.01267  Uiso   1.00
W18    W     0.08841   0.50950   0.23553   0.01267  Uiso   1.00
W19    W     0.07163   0.88243   0.13298   0.01267  Uiso   1.00
W20    W     0.68367   0.68620   0.35466   0.01267  Uiso   1.00
W21    W     0.76538   0.92133   0.36919   0.01267  Uiso   1.00
W22    W     0.64914   0.06816   0.23091   0.01267  Uiso   1.00
C1     C     0.30900   0.69000   0.94480   0.01267  Uiso   1.00
C2     C     0.49980   0.27470   0.45100   0.01267  Uiso   1.00
C3     C     0.57200   0.78000   0.56950   0.01267  Uiso   1.00
C4     C     0.55860   0.68900   0.03430   0.01267  Uiso   1.00
C5     C     0.99550   0.27220   0.37480   0.01267  Uiso   1.00
C6     C     0.78880   0.76050   0.92500   0.01267  Uiso   1.00
C7     C     0.20130   0.29240   0.41740   0.01267  Uiso   1.00
C8     C     0.00060   0.74930   0.85150   0.01267  Uiso   1.00
C9     C     0.68260   0.67190   0.00920   0.01267  Uiso   1.00
C10    C     0.99940   0.25070   0.14850   0.01267  Uiso   1.00
C11    C     0.23300   0.66800   0.91480   0.01267  Uiso   1.00
C12    C     0.00150   0.74560   0.91020   0.01267  Uiso   1.00
C13    C     0.78880   0.76130   0.86560   0.01267  Uiso   1.00
C14    C     0.72400   0.30380   0.53350   0.01267  Uiso   1.00
C15    C     0.31740   0.32810   0.99080   0.01267  Uiso   1.00
C16    C     0.85080   0.26210   0.51820   0.01267  Uiso   1.00
C17    C     0.20430   0.27030   0.36100   0.01267  Uiso   1.00
C18    C     0.67960   0.60050   0.54390   0.01267  Uiso   1.00
C19    C     0.76700   0.33200   0.08520   0.01267  Uiso   1.00
C20    C     0.87100   0.19280   0.03110   0.01267  Uiso   1.00
C21    C     0.55960   0.82100   0.96180   0.01267  Uiso   1.00
C22    C     0.99850   0.25440   0.08980   0.01267  Uiso   1.00
C23    C     0.76180   0.39100   0.45090   0.01267  Uiso   1.00
C24    C     0.69100   0.31000   0.05520   0.01267  Uiso   1.00
C25    C     0.90860   0.69330   0.54570   0.01267  Uiso   1.00
C26    C     0.12900   0.80720   0.96890   0.01267  Uiso   1.00
C27    C     0.01010   0.69860   0.56910   0.01267  Uiso   1.00
C28    C     0.10850   0.24900   0.05040   0.01267  Uiso   1.00
C29    C     0.79570   0.72970   0.63900   0.01267  Uiso   1.00
C30    C     0.21120   0.23950   0.07500   0.01267  Uiso   1.00
C31    C     0.44140   0.31100   0.96570   0.01267  Uiso   1.00
C32    C     0.44040   0.17900   0.03820   0.01267  Uiso   1.00
C33    C     0.21120   0.23870   0.13440   0.01267  Uiso   1.00
C34    C     0.79870   0.70760   0.58260   0.01267  Uiso   1.00
C35    C     0.14920   0.73790   0.48180   0.01267  Uiso   1.00
C36    C     0.09140   0.30670   0.45430   0.01267  Uiso   1.00
C37    C     0.32040   0.39950   0.45610   0.01267  Uiso   1.00
C38    C     0.98990   0.30140   0.43090   0.01267  Uiso   1.00
C39    C     0.50020   0.72530   0.54900   0.01267  Uiso   1.00
C40    C     0.23820   0.60900   0.54910   0.01267  Uiso   1.00
C41    C     0.27600   0.69620   0.46650   0.01267  Uiso   1.00
C42    C     0.42800   0.22000   0.43050   0.01267  Uiso   1.00
C43    C     0.00450   0.72780   0.62520   0.01267  Uiso   1.00
C44    C     0.89150   0.75100   0.94960   0.01267  Uiso   1.00
N1     N     0.87210   0.31550   0.46560   0.01267  Uiso   1.00
N2     N     0.56450   0.61350   0.53370   0.01267  Uiso   1.00
N3     N     0.48870   0.79560   0.00250   0.01267  Uiso   1.00
N4     N     0.43550   0.38650   0.46630   0.01267  Uiso   1.00
N5     N     0.89550   0.74020   0.66030   0.01267  Uiso   1.00
N6     N     0.10890   0.24700   0.16940   0.01267  Uiso   1.00
N7     N     0.75370   0.21320   0.02260   0.01267  Uiso   1.00
N8     N     0.12790   0.68450   0.53440   0.01267  Uiso   1.00
N9     N     0.68910   0.69410   0.56580   0.01267  Uiso   1.00
N10    N     0.10450   0.25980   0.33970   0.01267  Uiso   1.00
N11    N     0.31940   0.25050   0.03620   0.01267  Uiso   1.00
N12    N     0.32810   0.61000   0.50750   0.01267  Uiso   1.00
N13    N     0.68060   0.74950   0.96380   0.01267  Uiso   1.00
N14    N     0.88380   0.25940   0.06840   0.01267  Uiso   1.00
N15    N     0.31090   0.30590   0.43420   0.01267  Uiso   1.00
N16    N     0.67190   0.39000   0.49250   0.01267  Uiso   1.00
N17    N     0.24630   0.78680   0.97740   0.01267  Uiso   1.00
N18    N     0.51130   0.20440   0.99750   0.01267  Uiso   1.00
N19    N     0.11620   0.74060   0.93160   0.01267  Uiso   1.00
N20    N     0.89110   0.75300   0.83060   0.01267  Uiso   1.00
O1     O     0.96930   0.97850   0.82830   0.01267  Uiso   1.00
O2     O     0.63810   0.07010   0.90680   0.01267  Uiso   1.00
O3     O     0.57410   0.63560   0.39510   0.01267  Uiso   1.00
O4     O     0.08340   0.34340   0.78790   0.01267  Uiso   1.00
O5     O     0.98160   0.41610   0.95720   0.01267  Uiso   1.00
O6     O     0.09180   0.51000   0.15170   0.01267  Uiso   1.00
O7     O     0.36190   0.92990   0.09320   0.01267  Uiso   1.00
O8     O     0.33390   0.99880   0.68970   0.01267  Uiso   1.00
O9     O     0.01200   0.84720   0.73170   0.01267  Uiso   1.00
O10    O     0.94140   0.42600   0.57400   0.01267  Uiso   1.00
O11    O     0.17090   0.23480   0.90320   0.01267  Uiso   1.00
O12    O     0.66020   0.67910   0.19870   0.01267  Uiso   1.00
O13    O     0.65820   0.06410   0.14750   0.01267  Uiso   1.00
O14    O     0.13640   0.93100   0.06600   0.01267  Uiso   1.00
O15    O     0.33980   0.32090   0.80130   0.01267  Uiso   1.00
O16    O     0.32450   0.81560   0.34050   0.01267  Uiso   1.00
O17    O     0.89230   0.94670   0.11090   0.01267  Uiso   1.00
O18    O     0.58610   0.79000   0.29490   0.01267  Uiso   1.00
O19    O     0.71680   0.01910   0.42270   0.01267  Uiso   1.00
O20    O     0.97870   0.45900   0.68720   0.01267  Uiso   1.00
O21    O     0.82910   0.76520   0.09680   0.01267  Uiso   1.00
O22    O     0.19510   0.92600   0.77010   0.01267  Uiso   1.00
O23    O     0.81620   0.40360   0.76870   0.01267  Uiso   1.00
O24    O     0.42990   0.59850   0.19590   0.01267  Uiso   1.00
O25    O     0.40160   0.58300   0.31890   0.01267  Uiso   1.00
O26    O     0.17590   0.38210   0.61030   0.01267  Uiso   1.00
O27    O     0.14510   0.45290   0.86190   0.01267  Uiso   1.00
O28    O     0.84000   0.77330   0.30690   0.01267  Uiso   1.00
O29    O     0.34540   0.17140   0.60950   0.01267  Uiso   1.00
O30    O     0.82410   0.61790   0.38970   0.01267  Uiso   1.00
O31    O     0.42590   0.36440   0.60490   0.01267  Uiso   1.00
O32    O     0.10370   0.02820   0.67540   0.01267  Uiso   1.00
O33    O     0.90820   0.49000   0.84830   0.01267  Uiso   1.00
O34    O     0.10290   0.71280   0.33230   0.01267  Uiso   1.00
O35    O     0.71030   0.43540   0.21590   0.01267  Uiso   1.00
O36    O     0.19490   0.36850   0.24380   0.01267  Uiso   1.00
O37    O     0.41010   0.83060   0.21840   0.01267  Uiso   1.00
O38    O     0.10700   0.20170   0.59390   0.01267  Uiso   1.00
O39    O     0.13550   0.93070   0.26930   0.01267  Uiso   1.00
O40    O     0.80490   0.07400   0.22990   0.01267  Uiso   1.00
O41    O     0.98800   0.15280   0.26830   0.01267  Uiso   1.00
O42    O     0.02090   0.14830   0.77830   0.01267  Uiso   1.00
O43    O     0.66610   0.00120   0.31030   0.01267  Uiso   1.00
O44    O     0.51980   0.99520   0.23370   0.01267  Uiso   1.00
O45    O     0.86360   0.06900   0.93400   0.01267  Uiso   1.00
O46    O     0.59840   0.41700   0.68110   0.01267  Uiso   1.00
O47    O     0.44380   0.79380   0.75830   0.01267  Uiso   1.00
O48    O     0.03070   0.02150   0.17170   0.01267  Uiso   1.00
O49    O     0.58990   0.16940   0.78160   0.01267  Uiso   1.00
O50    O     0.97910   0.85170   0.22170   0.01267  Uiso   1.00
O51    O     0.48020   0.00480   0.76630   0.01267  Uiso   1.00
O52    O     0.70740   0.97880   0.03870   0.01267  Uiso   1.00
O53    O     0.27370   0.08800   0.25910   0.01267  Uiso   1.00
O54    O     0.74090   0.57680   0.29530   0.01267  Uiso   1.00
O55    O     0.01840   0.58390   0.04280   0.01267  Uiso   1.00
O56    O     0.05860   0.57400   0.42600   0.01267  Uiso   1.00
O57    O     0.29260   0.02120   0.96130   0.01267  Uiso   1.00
O58    O     0.89300   0.79830   0.40610   0.01267  Uiso   1.00
O59    O     0.72630   0.91200   0.74090   0.01267  Uiso   1.00
O60    O     0.57010   0.40150   0.80410   0.01267  Uiso   1.00
O61    O     0.55620   0.20620   0.24170   0.01267  Uiso   1.00
O62    O     0.34180   0.93590   0.85250   0.01267  Uiso   1.00
O63    O     0.18380   0.59640   0.23130   0.01267  Uiso   1.00
O64    O     0.78900   0.18790   0.83460   0.01267  Uiso   1.00
O65    O     0.85490   0.54710   0.13810   0.01267  Uiso   1.00
O66    O     0.16000   0.22670   0.69310   0.01267  Uiso   1.00
O67    O     0.89630   0.97180   0.32460   0.01267  Uiso   1.00
O68    O     0.67550   0.18440   0.65950   0.01267  Uiso   1.00
O69    O     0.80510   0.63150   0.75620   0.01267  Uiso   1.00
O70    O     0.28320   0.98090   0.57730   0.01267  Uiso   1.00
O71    O     0.91660   0.65660   0.21210   0.01267  Uiso   1.00
O72    O     0.86450   0.06930   0.73070   0.01267  Uiso   1.00
O73    O     0.41390   0.21000   0.70510   0.01267  Uiso   1.00
O74    O     0.94240   0.43820   0.23720   0.01267  Uiso   1.00
O75    O     0.21100   0.81210   0.16540   0.01267  Uiso   1.00
O76    O     0.89710   0.28720   0.66770   0.01267  Uiso   1.00
O77    O     0.02130   0.54100   0.31280   0.01267  Uiso   1.00
O78    O     0.25910   0.42320   0.70470   0.01267  Uiso   1.00
O79    O     0.94340   0.26170   0.88530   0.01267  Uiso   1.00
O80    O     0.05660   0.73830   0.11470   0.01267  Uiso   1.00
O81    O     0.59030   0.88190   0.13620   0.01267  Uiso   1.00
O82    O     0.74690   0.86870   0.20830   0.01267  Uiso   1.00
O83    O     0.10770   0.05330   0.88910   0.01267  Uiso   1.00
O84    O     0.28970   0.56460   0.78410   0.01267  Uiso   1.00
O85    O     0.25310   0.13130   0.79170   0.01267  Uiso   1.00
O86    O     0.05760   0.56180   0.76280   0.01267  Uiso   1.00
O87    O     0.65460   0.82860   0.39050   0.01267  Uiso   1.00
O88    O     0.40970   0.11810   0.86380   0.01267  Uiso   1.00
