data_POVZUX_freeONLY
_audit_creation_date              2015-10-16
_audit_creation_method            'Materials Studio'
_symmetry_space_group_name_H-M    'P1'
_symmetry_Int_Tables_number       1
_symmetry_cell_setting            triclinic
loop_
_symmetry_equiv_pos_as_xyz
  x,y,z
_cell_length_a                    11.3840
_cell_length_b                    12.1890
_cell_length_c                    23.3310
_cell_angle_alpha                 83.7500
_cell_angle_beta                  82.0220
_cell_angle_gamma                 70.6970
loop_
_atom_site_label
_atom_site_type_symbol
_atom_site_fract_x
_atom_site_fract_y
_atom_site_fract_z
_atom_site_U_iso_or_equiv
_atom_site_adp_type
_atom_site_occupancy
Sm1    Sm    0.26350   0.73297   0.26011   0.01267  Uiso   1.00
Sm2    Sm    0.73650   0.26703   0.73989   0.01267  Uiso   1.00
Cu1    Cu    0.69160   0.13050   0.97222   0.01267  Uiso   1.00
Cu2    Cu    0.10860   0.24250   0.25502   0.01267  Uiso   1.00
Cu3    Cu    0.30840   0.86950   0.02778   0.01267  Uiso   1.00
Cu4    Cu    0.89140   0.75750   0.74498   0.01267  Uiso   1.00
Cu5    Cu    0.50000   0.50000   0.50000   0.01267  Uiso   1.00
Si1    Si    0.12640   0.21270   0.76270   0.01267  Uiso   1.00
Si2    Si    0.87360   0.78730   0.23730   0.01267  Uiso   1.00
H1     H     0.32370   0.70190   0.43100   0.01267  Uiso   1.00
H2     H     0.10800   0.24790   0.01040   0.01267  Uiso   1.00
H3     H     0.08200   0.33100   0.49650   0.01267  Uiso   1.00
H4     H     0.27830   0.25480   0.33630   0.01267  Uiso   1.00
H5     H     0.54140   0.87620   0.92960   0.01267  Uiso   1.00
H6     H     0.28670   0.23680   0.14880   0.01267  Uiso   1.00
H7     H     0.25540   0.47120   0.45950   0.01267  Uiso   1.00
H8     H     0.53500   0.64750   0.06290   0.01267  Uiso   1.00
H9     H     0.93370   0.25110   0.17360   0.01267  Uiso   1.00
H10    H     0.74790   0.44890   0.41870   0.01267  Uiso   1.00
H11    H     0.74300   0.39130   0.11510   0.01267  Uiso   1.00
H12    H     0.89200   0.75210   0.98960   0.01267  Uiso   1.00
H13    H     0.41550   0.76130   0.54320   0.01267  Uiso   1.00
H14    H     0.45860   0.12380   0.07040   0.01267  Uiso   1.00
H15    H     0.90470   0.19930   0.53750   0.01267  Uiso   1.00
H16    H     0.06630   0.74890   0.82640   0.01267  Uiso   1.00
H17    H     0.39760   0.64740   0.94570   0.01267  Uiso   1.00
H18    H     0.94000   0.13010   0.01400   0.01267  Uiso   1.00
H19    H     0.75480   0.62280   0.02330   0.01267  Uiso   1.00
H20    H     0.25700   0.60870   0.88490   0.01267  Uiso   1.00
H21    H     0.74460   0.52880   0.54050   0.01267  Uiso   1.00
H22    H     0.54630   0.85020   0.58540   0.01267  Uiso   1.00
H23    H     0.60240   0.35260   0.05430   0.01267  Uiso   1.00
H24    H     0.24520   0.37720   0.97670   0.01267  Uiso   1.00
H25    H     0.67630   0.29810   0.56900   0.01267  Uiso   1.00
H26    H     0.09530   0.80070   0.46250   0.01267  Uiso   1.00
H27    H     0.46500   0.35250   0.93710   0.01267  Uiso   1.00
H28    H     0.91800   0.66900   0.50350   0.01267  Uiso   1.00
H29    H     0.93750   0.25520   0.35920   0.01267  Uiso   1.00
H30    H     0.25210   0.55110   0.58130   0.01267  Uiso   1.00
H31    H     0.58450   0.23870   0.45680   0.01267  Uiso   1.00
H32    H     0.45370   0.14980   0.41460   0.01267  Uiso   1.00
H33    H     0.71330   0.76320   0.85120   0.01267  Uiso   1.00
H34    H     0.72170   0.74520   0.66370   0.01267  Uiso   1.00
H35    H     0.06250   0.74480   0.64080   0.01267  Uiso   1.00
H36    H     0.06000   0.86990   0.98600   0.01267  Uiso   1.00
W1     W     0.92758   0.11811   0.86721   0.01267  Uiso   1.00
W2     W     0.68400   0.68652   0.35438   0.01267  Uiso   1.00
W3     W     0.74316   0.92467   0.10766   0.01267  Uiso   1.00
W4     W     0.56289   0.83424   0.21658   0.01267  Uiso   1.00
W5     W     0.91117   0.49088   0.76447   0.01267  Uiso   1.00
W6     W     0.08883   0.50912   0.23553   0.01267  Uiso   1.00
W7     W     0.43711   0.16576   0.78342   0.01267  Uiso   1.00
W8     W     0.23396   0.07845   0.63100   0.01267  Uiso   1.00
W9     W     0.01059   0.34366   0.63091   0.01267  Uiso   1.00
W10    W     0.01731   0.98575   0.74517   0.01267  Uiso   1.00
W11    W     0.78888   0.53468   0.21800   0.01267  Uiso   1.00
W12    W     0.64999   0.06832   0.23090   0.01267  Uiso   1.00
W13    W     0.25684   0.07533   0.89234   0.01267  Uiso   1.00
W14    W     0.97110   0.62920   0.11083   0.01267  Uiso   1.00
W15    W     0.98269   0.01425   0.25483   0.01267  Uiso   1.00
W16    W     0.35001   0.93168   0.76910   0.01267  Uiso   1.00
W17    W     0.07242   0.88189   0.13279   0.01267  Uiso   1.00
W18    W     0.98941   0.65634   0.36909   0.01267  Uiso   1.00
W19    W     0.02890   0.37080   0.88917   0.01267  Uiso   1.00
W20    W     0.31600   0.31348   0.64562   0.01267  Uiso   1.00
W21    W     0.76604   0.92155   0.36900   0.01267  Uiso   1.00
W22    W     0.21112   0.46532   0.78200   0.01267  Uiso   1.00
C1     C     0.21400   0.23980   0.07430   0.01267  Uiso   1.00
C2     C     0.79720   0.71190   0.58420   0.01267  Uiso   1.00
C3     C     0.31700   0.32400   0.99030   0.01267  Uiso   1.00
C4     C     0.43800   0.30800   0.96730   0.01267  Uiso   1.00
C5     C     0.15200   0.74000   0.48240   0.01267  Uiso   1.00
C6     C     0.23700   0.66300   0.91280   0.01267  Uiso   1.00
C7     C     0.68300   0.67600   0.00970   0.01267  Uiso   1.00
C8     C     0.20280   0.28810   0.41580   0.01267  Uiso   1.00
C9     C     0.32100   0.40200   0.45480   0.01267  Uiso   1.00
C10    C     0.00090   0.25130   0.08900   0.01267  Uiso   1.00
C11    C     0.50000   0.27500   0.45200   0.01267  Uiso   1.00
C12    C     0.24100   0.60320   0.54870   0.01267  Uiso   1.00
C13    C     0.43400   0.18200   0.04140   0.01267  Uiso   1.00
C14    C     0.57100   0.77700   0.57040   0.01267  Uiso   1.00
C15    C     0.00360   0.26830   0.37360   0.01267  Uiso   1.00
C16    C     0.42900   0.22300   0.42960   0.01267  Uiso   1.00
C17    C     0.56200   0.69200   0.03270   0.01267  Uiso   1.00
C18    C     0.99640   0.73170   0.62640   0.01267  Uiso   1.00
C19    C     0.00500   0.24890   0.14840   0.01267  Uiso   1.00
C20    C     0.50000   0.72500   0.54800   0.01267  Uiso   1.00
C21    C     0.72000   0.31300   0.53390   0.01267  Uiso   1.00
C22    C     0.21400   0.23960   0.13370   0.01267  Uiso   1.00
C23    C     0.56600   0.81800   0.95860   0.01267  Uiso   1.00
C24    C     0.01220   0.70040   0.56870   0.01267  Uiso   1.00
C25    C     0.28000   0.68700   0.46610   0.01267  Uiso   1.00
C26    C     0.79570   0.73470   0.63910   0.01267  Uiso   1.00
C27    C     0.99910   0.74870   0.91100   0.01267  Uiso   1.00
C28    C     0.76300   0.33700   0.08720   0.01267  Uiso   1.00
C29    C     0.98780   0.29960   0.43130   0.01267  Uiso   1.00
C30    C     0.75900   0.39680   0.45130   0.01267  Uiso   1.00
C31    C     0.10800   0.24650   0.05030   0.01267  Uiso   1.00
C32    C     0.68700   0.31100   0.05480   0.01267  Uiso   1.00
C33    C     0.99500   0.75110   0.85160   0.01267  Uiso   1.00
C34    C     0.89200   0.75350   0.94970   0.01267  Uiso   1.00
C35    C     0.67900   0.59800   0.54520   0.01267  Uiso   1.00
C36    C     0.91200   0.68800   0.54150   0.01267  Uiso   1.00
C37    C     0.84800   0.26000   0.51760   0.01267  Uiso   1.00
C38    C     0.87400   0.18900   0.03110   0.01267  Uiso   1.00
C39    C     0.78600   0.76020   0.92570   0.01267  Uiso   1.00
C40    C     0.78600   0.76040   0.86630   0.01267  Uiso   1.00
C41    C     0.20430   0.26530   0.36090   0.01267  Uiso   1.00
C42    C     0.08800   0.31200   0.45850   0.01267  Uiso   1.00
C43    C     0.12600   0.81100   0.96890   0.01267  Uiso   1.00
C44    C     0.31300   0.68900   0.94520   0.01267  Uiso   1.00
N1     N     0.12850   0.68290   0.53480   0.01267  Uiso   1.00
N2     N     0.87150   0.31710   0.46520   0.01267  Uiso   1.00
N3     N     0.67790   0.75310   0.96330   0.01267  Uiso   1.00
N4     N     0.68640   0.69780   0.56530   0.01267  Uiso   1.00
N5     N     0.67310   0.38630   0.49160   0.01267  Uiso   1.00
N6     N     0.89040   0.75660   0.83010   0.01267  Uiso   1.00
N7     N     0.32210   0.24690   0.03670   0.01267  Uiso   1.00
N8     N     0.32690   0.61370   0.50840   0.01267  Uiso   1.00
N9     N     0.11580   0.74080   0.93290   0.01267  Uiso   1.00
N10    N     0.48860   0.78830   0.00250   0.01267  Uiso   1.00
N11    N     0.10670   0.25700   0.34000   0.01267  Uiso   1.00
N12    N     0.24860   0.78560   0.97770   0.01267  Uiso   1.00
N13    N     0.10960   0.24340   0.16990   0.01267  Uiso   1.00
N14    N     0.89330   0.74300   0.66000   0.01267  Uiso   1.00
N15    N     0.56340   0.61660   0.53380   0.01267  Uiso   1.00
N16    N     0.88420   0.25920   0.06710   0.01267  Uiso   1.00
N17    N     0.43660   0.38340   0.46620   0.01267  Uiso   1.00
N18    N     0.75140   0.21440   0.02230   0.01267  Uiso   1.00
N19    N     0.31360   0.30220   0.43470   0.01267  Uiso   1.00
N20    N     0.51140   0.21170   0.99750   0.01267  Uiso   1.00
O1     O     0.01940   0.58320   0.04220   0.01267  Uiso   1.00
O2     O     0.91430   0.66440   0.21150   0.01267  Uiso   1.00
O3     O     0.47670   0.00990   0.76610   0.01267  Uiso   1.00
O4     O     0.79100   0.18770   0.83530   0.01267  Uiso   1.00
O5     O     0.94620   0.25890   0.88590   0.01267  Uiso   1.00
O6     O     0.10540   0.05590   0.89030   0.01267  Uiso   1.00
O7     O     0.56360   0.40610   0.80650   0.01267  Uiso   1.00
O8     O     0.08570   0.33560   0.78850   0.01267  Uiso   1.00
O9     O     0.66100   0.06510   0.14790   0.01267  Uiso   1.00
O10    O     0.89460   0.94410   0.10970   0.01267  Uiso   1.00
O11    O     0.28160   0.98210   0.57730   0.01267  Uiso   1.00
O12    O     0.40660   0.83770   0.21820   0.01267  Uiso   1.00
O13    O     0.86380   0.07160   0.73110   0.01267  Uiso   1.00
O14    O     0.40200   0.58000   0.32020   0.01267  Uiso   1.00
O15    O     0.90730   0.48950   0.84860   0.01267  Uiso   1.00
O16    O     0.42480   0.36750   0.60420   0.01267  Uiso   1.00
O17    O     0.98770   0.15160   0.26610   0.01267  Uiso   1.00
O18    O     0.59340   0.16230   0.78180   0.01267  Uiso   1.00
O19    O     0.41120   0.11570   0.86400   0.01267  Uiso   1.00
O20    O     0.83690   0.77030   0.30820   0.01267  Uiso   1.00
O21    O     0.01230   0.84840   0.73390   0.01267  Uiso   1.00
O22    O     0.03260   0.02140   0.17350   0.01267  Uiso   1.00
O23    O     0.44500   0.78840   0.76060   0.01267  Uiso   1.00
O24    O     0.34720   0.16600   0.60610   0.01267  Uiso   1.00
O25    O     0.10550   0.02170   0.67420   0.01267  Uiso   1.00
O26    O     0.94220   0.42680   0.57300   0.01267  Uiso   1.00
O27    O     0.33900   0.93490   0.85210   0.01267  Uiso   1.00
O28    O     0.80730   0.63010   0.75750   0.01267  Uiso   1.00
O29    O     0.17070   0.23950   0.90270   0.01267  Uiso   1.00
O30    O     0.74130   0.58110   0.29570   0.01267  Uiso   1.00
O31    O     0.10500   0.20300   0.59500   0.01267  Uiso   1.00
O32    O     0.96740   0.97860   0.82650   0.01267  Uiso   1.00
O33    O     0.59800   0.42000   0.67980   0.01267  Uiso   1.00
O34    O     0.75170   0.86500   0.20800   0.01267  Uiso   1.00
O35    O     0.66260   0.67850   0.20020   0.01267  Uiso   1.00
O36    O     0.97720   0.46100   0.68670   0.01267  Uiso   1.00
O37    O     0.71840   0.01790   0.42270   0.01267  Uiso   1.00
O38    O     0.02280   0.53900   0.31330   0.01267  Uiso   1.00
O39    O     0.02200   0.15100   0.77880   0.01267  Uiso   1.00
O40    O     0.58880   0.88430   0.13600   0.01267  Uiso   1.00
O41    O     0.67180   0.99950   0.30930   0.01267  Uiso   1.00
O42    O     0.82930   0.76050   0.09730   0.01267  Uiso   1.00
O43    O     0.82270   0.61890   0.38950   0.01267  Uiso   1.00
O44    O     0.29450   0.02030   0.96250   0.01267  Uiso   1.00
O45    O     0.98060   0.41680   0.95780   0.01267  Uiso   1.00
O46    O     0.18750   0.92970   0.77140   0.01267  Uiso   1.00
O47    O     0.32820   0.00050   0.69070   0.01267  Uiso   1.00
O48    O     0.89500   0.79700   0.40500   0.01267  Uiso   1.00
O49    O     0.86020   0.07220   0.93350   0.01267  Uiso   1.00
O50    O     0.43640   0.59390   0.19350   0.01267  Uiso   1.00
O51    O     0.20900   0.81230   0.16470   0.01267  Uiso   1.00
O52    O     0.13980   0.92780   0.06650   0.01267  Uiso   1.00
O53    O     0.81250   0.07030   0.22860   0.01267  Uiso   1.00
O54    O     0.94180   0.44000   0.23690   0.01267  Uiso   1.00
O55    O     0.18310   0.59540   0.23180   0.01267  Uiso   1.00
O56    O     0.52330   0.99010   0.23390   0.01267  Uiso   1.00
O57    O     0.58840   0.78690   0.29460   0.01267  Uiso   1.00
O58    O     0.57520   0.63250   0.39580   0.01267  Uiso   1.00
O59    O     0.10230   0.71500   0.33220   0.01267  Uiso   1.00
O60    O     0.14380   0.45680   0.86240   0.01267  Uiso   1.00
O61    O     0.89770   0.28500   0.66780   0.01267  Uiso   1.00
O62    O     0.19270   0.36990   0.24250   0.01267  Uiso   1.00
O63    O     0.13620   0.92840   0.26890   0.01267  Uiso   1.00
O64    O     0.70920   0.43640   0.21520   0.01267  Uiso   1.00
O65    O     0.41160   0.21310   0.70540   0.01267  Uiso   1.00
O66    O     0.25870   0.41890   0.70430   0.01267  Uiso   1.00
O67    O     0.36280   0.93070   0.09330   0.01267  Uiso   1.00
O68    O     0.81690   0.40460   0.76820   0.01267  Uiso   1.00
O69    O     0.26620   0.09300   0.25990   0.01267  Uiso   1.00
O70    O     0.85620   0.54320   0.13760   0.01267  Uiso   1.00
O71    O     0.05820   0.56000   0.76310   0.01267  Uiso   1.00
O72    O     0.09270   0.51050   0.15140   0.01267  Uiso   1.00
O73    O     0.65280   0.83400   0.39390   0.01267  Uiso   1.00
O74    O     0.63720   0.06930   0.90670   0.01267  Uiso   1.00
O75    O     0.97800   0.84900   0.22120   0.01267  Uiso   1.00
O76    O     0.29080   0.56360   0.78480   0.01267  Uiso   1.00
O77    O     0.17730   0.38110   0.61050   0.01267  Uiso   1.00
O78    O     0.73380   0.90700   0.74010   0.01267  Uiso   1.00
O79    O     0.89450   0.97830   0.32580   0.01267  Uiso   1.00
O80    O     0.32270   0.81790   0.34140   0.01267  Uiso   1.00
O81    O     0.55500   0.21160   0.23940   0.01267  Uiso   1.00
O82    O     0.33740   0.32150   0.79980   0.01267  Uiso   1.00
O83    O     0.24830   0.13500   0.79200   0.01267  Uiso   1.00
O84    O     0.05780   0.57320   0.42700   0.01267  Uiso   1.00
O85    O     0.16310   0.22970   0.69180   0.01267  Uiso   1.00
O86    O     0.70550   0.97970   0.03750   0.01267  Uiso   1.00
O87    O     0.67730   0.18210   0.65860   0.01267  Uiso   1.00
O88    O     0.05380   0.74110   0.11410   0.01267  Uiso   1.00
