data_image0
_cell_length_a       9.1137
_cell_length_b       9.6639
_cell_length_c       22.259
_cell_angle_alpha    90
_cell_angle_beta     90
_cell_angle_gamma    117.96

_symmetry_space_group_name_H-M    P 1
_symmetry_int_tables_number       1

loop_
  _symmetry_equiv_pos_as_xyz
  'x, y, z'

loop_
  _atom_site_label
  _atom_site_occupancy
  _atom_site_fract_x
  _atom_site_fract_y
  _atom_site_fract_z
  _atom_site_thermal_displace_type
  _atom_site_B_iso_or_equiv
  _atom_site_type_symbol
  Ho1      1.0000 0.61922  0.35460  0.00827  Biso   1.000  Ho
  Ho2      1.0000 0.88078  0.64540  0.50827  Biso   1.000  Ho
  Ho3      1.0000 0.38078  0.64540  0.99173  Biso   1.000  Ho
  Ho4      1.0000 0.11922  0.35460  0.49173  Biso   1.000  Ho
  Ag1      1.0000 0.01177  0.67984  0.85168  Biso   1.000  Ag
  Ag2      1.0000 0.48823  0.32016  0.35168  Biso   1.000  Ag
  Ag3      1.0000 0.98823  0.32016  0.14832  Biso   1.000  Ag
  Ag4      1.0000 0.51177  0.67984  0.64832  Biso   1.000  Ag
  H1       1.0000 0.94520  0.22720  0.92890  Biso   1.000  H
  H2       1.0000 0.74600  0.03680  0.86780  Biso   1.000  H
  H3       1.0000 0.77530  0.82320  0.84110  Biso   1.000  H
  H4       1.0000 0.18250  0.97110  0.93500  Biso   1.000  H
  H5       1.0000 0.98510  0.63800  0.71590  Biso   1.000  H
  H6       1.0000 0.10180  0.30950  0.65990  Biso   1.000  H
  H7       1.0000 0.13870  0.26250  0.75980  Biso   1.000  H
  H8       1.0000 0.10840  0.41220  0.83340  Biso   1.000  H
  H9       1.0000 0.55480  0.77280  0.42890  Biso   1.000  H
  H10      1.0000 0.75400  0.96320  0.36780  Biso   1.000  H
  H11      1.0000 0.72470  0.17680  0.34110  Biso   1.000  H
  H12      1.0000 0.31750  0.02890  0.43500  Biso   1.000  H
  H13      1.0000 0.51490  0.36200  0.21590  Biso   1.000  H
  H14      1.0000 0.39820  0.69050  0.15990  Biso   1.000  H
  H15      1.0000 0.36130  0.73750  0.25980  Biso   1.000  H
  H16      1.0000 0.39160  0.58780  0.33340  Biso   1.000  H
  H17      1.0000 0.05480  0.77280  0.07110  Biso   1.000  H
  H18      1.0000 0.25400  0.96320  0.13220  Biso   1.000  H
  H19      1.0000 0.22470  0.17680  0.15890  Biso   1.000  H
  H20      1.0000 0.81750  0.02890  0.06500  Biso   1.000  H
  H21      1.0000 0.01490  0.36200  0.28410  Biso   1.000  H
  H22      1.0000 0.89820  0.69050  0.34010  Biso   1.000  H
  H23      1.0000 0.86130  0.73750  0.24020  Biso   1.000  H
  H24      1.0000 0.89160  0.58780  0.16660  Biso   1.000  H
  H25      1.0000 0.44520  0.22720  0.57110  Biso   1.000  H
  H26      1.0000 0.24600  0.03680  0.63220  Biso   1.000  H
  H27      1.0000 0.27530  0.82320  0.65890  Biso   1.000  H
  H28      1.0000 0.68250  0.97110  0.56500  Biso   1.000  H
  H29      1.0000 0.48510  0.63800  0.78410  Biso   1.000  H
  H30      1.0000 0.60180  0.30950  0.84010  Biso   1.000  H
  H31      1.0000 0.63870  0.26250  0.74020  Biso   1.000  H
  H32      1.0000 0.60840  0.41220  0.66660  Biso   1.000  H
  C1       1.0000 0.22440  0.24610  0.97436  Biso   1.000  C
  C2       1.0000 0.08810  0.11970  0.93770  Biso   1.000  C
  C3       1.0000 0.95490  0.13910  0.91787  Biso   1.000  C
  C4       1.0000 0.83650  0.02600  0.88140  Biso   1.000  C
  C5       1.0000 0.85480  0.89830  0.86590  Biso   1.000  C
  C6       1.0000 0.09500  0.98610  0.92080  Biso   1.000  C
  C7       1.0000 0.01840  0.56270  0.72449  Biso   1.000  C
  C8       1.0000 0.03940  0.48110  0.67720  Biso   1.000  C
  C9       1.0000 0.08630  0.36690  0.69050  Biso   1.000  C
  C10      1.0000 0.10970  0.33990  0.74980  Biso   1.000  C
  C11      1.0000 0.08940  0.42900  0.79370  Biso   1.000  C
  C12      1.0000 0.01080  0.51680  0.61420  Biso   1.000  C
  C13      1.0000 0.50810  0.00750  0.96559  Biso   1.000  C
  C14      1.0000 0.99780  0.52000  0.96683  Biso   1.000  C
  C15      1.0000 0.27560  0.75390  0.47436  Biso   1.000  C
  C16      1.0000 0.41190  0.88030  0.43770  Biso   1.000  C
  C17      1.0000 0.54510  0.86090  0.41787  Biso   1.000  C
  C18      1.0000 0.66350  0.97400  0.38140  Biso   1.000  C
  C19      1.0000 0.64520  0.10170  0.36590  Biso   1.000  C
  C20      1.0000 0.40500  0.01390  0.42080  Biso   1.000  C
  C21      1.0000 0.48160  0.43730  0.22449  Biso   1.000  C
  C22      1.0000 0.46060  0.51890  0.17720  Biso   1.000  C
  C23      1.0000 0.41370  0.63310  0.19050  Biso   1.000  C
  C24      1.0000 0.39030  0.66010  0.24980  Biso   1.000  C
  C25      1.0000 0.41060  0.57100  0.29370  Biso   1.000  C
  C26      1.0000 0.48920  0.48320  0.11420  Biso   1.000  C
  C27      1.0000 0.99190  0.99250  0.46559  Biso   1.000  C
  C28      1.0000 0.50220  0.48000  0.46683  Biso   1.000  C
  C29      1.0000 0.77560  0.75390  0.02564  Biso   1.000  C
  C30      1.0000 0.91190  0.88030  0.06230  Biso   1.000  C
  C31      1.0000 0.04510  0.86090  0.08213  Biso   1.000  C
  C32      1.0000 0.16350  0.97400  0.11860  Biso   1.000  C
  C33      1.0000 0.14520  0.10170  0.13410  Biso   1.000  C
  C34      1.0000 0.90500  0.01390  0.07920  Biso   1.000  C
  C35      1.0000 0.98160  0.43730  0.27551  Biso   1.000  C
  C36      1.0000 0.96060  0.51890  0.32280  Biso   1.000  C
  C37      1.0000 0.91370  0.63310  0.30950  Biso   1.000  C
  C38      1.0000 0.89030  0.66010  0.25020  Biso   1.000  C
  C39      1.0000 0.91060  0.57100  0.20630  Biso   1.000  C
  C40      1.0000 0.98920  0.48320  0.38580  Biso   1.000  C
  C41      1.0000 0.49190  0.99250  0.03441  Biso   1.000  C
  C42      1.0000 0.00220  0.48000  0.03317  Biso   1.000  C
  C43      1.0000 0.72440  0.24610  0.52564  Biso   1.000  C
  C44      1.0000 0.58810  0.11970  0.56230  Biso   1.000  C
  C45      1.0000 0.45490  0.13910  0.58213  Biso   1.000  C
  C46      1.0000 0.33650  0.02600  0.61860  Biso   1.000  C
  C47      1.0000 0.35480  0.89830  0.63410  Biso   1.000  C
  C48      1.0000 0.59500  0.98610  0.57920  Biso   1.000  C
  C49      1.0000 0.51840  0.56270  0.77551  Biso   1.000  C
  C50      1.0000 0.53940  0.48110  0.82280  Biso   1.000  C
  C51      1.0000 0.58630  0.36690  0.80950  Biso   1.000  C
  C52      1.0000 0.60970  0.33990  0.75020  Biso   1.000  C
  C53      1.0000 0.58940  0.42900  0.70630  Biso   1.000  C
  C54      1.0000 0.51080  0.51680  0.88580  Biso   1.000  C
  C55      1.0000 0.00810  0.00750  0.53441  Biso   1.000  C
  C56      1.0000 0.49780  0.52000  0.53317  Biso   1.000  C
  N1       1.0000 0.98190  0.87600  0.88476  Biso   1.000  N
  N2       1.0000 0.04330  0.53950  0.78198  Biso   1.000  N
  N3       1.0000 0.51810  0.12400  0.38476  Biso   1.000  N
  N4       1.0000 0.45670  0.46050  0.28198  Biso   1.000  N
  N5       1.0000 0.01810  0.12400  0.11524  Biso   1.000  N
  N6       1.0000 0.95670  0.46050  0.21802  Biso   1.000  N
  N7       1.0000 0.48190  0.87600  0.61524  Biso   1.000  N
  N8       1.0000 0.54330  0.53950  0.71802  Biso   1.000  N
  O1       1.0000 0.32800  0.21260  0.99912  Biso   1.000  O
  O2       1.0000 0.22350  0.37450  0.97613  Biso   1.000  O
  O3       1.0000 0.94920  0.60760  0.60668  Biso   1.000  O
  O4       1.0000 0.04820  0.45170  0.57264  Biso   1.000  O
  O5       1.0000 0.13400  0.61490  0.94346  Biso   1.000  O
  O6       1.0000 0.86050  0.45690  0.94095  Biso   1.000  O
  O7       1.0000 0.57810  0.14370  0.94439  Biso   1.000  O
  O8       1.0000 0.45070  0.88260  0.93619  Biso   1.000  O
  O9       1.0000 0.17200  0.78740  0.49912  Biso   1.000  O
  O10      1.0000 0.27650  0.62550  0.47613  Biso   1.000  O
  O11      1.0000 0.55080  0.39240  0.10668  Biso   1.000  O
  O12      1.0000 0.45180  0.54830  0.07264  Biso   1.000  O
  O13      1.0000 0.36600  0.38510  0.44346  Biso   1.000  O
  O14      1.0000 0.63950  0.54310  0.44095  Biso   1.000  O
  O15      1.0000 0.92190  0.85630  0.44439  Biso   1.000  O
  O16      1.0000 0.04930  0.11740  0.43619  Biso   1.000  O
  O17      1.0000 0.67200  0.78740  0.00088  Biso   1.000  O
  O18      1.0000 0.77650  0.62550  0.02387  Biso   1.000  O
  O19      1.0000 0.05080  0.39240  0.39332  Biso   1.000  O
  O20      1.0000 0.95180  0.54830  0.42736  Biso   1.000  O
  O21      1.0000 0.86600  0.38510  0.05654  Biso   1.000  O
  O22      1.0000 0.13950  0.54310  0.05905  Biso   1.000  O
  O23      1.0000 0.42190  0.85630  0.05561  Biso   1.000  O
  O24      1.0000 0.54930  0.11740  0.06381  Biso   1.000  O
  O25      1.0000 0.82800  0.21260  0.50088  Biso   1.000  O
  O26      1.0000 0.72350  0.37450  0.52387  Biso   1.000  O
  O27      1.0000 0.44920  0.60760  0.89332  Biso   1.000  O
  O28      1.0000 0.54820  0.45170  0.92736  Biso   1.000  O
  O29      1.0000 0.63400  0.61490  0.55654  Biso   1.000  O
  O30      1.0000 0.36050  0.45690  0.55905  Biso   1.000  O
  O31      1.0000 0.07810  0.14370  0.55561  Biso   1.000  O
  O32      1.0000 0.95070  0.88260  0.56381  Biso   1.000  O
