data_image0
_cell_length_a       9.1262
_cell_length_b       9.6798
_cell_length_c       22.2733
_cell_angle_alpha    90
_cell_angle_beta     90
_cell_angle_gamma    117.872

_symmetry_space_group_name_H-M    P 1
_symmetry_int_tables_number       1

loop_
  _symmetry_equiv_pos_as_xyz
  'x, y, z'

loop_
  _atom_site_label
  _atom_site_occupancy
  _atom_site_fract_x
  _atom_site_fract_y
  _atom_site_fract_z
  _atom_site_thermal_displace_type
  _atom_site_B_iso_or_equiv
  _atom_site_type_symbol
  Dy1      1.0000 0.61898  0.35499  0.00833  Biso   1.000  Dy
  Dy2      1.0000 0.88102  0.64501  0.50833  Biso   1.000  Dy
  Dy3      1.0000 0.38102  0.64501  0.99167  Biso   1.000  Dy
  Dy4      1.0000 0.11898  0.35499  0.49167  Biso   1.000  Dy
  Ag1      1.0000 0.01259  0.68019  0.85187  Biso   1.000  Ag
  Ag2      1.0000 0.48741  0.31981  0.35187  Biso   1.000  Ag
  Ag3      1.0000 0.98741  0.31981  0.14813  Biso   1.000  Ag
  Ag4      1.0000 0.51259  0.68019  0.64813  Biso   1.000  Ag
  H1       1.0000 0.94470  0.22650  0.92830  Biso   1.000  H
  H2       1.0000 0.74500  0.03670  0.86830  Biso   1.000  H
  H3       1.0000 0.77640  0.82360  0.84050  Biso   1.000  H
  H4       1.0000 0.18330  0.97210  0.93430  Biso   1.000  H
  H5       1.0000 0.98700  0.63940  0.71650  Biso   1.000  H
  H6       1.0000 0.10180  0.30970  0.66000  Biso   1.000  H
  H7       1.0000 0.13830  0.26330  0.75990  Biso   1.000  H
  H8       1.0000 0.10970  0.41290  0.83370  Biso   1.000  H
  H9       1.0000 0.55530  0.77350  0.42830  Biso   1.000  H
  H10      1.0000 0.75500  0.96330  0.36830  Biso   1.000  H
  H11      1.0000 0.72360  0.17640  0.34050  Biso   1.000  H
  H12      1.0000 0.31670  0.02790  0.43430  Biso   1.000  H
  H13      1.0000 0.51300  0.36060  0.21650  Biso   1.000  H
  H14      1.0000 0.39820  0.69030  0.16000  Biso   1.000  H
  H15      1.0000 0.36170  0.73670  0.25990  Biso   1.000  H
  H16      1.0000 0.39030  0.58710  0.33370  Biso   1.000  H
  H17      1.0000 0.05530  0.77350  0.07170  Biso   1.000  H
  H18      1.0000 0.25500  0.96330  0.13170  Biso   1.000  H
  H19      1.0000 0.22360  0.17640  0.15950  Biso   1.000  H
  H20      1.0000 0.81670  0.02790  0.06570  Biso   1.000  H
  H21      1.0000 0.01300  0.36060  0.28350  Biso   1.000  H
  H22      1.0000 0.89820  0.69030  0.34000  Biso   1.000  H
  H23      1.0000 0.86170  0.73670  0.24010  Biso   1.000  H
  H24      1.0000 0.89030  0.58710  0.16630  Biso   1.000  H
  H25      1.0000 0.44470  0.22650  0.57170  Biso   1.000  H
  H26      1.0000 0.24500  0.03670  0.63170  Biso   1.000  H
  H27      1.0000 0.27640  0.82360  0.65950  Biso   1.000  H
  H28      1.0000 0.68330  0.97210  0.56570  Biso   1.000  H
  H29      1.0000 0.48700  0.63940  0.78350  Biso   1.000  H
  H30      1.0000 0.60180  0.30970  0.84000  Biso   1.000  H
  H31      1.0000 0.63830  0.26330  0.74010  Biso   1.000  H
  H32      1.0000 0.60970  0.41290  0.66630  Biso   1.000  H
  C1       1.0000 0.22390  0.24520  0.97420  Biso   1.000  C
  C2       1.0000 0.08750  0.11930  0.93750  Biso   1.000  C
  C3       1.0000 0.95410  0.13820  0.91750  Biso   1.000  C
  C4       1.0000 0.83600  0.02630  0.88160  Biso   1.000  C
  C5       1.0000 0.85500  0.89830  0.86560  Biso   1.000  C
  C6       1.0000 0.09540  0.98660  0.92050  Biso   1.000  C
  C7       1.0000 0.01930  0.56350  0.72500  Biso   1.000  C
  C8       1.0000 0.03970  0.48110  0.67750  Biso   1.000  C
  C9       1.0000 0.08640  0.36710  0.69050  Biso   1.000  C
  C10      1.0000 0.10960  0.34080  0.74990  Biso   1.000  C
  C11      1.0000 0.09010  0.42950  0.79410  Biso   1.000  C
  C12      1.0000 0.00980  0.51710  0.61490  Biso   1.000  C
  C13      1.0000 0.50850  0.00820  0.96550  Biso   1.000  C
  C14      1.0000 0.99840  0.52090  0.96680  Biso   1.000  C
  C15      1.0000 0.27610  0.75480  0.47420  Biso   1.000  C
  C16      1.0000 0.41250  0.88070  0.43750  Biso   1.000  C
  C17      1.0000 0.54590  0.86180  0.41750  Biso   1.000  C
  C18      1.0000 0.66400  0.97370  0.38160  Biso   1.000  C
  C19      1.0000 0.64500  0.10170  0.36560  Biso   1.000  C
  C20      1.0000 0.40460  0.01340  0.42050  Biso   1.000  C
  C21      1.0000 0.48070  0.43650  0.22500  Biso   1.000  C
  C22      1.0000 0.46030  0.51890  0.17750  Biso   1.000  C
  C23      1.0000 0.41360  0.63290  0.19050  Biso   1.000  C
  C24      1.0000 0.39040  0.65920  0.24990  Biso   1.000  C
  C25      1.0000 0.40990  0.57050  0.29410  Biso   1.000  C
  C26      1.0000 0.49020  0.48290  0.11490  Biso   1.000  C
  C27      1.0000 0.99150  0.99180  0.46550  Biso   1.000  C
  C28      1.0000 0.50160  0.47910  0.46680  Biso   1.000  C
  C29      1.0000 0.77610  0.75480  0.02580  Biso   1.000  C
  C30      1.0000 0.91250  0.88070  0.06250  Biso   1.000  C
  C31      1.0000 0.04590  0.86180  0.08250  Biso   1.000  C
  C32      1.0000 0.16400  0.97370  0.11840  Biso   1.000  C
  C33      1.0000 0.14500  0.10170  0.13440  Biso   1.000  C
  C34      1.0000 0.90460  0.01340  0.07950  Biso   1.000  C
  C35      1.0000 0.98070  0.43650  0.27500  Biso   1.000  C
  C36      1.0000 0.96030  0.51890  0.32250  Biso   1.000  C
  C37      1.0000 0.91360  0.63290  0.30950  Biso   1.000  C
  C38      1.0000 0.89040  0.65920  0.25010  Biso   1.000  C
  C39      1.0000 0.90990  0.57050  0.20590  Biso   1.000  C
  C40      1.0000 0.99020  0.48290  0.38510  Biso   1.000  C
  C41      1.0000 0.49150  0.99180  0.03450  Biso   1.000  C
  C42      1.0000 0.00160  0.47910  0.03320  Biso   1.000  C
  C43      1.0000 0.72390  0.24520  0.52580  Biso   1.000  C
  C44      1.0000 0.58750  0.11930  0.56250  Biso   1.000  C
  C45      1.0000 0.45410  0.13820  0.58250  Biso   1.000  C
  C46      1.0000 0.33600  0.02630  0.61840  Biso   1.000  C
  C47      1.0000 0.35500  0.89830  0.63440  Biso   1.000  C
  C48      1.0000 0.59540  0.98660  0.57950  Biso   1.000  C
  C49      1.0000 0.51930  0.56350  0.77500  Biso   1.000  C
  C50      1.0000 0.53970  0.48110  0.82250  Biso   1.000  C
  C51      1.0000 0.58640  0.36710  0.80950  Biso   1.000  C
  C52      1.0000 0.60960  0.34080  0.75010  Biso   1.000  C
  C53      1.0000 0.59010  0.42950  0.70590  Biso   1.000  C
  C54      1.0000 0.50980  0.51710  0.88510  Biso   1.000  C
  C55      1.0000 0.00850  0.00820  0.53450  Biso   1.000  C
  C56      1.0000 0.49840  0.52090  0.53320  Biso   1.000  C
  N1       1.0000 0.98150  0.87650  0.88467  Biso   1.000  N
  N2       1.0000 0.04380  0.53940  0.78229  Biso   1.000  N
  N3       1.0000 0.51850  0.12350  0.38467  Biso   1.000  N
  N4       1.0000 0.45620  0.46060  0.28229  Biso   1.000  N
  N5       1.0000 0.01850  0.12350  0.11533  Biso   1.000  N
  N6       1.0000 0.95620  0.46060  0.21771  Biso   1.000  N
  N7       1.0000 0.48150  0.87650  0.61533  Biso   1.000  N
  N8       1.0000 0.54380  0.53940  0.71771  Biso   1.000  N
  O1       1.0000 0.32710  0.21200  0.99864  Biso   1.000  O
  O2       1.0000 0.22240  0.37310  0.97555  Biso   1.000  O
  O3       1.0000 0.94820  0.60790  0.60749  Biso   1.000  O
  O4       1.0000 0.04780  0.45370  0.57281  Biso   1.000  O
  O5       1.0000 0.13370  0.61560  0.94360  Biso   1.000  O
  O6       1.0000 0.86070  0.45750  0.94094  Biso   1.000  O
  O7       1.0000 0.57850  0.14350  0.94446  Biso   1.000  O
  O8       1.0000 0.45050  0.88270  0.93628  Biso   1.000  O
  O9       1.0000 0.17290  0.78800  0.49864  Biso   1.000  O
  O10      1.0000 0.27760  0.62690  0.47555  Biso   1.000  O
  O11      1.0000 0.55180  0.39210  0.10749  Biso   1.000  O
  O12      1.0000 0.45220  0.54630  0.07281  Biso   1.000  O
  O13      1.0000 0.36630  0.38440  0.44360  Biso   1.000  O
  O14      1.0000 0.63930  0.54250  0.44094  Biso   1.000  O
  O15      1.0000 0.92150  0.85650  0.44446  Biso   1.000  O
  O16      1.0000 0.04950  0.11730  0.43628  Biso   1.000  O
  O17      1.0000 0.67290  0.78800  0.00136  Biso   1.000  O
  O18      1.0000 0.77760  0.62690  0.02445  Biso   1.000  O
  O19      1.0000 0.05180  0.39210  0.39251  Biso   1.000  O
  O20      1.0000 0.95220  0.54630  0.42719  Biso   1.000  O
  O21      1.0000 0.86630  0.38440  0.05640  Biso   1.000  O
  O22      1.0000 0.13930  0.54250  0.05906  Biso   1.000  O
  O23      1.0000 0.42150  0.85650  0.05554  Biso   1.000  O
  O24      1.0000 0.54950  0.11730  0.06372  Biso   1.000  O
  O25      1.0000 0.82710  0.21200  0.50136  Biso   1.000  O
  O26      1.0000 0.72240  0.37310  0.52445  Biso   1.000  O
  O27      1.0000 0.44820  0.60790  0.89251  Biso   1.000  O
  O28      1.0000 0.54780  0.45370  0.92719  Biso   1.000  O
  O29      1.0000 0.63370  0.61560  0.55640  Biso   1.000  O
  O30      1.0000 0.36070  0.45750  0.55906  Biso   1.000  O
  O31      1.0000 0.07850  0.14350  0.55554  Biso   1.000  O
  O32      1.0000 0.95050  0.88270  0.56372  Biso   1.000  O
