data_image0
_cell_length_a       9.1581
_cell_length_b       9.7109
_cell_length_c       22.3358
_cell_angle_alpha    90
_cell_angle_beta     90
_cell_angle_gamma    117.485

_symmetry_space_group_name_H-M    P 1
_symmetry_int_tables_number       1

loop_
  _symmetry_equiv_pos_as_xyz
  'x, y, z'

loop_
  _atom_site_label
  _atom_site_occupancy
  _atom_site_fract_x
  _atom_site_fract_y
  _atom_site_fract_z
  _atom_site_thermal_displace_type
  _atom_site_B_iso_or_equiv
  _atom_site_type_symbol
  Eu1      1.0000 0.61790  0.35660  0.00862  Biso   1.000  Eu
  Eu2      1.0000 0.88210  0.64340  0.50862  Biso   1.000  Eu
  Eu3      1.0000 0.38210  0.64340  0.99138  Biso   1.000  Eu
  Eu4      1.0000 0.11790  0.35660  0.49138  Biso   1.000  Eu
  Ag1      1.0000 0.01655  0.67970  0.85216  Biso   1.000  Ag
  Ag2      1.0000 0.48345  0.32030  0.35216  Biso   1.000  Ag
  Ag3      1.0000 0.98345  0.32030  0.14784  Biso   1.000  Ag
  Ag4      1.0000 0.51655  0.67970  0.64784  Biso   1.000  Ag
  H1       1.0000 0.94040  0.22180  0.92750  Biso   1.000  H
  H2       1.0000 0.74330  0.03090  0.86840  Biso   1.000  H
  H3       1.0000 0.77820  0.82160  0.84070  Biso   1.000  H
  H4       1.0000 0.18230  0.97120  0.93420  Biso   1.000  H
  H5       1.0000 0.98890  0.63950  0.71760  Biso   1.000  H
  H6       1.0000 0.10090  0.31110  0.65910  Biso   1.000  H
  H7       1.0000 0.13750  0.26170  0.75810  Biso   1.000  H
  H8       1.0000 0.11040  0.40860  0.83270  Biso   1.000  H
  H9       1.0000 0.55960  0.77820  0.42750  Biso   1.000  H
  H10      1.0000 0.75670  0.96910  0.36840  Biso   1.000  H
  H11      1.0000 0.72180  0.17840  0.34070  Biso   1.000  H
  H12      1.0000 0.31770  0.02880  0.43420  Biso   1.000  H
  H13      1.0000 0.51110  0.36050  0.21760  Biso   1.000  H
  H14      1.0000 0.39910  0.68890  0.15910  Biso   1.000  H
  H15      1.0000 0.36250  0.73830  0.25810  Biso   1.000  H
  H16      1.0000 0.38960  0.59140  0.33270  Biso   1.000  H
  H17      1.0000 0.05960  0.77820  0.07250  Biso   1.000  H
  H18      1.0000 0.25670  0.96910  0.13160  Biso   1.000  H
  H19      1.0000 0.22180  0.17840  0.15930  Biso   1.000  H
  H20      1.0000 0.81770  0.02880  0.06580  Biso   1.000  H
  H21      1.0000 0.01110  0.36050  0.28240  Biso   1.000  H
  H22      1.0000 0.89910  0.68890  0.34090  Biso   1.000  H
  H23      1.0000 0.86250  0.73830  0.24190  Biso   1.000  H
  H24      1.0000 0.88960  0.59140  0.16730  Biso   1.000  H
  H25      1.0000 0.44040  0.22180  0.57250  Biso   1.000  H
  H26      1.0000 0.24330  0.03090  0.63160  Biso   1.000  H
  H27      1.0000 0.27820  0.82160  0.65930  Biso   1.000  H
  H28      1.0000 0.68230  0.97120  0.56580  Biso   1.000  H
  H29      1.0000 0.48890  0.63950  0.78240  Biso   1.000  H
  H30      1.0000 0.60090  0.31110  0.84090  Biso   1.000  H
  H31      1.0000 0.63750  0.26170  0.74190  Biso   1.000  H
  H32      1.0000 0.61040  0.40860  0.66730  Biso   1.000  H
  C1       1.0000 0.21960  0.24290  0.97289  Biso   1.000  C
  C2       1.0000 0.08480  0.11720  0.93639  Biso   1.000  C
  C3       1.0000 0.95140  0.13450  0.91678  Biso   1.000  C
  C4       1.0000 0.83500  0.02190  0.88140  Biso   1.000  C
  C5       1.0000 0.85620  0.89620  0.86550  Biso   1.000  C
  C6       1.0000 0.09470  0.98500  0.91989  Biso   1.000  C
  C7       1.0000 0.02090  0.56340  0.72563  Biso   1.000  C
  C8       1.0000 0.03990  0.48210  0.67793  Biso   1.000  C
  C9       1.0000 0.08600  0.36770  0.69000  Biso   1.000  C
  C10      1.0000 0.10930  0.33980  0.74880  Biso   1.000  C
  C11      1.0000 0.09100  0.42720  0.79340  Biso   1.000  C
  C12      1.0000 0.00780  0.52120  0.61627  Biso   1.000  C
  C13      1.0000 0.50810  0.00830  0.96564  Biso   1.000  C
  C14      1.0000 0.99680  0.51990  0.96700  Biso   1.000  C
  C15      1.0000 0.28040  0.75710  0.47289  Biso   1.000  C
  C16      1.0000 0.41520  0.88280  0.43639  Biso   1.000  C
  C17      1.0000 0.54860  0.86550  0.41678  Biso   1.000  C
  C18      1.0000 0.66500  0.97810  0.38140  Biso   1.000  C
  C19      1.0000 0.64380  0.10380  0.36550  Biso   1.000  C
  C20      1.0000 0.40530  0.01500  0.41989  Biso   1.000  C
  C21      1.0000 0.47910  0.43660  0.22563  Biso   1.000  C
  C22      1.0000 0.46010  0.51790  0.17793  Biso   1.000  C
  C23      1.0000 0.41400  0.63230  0.19000  Biso   1.000  C
  C24      1.0000 0.39070  0.66020  0.24880  Biso   1.000  C
  C25      1.0000 0.40900  0.57280  0.29340  Biso   1.000  C
  C26      1.0000 0.49220  0.47880  0.11627  Biso   1.000  C
  C27      1.0000 0.99190  0.99170  0.46564  Biso   1.000  C
  C28      1.0000 0.50320  0.48010  0.46700  Biso   1.000  C
  C29      1.0000 0.78040  0.75710  0.02711  Biso   1.000  C
  C30      1.0000 0.91520  0.88280  0.06361  Biso   1.000  C
  C31      1.0000 0.04860  0.86550  0.08322  Biso   1.000  C
  C32      1.0000 0.16500  0.97810  0.11860  Biso   1.000  C
  C33      1.0000 0.14380  0.10380  0.13450  Biso   1.000  C
  C34      1.0000 0.90530  0.01500  0.08011  Biso   1.000  C
  C35      1.0000 0.97910  0.43660  0.27437  Biso   1.000  C
  C36      1.0000 0.96010  0.51790  0.32207  Biso   1.000  C
  C37      1.0000 0.91400  0.63230  0.31000  Biso   1.000  C
  C38      1.0000 0.89070  0.66020  0.25120  Biso   1.000  C
  C39      1.0000 0.90900  0.57280  0.20660  Biso   1.000  C
  C40      1.0000 0.99220  0.47880  0.38373  Biso   1.000  C
  C41      1.0000 0.49190  0.99170  0.03436  Biso   1.000  C
  C42      1.0000 0.00320  0.48010  0.03300  Biso   1.000  C
  C43      1.0000 0.71960  0.24290  0.52711  Biso   1.000  C
  C44      1.0000 0.58480  0.11720  0.56361  Biso   1.000  C
  C45      1.0000 0.45140  0.13450  0.58322  Biso   1.000  C
  C46      1.0000 0.33500  0.02190  0.61860  Biso   1.000  C
  C47      1.0000 0.35620  0.89620  0.63450  Biso   1.000  C
  C48      1.0000 0.59470  0.98500  0.58011  Biso   1.000  C
  C49      1.0000 0.52090  0.56340  0.77437  Biso   1.000  C
  C50      1.0000 0.53990  0.48210  0.82207  Biso   1.000  C
  C51      1.0000 0.58600  0.36770  0.81000  Biso   1.000  C
  C52      1.0000 0.60930  0.33980  0.75120  Biso   1.000  C
  C53      1.0000 0.59100  0.42720  0.70660  Biso   1.000  C
  C54      1.0000 0.50780  0.52120  0.88373  Biso   1.000  C
  C55      1.0000 0.00810  0.00830  0.53436  Biso   1.000  C
  C56      1.0000 0.49680  0.51990  0.53300  Biso   1.000  C
  N1       1.0000 0.98380  0.87490  0.88403  Biso   1.000  N
  N2       1.0000 0.04620  0.53840  0.78277  Biso   1.000  N
  N3       1.0000 0.51620  0.12510  0.38403  Biso   1.000  N
  N4       1.0000 0.45380  0.46160  0.28277  Biso   1.000  N
  N5       1.0000 0.01620  0.12510  0.11597  Biso   1.000  N
  N6       1.0000 0.95380  0.46160  0.21723  Biso   1.000  N
  N7       1.0000 0.48380  0.87490  0.61597  Biso   1.000  N
  N8       1.0000 0.54620  0.53840  0.71723  Biso   1.000  N
  O1       1.0000 0.32390  0.21010  0.99723  Biso   1.000  O
  O2       1.0000 0.21760  0.37010  0.97428  Biso   1.000  O
  O3       1.0000 0.94530  0.61090  0.61078  Biso   1.000  O
  O4       1.0000 0.04580  0.46200  0.57249  Biso   1.000  O
  O5       1.0000 0.13170  0.61630  0.94393  Biso   1.000  O
  O6       1.0000 0.86170  0.45840  0.94084  Biso   1.000  O
  O7       1.0000 0.57850  0.14240  0.94433  Biso   1.000  O
  O8       1.0000 0.45010  0.88370  0.93618  Biso   1.000  O
  O9       1.0000 0.17610  0.78990  0.49723  Biso   1.000  O
  O10      1.0000 0.28240  0.62990  0.47428  Biso   1.000  O
  O11      1.0000 0.55470  0.38910  0.11078  Biso   1.000  O
  O12      1.0000 0.45420  0.53800  0.07249  Biso   1.000  O
  O13      1.0000 0.36830  0.38370  0.44393  Biso   1.000  O
  O14      1.0000 0.63830  0.54160  0.44084  Biso   1.000  O
  O15      1.0000 0.92150  0.85760  0.44433  Biso   1.000  O
  O16      1.0000 0.04990  0.11630  0.43618  Biso   1.000  O
  O17      1.0000 0.67610  0.78990  0.00277  Biso   1.000  O
  O18      1.0000 0.78240  0.62990  0.02572  Biso   1.000  O
  O19      1.0000 0.05470  0.38910  0.38922  Biso   1.000  O
  O20      1.0000 0.95420  0.53800  0.42751  Biso   1.000  O
  O21      1.0000 0.86830  0.38370  0.05607  Biso   1.000  O
  O22      1.0000 0.13830  0.54160  0.05916  Biso   1.000  O
  O23      1.0000 0.42150  0.85760  0.05567  Biso   1.000  O
  O24      1.0000 0.54990  0.11630  0.06382  Biso   1.000  O
  O25      1.0000 0.82390  0.21010  0.50277  Biso   1.000  O
  O26      1.0000 0.71760  0.37010  0.52572  Biso   1.000  O
  O27      1.0000 0.44530  0.61090  0.88922  Biso   1.000  O
  O28      1.0000 0.54580  0.46200  0.92751  Biso   1.000  O
  O29      1.0000 0.63170  0.61630  0.55607  Biso   1.000  O
  O30      1.0000 0.36170  0.45840  0.55916  Biso   1.000  O
  O31      1.0000 0.07850  0.14240  0.55567  Biso   1.000  O
  O32      1.0000 0.95010  0.88370  0.56382  Biso   1.000  O
