data_image0
_cell_length_a       15.3683
_cell_length_b       15.3683
_cell_length_c       9.895
_cell_angle_alpha    90
_cell_angle_beta     90
_cell_angle_gamma    90

_symmetry_space_group_name_H-M    "P 1"
_symmetry_int_tables_number       1

loop_
  _symmetry_equiv_pos_as_xyz
  'x, y, z'

loop_
  _atom_site_label
  _atom_site_occupancy
  _atom_site_fract_x
  _atom_site_fract_y
  _atom_site_fract_z
  _atom_site_thermal_displace_type
  _atom_site_B_iso_or_equiv
  _atom_site_type_symbol
  O1       1.0000 0.12862  0.03213  0.12170  Biso   1.000  O
  C1       1.0000 0.25741  0.88776  0.87770  Biso   1.000  C
  H1       1.0000 0.24030  0.91290  0.79640  Biso   1.000  H
  C2       1.0000 0.30617  0.81287  0.87930  Biso   1.000  C
  H2       1.0000 0.32260  0.78760  0.79780  Biso   1.000  H
  O2       1.0000 0.87138  0.96787  0.12170  Biso   1.000  O
  C3       1.0000 0.74259  0.11224  0.87770  Biso   1.000  C
  H3       1.0000 0.75970  0.08710  0.79640  Biso   1.000  H
  C4       1.0000 0.69383  0.18713  0.87930  Biso   1.000  C
  H4       1.0000 0.67740  0.21240  0.79780  Biso   1.000  H
  O3       1.0000 0.96787  0.12862  0.12170  Biso   1.000  O
  C5       1.0000 0.11224  0.25741  0.87770  Biso   1.000  C
  H5       1.0000 0.08710  0.24030  0.79640  Biso   1.000  H
  C6       1.0000 0.18713  0.30617  0.87930  Biso   1.000  C
  H6       1.0000 0.21240  0.32260  0.79780  Biso   1.000  H
  O4       1.0000 0.03213  0.87138  0.12170  Biso   1.000  O
  C7       1.0000 0.88776  0.74259  0.87770  Biso   1.000  C
  H7       1.0000 0.91290  0.75970  0.79640  Biso   1.000  H
  C8       1.0000 0.81287  0.69383  0.87930  Biso   1.000  C
  H8       1.0000 0.78760  0.67740  0.79780  Biso   1.000  H
  O5       1.0000 0.87138  0.03213  0.37830  Biso   1.000  O
  C9       1.0000 0.74259  0.88776  0.62230  Biso   1.000  C
  H9       1.0000 0.75970  0.91290  0.70360  Biso   1.000  H
  C10      1.0000 0.69383  0.81287  0.62070  Biso   1.000  C
  H10      1.0000 0.67740  0.78760  0.70220  Biso   1.000  H
  O6       1.0000 0.12862  0.96787  0.37830  Biso   1.000  O
  C11      1.0000 0.25741  0.11224  0.62230  Biso   1.000  C
  H11      1.0000 0.24030  0.08710  0.70360  Biso   1.000  H
  C12      1.0000 0.30617  0.18713  0.62070  Biso   1.000  C
  H12      1.0000 0.32260  0.21240  0.70220  Biso   1.000  H
  O7       1.0000 0.03213  0.12862  0.37830  Biso   1.000  O
  C13      1.0000 0.88776  0.25741  0.62230  Biso   1.000  C
  H13      1.0000 0.91290  0.24030  0.70360  Biso   1.000  H
  C14      1.0000 0.81287  0.30617  0.62070  Biso   1.000  C
  H14      1.0000 0.78760  0.32260  0.70220  Biso   1.000  H
  O8       1.0000 0.96787  0.87138  0.37830  Biso   1.000  O
  C15      1.0000 0.11224  0.74259  0.62230  Biso   1.000  C
  H15      1.0000 0.08710  0.75970  0.70360  Biso   1.000  H
  C16      1.0000 0.18713  0.69383  0.62070  Biso   1.000  C
  H16      1.0000 0.21240  0.67740  0.70220  Biso   1.000  H
  O9       1.0000 0.87138  0.96787  0.87830  Biso   1.000  O
  C17      1.0000 0.74259  0.11224  0.12230  Biso   1.000  C
  H17      1.0000 0.75970  0.08710  0.20360  Biso   1.000  H
  C18      1.0000 0.69383  0.18713  0.12070  Biso   1.000  C
  H18      1.0000 0.67740  0.21240  0.20220  Biso   1.000  H
  O10      1.0000 0.12862  0.03213  0.87830  Biso   1.000  O
  C19      1.0000 0.25741  0.88776  0.12230  Biso   1.000  C
  H19      1.0000 0.24030  0.91290  0.20360  Biso   1.000  H
  C20      1.0000 0.30617  0.81287  0.12070  Biso   1.000  C
  H20      1.0000 0.32260  0.78760  0.20220  Biso   1.000  H
  O11      1.0000 0.03213  0.87138  0.87830  Biso   1.000  O
  C21      1.0000 0.88776  0.74259  0.12230  Biso   1.000  C
  H21      1.0000 0.91290  0.75970  0.20360  Biso   1.000  H
  C22      1.0000 0.81287  0.69383  0.12070  Biso   1.000  C
  H22      1.0000 0.78760  0.67740  0.20220  Biso   1.000  H
  O12      1.0000 0.96787  0.12862  0.87830  Biso   1.000  O
  C23      1.0000 0.11224  0.25741  0.12230  Biso   1.000  C
  H23      1.0000 0.08710  0.24030  0.20360  Biso   1.000  H
  C24      1.0000 0.18713  0.30617  0.12070  Biso   1.000  C
  H24      1.0000 0.21240  0.32260  0.20220  Biso   1.000  H
  O13      1.0000 0.12862  0.96787  0.62170  Biso   1.000  O
  C25      1.0000 0.25741  0.11224  0.37770  Biso   1.000  C
  H25      1.0000 0.24030  0.08710  0.29640  Biso   1.000  H
  C26      1.0000 0.30617  0.18713  0.37930  Biso   1.000  C
  H26      1.0000 0.32260  0.21240  0.29780  Biso   1.000  H
  O14      1.0000 0.87138  0.03213  0.62170  Biso   1.000  O
  C27      1.0000 0.74259  0.88776  0.37770  Biso   1.000  C
  H27      1.0000 0.75970  0.91290  0.29640  Biso   1.000  H
  C28      1.0000 0.69383  0.81287  0.37930  Biso   1.000  C
  H28      1.0000 0.67740  0.78760  0.29780  Biso   1.000  H
  O15      1.0000 0.96787  0.87138  0.62170  Biso   1.000  O
  C29      1.0000 0.11224  0.74259  0.37770  Biso   1.000  C
  H29      1.0000 0.08710  0.75970  0.29640  Biso   1.000  H
  C30      1.0000 0.18713  0.69383  0.37930  Biso   1.000  C
  H30      1.0000 0.21240  0.67740  0.29780  Biso   1.000  H
  O16      1.0000 0.03213  0.12862  0.62170  Biso   1.000  O
  C31      1.0000 0.88776  0.25741  0.37770  Biso   1.000  C
  H31      1.0000 0.91290  0.24030  0.29640  Biso   1.000  H
  C32      1.0000 0.81287  0.30617  0.37930  Biso   1.000  C
  H32      1.0000 0.78760  0.32260  0.29780  Biso   1.000  H
  Sm1      1.0000 0.00000  0.00000  0.25000  Biso   1.000  Sm
  Sm2      1.0000 0.00000  0.00000  0.75000  Biso   1.000  Sm
  S1       1.0000 0.18079  0.02778  0.00000  Biso   1.000  S
  O17      1.0000 0.24849  0.09052  0.00000  Biso   1.000  O
  N1       1.0000 0.36960  0.53100  0.00000  Biso   1.000  N
  C33      1.0000 0.23430  0.92500  0.00000  Biso   1.000  C
  C34      1.0000 0.33160  0.77390  0.00000  Biso   1.000  C
  C35      1.0000 0.38320  0.69010  0.00000  Biso   1.000  C
  C36      1.0000 0.33500  0.61360  0.00000  Biso   1.000  C
  C37      1.0000 0.24180  0.60740  0.00000  Biso   1.000  C
  H33      1.0000 0.20230  0.65330  0.00000  Biso   1.000  H
  C38      1.0000 0.22260  0.52110  0.00000  Biso   1.000  C
  H34      1.0000 0.16690  0.49740  0.00000  Biso   1.000  H
  C39      1.0000 0.30170  0.47270  0.00000  Biso   1.000  C
  S2       1.0000 0.81921  0.97222  0.00000  Biso   1.000  S
  O18      1.0000 0.75151  0.90948  0.00000  Biso   1.000  O
  N2       1.0000 0.63040  0.46900  0.00000  Biso   1.000  N
  C40      1.0000 0.76570  0.07500  0.00000  Biso   1.000  C
  C41      1.0000 0.66840  0.22610  0.00000  Biso   1.000  C
  C42      1.0000 0.61680  0.30990  0.00000  Biso   1.000  C
  C43      1.0000 0.66500  0.38640  0.00000  Biso   1.000  C
  C44      1.0000 0.75820  0.39260  0.00000  Biso   1.000  C
  H35      1.0000 0.79770  0.34670  0.00000  Biso   1.000  H
  C45      1.0000 0.77740  0.47890  0.00000  Biso   1.000  C
  H36      1.0000 0.83310  0.50260  0.00000  Biso   1.000  H
  C46      1.0000 0.69830  0.52730  0.00000  Biso   1.000  C
  S3       1.0000 0.97222  0.18079  0.00000  Biso   1.000  S
  O19      1.0000 0.90948  0.24849  0.00000  Biso   1.000  O
  N3       1.0000 0.46900  0.36960  0.00000  Biso   1.000  N
  C47      1.0000 0.07500  0.23430  0.00000  Biso   1.000  C
  C48      1.0000 0.22610  0.33160  0.00000  Biso   1.000  C
  C49      1.0000 0.30990  0.38320  0.00000  Biso   1.000  C
  C50      1.0000 0.38640  0.33500  0.00000  Biso   1.000  C
  C51      1.0000 0.39260  0.24180  0.00000  Biso   1.000  C
  H37      1.0000 0.34670  0.20230  0.00000  Biso   1.000  H
  C52      1.0000 0.47890  0.22260  0.00000  Biso   1.000  C
  H38      1.0000 0.50260  0.16690  0.00000  Biso   1.000  H
  C53      1.0000 0.52730  0.30170  0.00000  Biso   1.000  C
  S4       1.0000 0.02778  0.81921  0.00000  Biso   1.000  S
  O20      1.0000 0.09052  0.75151  0.00000  Biso   1.000  O
  N4       1.0000 0.53100  0.63040  0.00000  Biso   1.000  N
  C54      1.0000 0.92500  0.76570  0.00000  Biso   1.000  C
  C55      1.0000 0.77390  0.66840  0.00000  Biso   1.000  C
  C56      1.0000 0.69010  0.61680  0.00000  Biso   1.000  C
  C57      1.0000 0.61360  0.66500  0.00000  Biso   1.000  C
  C58      1.0000 0.60740  0.75820  0.00000  Biso   1.000  C
  H39      1.0000 0.65330  0.79770  0.00000  Biso   1.000  H
  C59      1.0000 0.52110  0.77740  0.00000  Biso   1.000  C
  H40      1.0000 0.49740  0.83310  0.00000  Biso   1.000  H
  C60      1.0000 0.47270  0.69830  0.00000  Biso   1.000  C
  S5       1.0000 0.81921  0.02778  0.50000  Biso   1.000  S
  O21      1.0000 0.75151  0.09052  0.50000  Biso   1.000  O
  N5       1.0000 0.63040  0.53100  0.50000  Biso   1.000  N
  C61      1.0000 0.76570  0.92500  0.50000  Biso   1.000  C
  C62      1.0000 0.66840  0.77390  0.50000  Biso   1.000  C
  C63      1.0000 0.61680  0.69010  0.50000  Biso   1.000  C
  C64      1.0000 0.66500  0.61360  0.50000  Biso   1.000  C
  C65      1.0000 0.75820  0.60740  0.50000  Biso   1.000  C
  H41      1.0000 0.79770  0.65330  0.50000  Biso   1.000  H
  C66      1.0000 0.77740  0.52110  0.50000  Biso   1.000  C
  H42      1.0000 0.83310  0.49740  0.50000  Biso   1.000  H
  C67      1.0000 0.69830  0.47270  0.50000  Biso   1.000  C
  S6       1.0000 0.18079  0.97222  0.50000  Biso   1.000  S
  O22      1.0000 0.24849  0.90948  0.50000  Biso   1.000  O
  N6       1.0000 0.36960  0.46900  0.50000  Biso   1.000  N
  C68      1.0000 0.23430  0.07500  0.50000  Biso   1.000  C
  C69      1.0000 0.33160  0.22610  0.50000  Biso   1.000  C
  C70      1.0000 0.38320  0.30990  0.50000  Biso   1.000  C
  C71      1.0000 0.33500  0.38640  0.50000  Biso   1.000  C
  C72      1.0000 0.24180  0.39260  0.50000  Biso   1.000  C
  H43      1.0000 0.20230  0.34670  0.50000  Biso   1.000  H
  C73      1.0000 0.22260  0.47890  0.50000  Biso   1.000  C
  H44      1.0000 0.16690  0.50260  0.50000  Biso   1.000  H
  C74      1.0000 0.30170  0.52730  0.50000  Biso   1.000  C
  S7       1.0000 0.02778  0.18079  0.50000  Biso   1.000  S
  O23      1.0000 0.09052  0.24849  0.50000  Biso   1.000  O
  N7       1.0000 0.53100  0.36960  0.50000  Biso   1.000  N
  C75      1.0000 0.92500  0.23430  0.50000  Biso   1.000  C
  C76      1.0000 0.77390  0.33160  0.50000  Biso   1.000  C
  C77      1.0000 0.69010  0.38320  0.50000  Biso   1.000  C
  C78      1.0000 0.61360  0.33500  0.50000  Biso   1.000  C
  C79      1.0000 0.60740  0.24180  0.50000  Biso   1.000  C
  H45      1.0000 0.65330  0.20230  0.50000  Biso   1.000  H
  C80      1.0000 0.52110  0.22260  0.50000  Biso   1.000  C
  H46      1.0000 0.49740  0.16690  0.50000  Biso   1.000  H
  C81      1.0000 0.47270  0.30170  0.50000  Biso   1.000  C
  S8       1.0000 0.97222  0.81921  0.50000  Biso   1.000  S
  O24      1.0000 0.90948  0.75151  0.50000  Biso   1.000  O
  N8       1.0000 0.46900  0.63040  0.50000  Biso   1.000  N
  C82      1.0000 0.07500  0.76570  0.50000  Biso   1.000  C
  C83      1.0000 0.22610  0.66840  0.50000  Biso   1.000  C
  C84      1.0000 0.30990  0.61680  0.50000  Biso   1.000  C
  C85      1.0000 0.38640  0.66500  0.50000  Biso   1.000  C
  C86      1.0000 0.39260  0.75820  0.50000  Biso   1.000  C
  H47      1.0000 0.34670  0.79770  0.50000  Biso   1.000  H
  C87      1.0000 0.47890  0.77740  0.50000  Biso   1.000  C
  H48      1.0000 0.50260  0.83310  0.50000  Biso   1.000  H
  C88      1.0000 0.52730  0.69830  0.50000  Biso   1.000  C
