data_image0
_cell_length_a       8.0542
_cell_length_b       18.78
_cell_length_c       19.289
_cell_angle_alpha    90
_cell_angle_beta     95.641
_cell_angle_gamma    90

_symmetry_space_group_name_H-M    "P 1"
_symmetry_int_tables_number       1

loop_
  _symmetry_equiv_pos_as_xyz
  'x, y, z'

loop_
  _atom_site_label
  _atom_site_occupancy
  _atom_site_fract_x
  _atom_site_fract_y
  _atom_site_fract_z
  _atom_site_thermal_displace_type
  _atom_site_B_iso_or_equiv
  _atom_site_type_symbol
  C1       1.0000 0.70700  0.37730  0.59250  Biso   1.000  C
  C2       1.0000 0.84560  0.37810  0.64910  Biso   1.000  C
  C3       1.0000 0.99960  0.35410  0.63750  Biso   1.000  C
  H1       1.0000 0.01660  0.33530  0.59360  Biso   1.000  H
  C4       1.0000 0.13280  0.35650  0.68930  Biso   1.000  C
  H2       1.0000 0.23870  0.33970  0.68060  Biso   1.000  H
  C5       1.0000 0.10730  0.38340  0.75220  Biso   1.000  C
  C6       1.0000 0.95230  0.40770  0.76640  Biso   1.000  C
  H3       1.0000 0.93620  0.42590  0.81060  Biso   1.000  H
  C7       1.0000 0.82230  0.40480  0.71490  Biso   1.000  C
  H4       1.0000 0.71620  0.42100  0.72400  Biso   1.000  H
  C8       1.0000 0.15220  0.29060  0.88250  Biso   1.000  C
  H5       1.0000 0.18680  0.24690  0.86120  Biso   1.000  H
  H6       1.0000 0.03860  0.30190  0.86450  Biso   1.000  H
  H7       1.0000 0.15790  0.28440  0.93260  Biso   1.000  H
  C9       1.0000 0.26390  0.34920  0.86600  Biso   1.000  C
  C10      1.0000 0.37770  0.43320  0.81040  Biso   1.000  C
  C11      1.0000 0.40120  0.48570  0.75290  Biso   1.000  C
  H8       1.0000 0.49330  0.51730  0.76750  Biso   1.000  H
  H9       1.0000 0.30000  0.51340  0.74290  Biso   1.000  H
  H10      1.0000 0.42520  0.46010  0.71140  Biso   1.000  H
  C12      1.0000 0.75050  0.76450  0.50880  Biso   1.000  C
  C13      1.0000 0.88750  0.71560  0.49440  Biso   1.000  C
  C14      1.0000 0.85410  0.65300  0.45730  Biso   1.000  C
  H11      1.0000 0.74390  0.64170  0.44020  Biso   1.000  H
  C15      1.0000 0.97880  0.60870  0.44560  Biso   1.000  C
  H12      1.0000 0.95470  0.56650  0.42040  Biso   1.000  H
  C16      1.0000 0.13880  0.62340  0.46950  Biso   1.000  C
  C17      1.0000 0.17860  0.68410  0.50570  Biso   1.000  C
  H13      1.0000 0.28980  0.69430  0.52200  Biso   1.000  H
  C18      1.0000 0.05100  0.73060  0.51790  Biso   1.000  C
  H14      1.0000 0.07630  0.77290  0.54260  Biso   1.000  H
  C19      1.0000 0.19190  0.47870  0.53890  Biso   1.000  C
  H15      1.0000 0.08970  0.45840  0.51640  Biso   1.000  H
  H16      1.0000 0.16490  0.51660  0.57010  Biso   1.000  H
  H17      1.0000 0.25510  0.44200  0.56530  Biso   1.000  H
  C20      1.0000 0.29270  0.50790  0.48540  Biso   1.000  C
  C21      1.0000 0.39060  0.58070  0.40960  Biso   1.000  C
  C22      1.0000 0.40750  0.64430  0.36730  Biso   1.000  C
  H18      1.0000 0.48470  0.63470  0.33280  Biso   1.000  H
  H19      1.0000 0.44980  0.68320  0.39700  Biso   1.000  H
  H20      1.0000 0.29950  0.65710  0.34390  Biso   1.000  H
  C23      1.0000 0.26590  0.32080  0.11080  Biso   1.000  C
  C24      1.0000 0.13290  0.31470  0.16060  Biso   1.000  C
  C25      1.0000 0.17660  0.29960  0.22940  Biso   1.000  C
  H21      1.0000 0.28930  0.29250  0.24550  Biso   1.000  H
  C26      1.0000 0.05380  0.29470  0.27570  Biso   1.000  C
  H22      1.0000 0.08280  0.28380  0.32290  Biso   1.000  H
  C27      1.0000 0.88940  0.30610  0.25080  Biso   1.000  C
  C28      1.0000 0.84680  0.32200  0.18050  Biso   1.000  C
  H23      1.0000 0.73480  0.32980  0.16370  Biso   1.000  H
  C29      1.0000 0.96830  0.32590  0.13660  Biso   1.000  C
  H24      1.0000 0.93980  0.33650  0.08930  Biso   1.000  H
  C30      1.0000 0.83250  0.40970  0.36730  Biso   1.000  C
  H25      1.0000 0.78110  0.43670  0.40230  Biso   1.000  H
  H26      1.0000 0.84060  0.43910  0.32650  Biso   1.000  H
  H27      1.0000 0.94330  0.39470  0.38600  Biso   1.000  H
  C31      1.0000 0.73090  0.34700  0.34800  Biso   1.000  C
  C32      1.0000 0.63850  0.24990  0.29560  Biso   1.000  C
  C33      1.0000 0.62450  0.18960  0.24620  Biso   1.000  C
  H28      1.0000 0.51720  0.16640  0.24790  Biso   1.000  H
  H29      1.0000 0.71310  0.15560  0.25890  Biso   1.000  H
  H30      1.0000 0.63390  0.20700  0.19940  Biso   1.000  H
  C34      1.0000 0.64920  0.20970  0.98960  Biso   1.000  C
  C35      1.0000 0.78490  0.15660  0.97620  Biso   1.000  C
  C36      1.0000 0.74620  0.08880  0.95350  Biso   1.000  C
  H31      1.0000 0.63410  0.07430  0.94720  Biso   1.000  H
  C37      1.0000 0.87050  0.04210  0.94000  Biso   1.000  C
  H32      1.0000 0.84360  0.99620  0.92290  Biso   1.000  H
  C38      1.0000 0.03300  0.06300  0.95150  Biso   1.000  C
  C39      1.0000 0.07620  0.13040  0.97770  Biso   1.000  C
  H33      1.0000 0.18840  0.14390  0.98740  Biso   1.000  H
  C40      1.0000 0.95020  0.17600  0.98880  Biso   1.000  C
  H34      1.0000 0.97660  0.22200  0.00540  Biso   1.000  H
  C41      1.0000 0.14360  0.93030  0.03660  Biso   1.000  C
  H35      1.0000 0.19060  0.88410  0.04970  Biso   1.000  H
  H36      1.0000 0.02450  0.92560  0.02410  Biso   1.000  H
  H37      1.0000 0.16330  0.96300  0.07550  Biso   1.000  H
  C42      1.0000 0.22470  0.95870  0.97550  Biso   1.000  C
  C43      1.0000 0.28020  0.02370  0.88880  Biso   1.000  C
  C44      1.0000 0.26410  0.08260  0.83660  Biso   1.000  C
  H38      1.0000 0.30560  0.12650  0.85840  Biso   1.000  H
  H39      1.0000 0.14770  0.08850  0.81920  Biso   1.000  H
  H40      1.0000 0.32850  0.07110  0.79810  Biso   1.000  H
  N1       1.0000 0.39690  0.37100  0.90390  Biso   1.000  N
  N2       1.0000 0.46920  0.42500  0.86740  Biso   1.000  N
  N3       1.0000 0.24570  0.38780  0.80660  Biso   1.000  N
  N4       1.0000 0.41580  0.47690  0.45850  Biso   1.000  N
  N5       1.0000 0.47840  0.52290  0.41050  Biso   1.000  N
  N6       1.0000 0.27080  0.57370  0.45590  Biso   1.000  N
  N7       1.0000 0.59820  0.32460  0.37640  Biso   1.000  N
  N8       1.0000 0.53930  0.26320  0.34350  Biso   1.000  N
  N9       1.0000 0.75870  0.30060  0.29710  Biso   1.000  N
  N10      1.0000 0.35750  0.93360  0.95110  Biso   1.000  N
  N11      1.0000 0.39260  0.97460  0.89560  Biso   1.000  N
  N12      1.0000 0.16730  0.01540  0.93720  Biso   1.000  N
  O1       1.0000 0.74460  0.36460  0.53220  Biso   1.000  O
  O2       1.0000 0.56080  0.39030  0.60460  Biso   1.000  O
  O3       1.0000 0.78780  0.82440  0.53720  Biso   1.000  O
  O4       1.0000 0.60420  0.74740  0.49170  Biso   1.000  O
  O5       1.0000 0.69940  0.27250  0.00020  Biso   1.000  O
  O6       1.0000 0.50160  0.19150  0.98770  Biso   1.000  O
  O7       1.0000 0.22160  0.33660  0.04850  Biso   1.000  O
  O8       1.0000 0.41640  0.31150  0.13150  Biso   1.000  O
  Cd1      1.0000 0.49037  0.36127  0.47449  Biso   1.000  Cd
  Cd2      1.0000 0.48326  0.33853  0.01528  Biso   1.000  Cd
  C45      1.0000 0.29300  0.87730  0.40750  Biso   1.000  C
  C46      1.0000 0.15440  0.87810  0.35090  Biso   1.000  C
  C47      1.0000 0.00040  0.85410  0.36250  Biso   1.000  C
  H41      1.0000 0.98340  0.83530  0.40640  Biso   1.000  H
  C48      1.0000 0.86720  0.85650  0.31070  Biso   1.000  C
  H42      1.0000 0.76130  0.83970  0.31940  Biso   1.000  H
  C49      1.0000 0.89270  0.88340  0.24780  Biso   1.000  C
  C50      1.0000 0.04770  0.90770  0.23360  Biso   1.000  C
  H43      1.0000 0.06380  0.92590  0.18940  Biso   1.000  H
  C51      1.0000 0.17770  0.90480  0.28510  Biso   1.000  C
  H44      1.0000 0.28380  0.92100  0.27600  Biso   1.000  H
  C52      1.0000 0.84780  0.79060  0.11750  Biso   1.000  C
  H45      1.0000 0.81320  0.74690  0.13880  Biso   1.000  H
  H46      1.0000 0.96140  0.80190  0.13550  Biso   1.000  H
  H47      1.0000 0.84210  0.78440  0.06740  Biso   1.000  H
  C53      1.0000 0.73610  0.84920  0.13400  Biso   1.000  C
  C54      1.0000 0.62230  0.93320  0.18960  Biso   1.000  C
  C55      1.0000 0.59880  0.98570  0.24710  Biso   1.000  C
  H48      1.0000 0.50670  0.01730  0.23250  Biso   1.000  H
  H49      1.0000 0.70000  0.01340  0.25710  Biso   1.000  H
  H50      1.0000 0.57480  0.96010  0.28860  Biso   1.000  H
  C56      1.0000 0.24950  0.26450  0.49120  Biso   1.000  C
  C57      1.0000 0.11250  0.21560  0.50560  Biso   1.000  C
  C58      1.0000 0.14590  0.15300  0.54270  Biso   1.000  C
  H51      1.0000 0.25610  0.14170  0.55980  Biso   1.000  H
  C59      1.0000 0.02120  0.10870  0.55440  Biso   1.000  C
  H52      1.0000 0.04530  0.06650  0.57960  Biso   1.000  H
  C60      1.0000 0.86120  0.12340  0.53050  Biso   1.000  C
  C61      1.0000 0.82140  0.18410  0.49430  Biso   1.000  C
  H53      1.0000 0.71020  0.19430  0.47800  Biso   1.000  H
  C62      1.0000 0.94900  0.23060  0.48210  Biso   1.000  C
  H54      1.0000 0.92370  0.27290  0.45740  Biso   1.000  H
  C63      1.0000 0.80810  0.97870  0.46110  Biso   1.000  C
  H55      1.0000 0.91030  0.95840  0.48360  Biso   1.000  H
  H56      1.0000 0.83510  0.01660  0.42990  Biso   1.000  H
  H57      1.0000 0.74490  0.94200  0.43470  Biso   1.000  H
  C64      1.0000 0.70730  0.00790  0.51460  Biso   1.000  C
  C65      1.0000 0.60940  0.08070  0.59040  Biso   1.000  C
  C66      1.0000 0.59250  0.14430  0.63270  Biso   1.000  C
  H58      1.0000 0.51530  0.13470  0.66720  Biso   1.000  H
  H59      1.0000 0.55020  0.18320  0.60300  Biso   1.000  H
  H60      1.0000 0.70050  0.15710  0.65610  Biso   1.000  H
  C67      1.0000 0.73410  0.82080  0.88920  Biso   1.000  C
  C68      1.0000 0.86710  0.81470  0.83940  Biso   1.000  C
  C69      1.0000 0.82340  0.79960  0.77060  Biso   1.000  C
  H61      1.0000 0.71070  0.79250  0.75450  Biso   1.000  H
  C70      1.0000 0.94620  0.79470  0.72430  Biso   1.000  C
  H62      1.0000 0.91720  0.78380  0.67710  Biso   1.000  H
  C71      1.0000 0.11060  0.80610  0.74920  Biso   1.000  C
  C72      1.0000 0.15320  0.82200  0.81950  Biso   1.000  C
  H63      1.0000 0.26520  0.82980  0.83630  Biso   1.000  H
  C73      1.0000 0.03170  0.82590  0.86340  Biso   1.000  C
  H64      1.0000 0.06020  0.83650  0.91070  Biso   1.000  H
  C74      1.0000 0.16750  0.90970  0.63270  Biso   1.000  C
  H65      1.0000 0.21890  0.93670  0.59770  Biso   1.000  H
  H66      1.0000 0.15940  0.93910  0.67350  Biso   1.000  H
  H67      1.0000 0.05670  0.89470  0.61400  Biso   1.000  H
  C75      1.0000 0.26910  0.84700  0.65200  Biso   1.000  C
  C76      1.0000 0.36150  0.74990  0.70440  Biso   1.000  C
  C77      1.0000 0.37550  0.68960  0.75380  Biso   1.000  C
  H68      1.0000 0.48280  0.66640  0.75210  Biso   1.000  H
  H69      1.0000 0.28690  0.65560  0.74110  Biso   1.000  H
  H70      1.0000 0.36610  0.70700  0.80060  Biso   1.000  H
  C78      1.0000 0.35080  0.70970  0.01040  Biso   1.000  C
  C79      1.0000 0.21510  0.65660  0.02380  Biso   1.000  C
  C80      1.0000 0.25380  0.58880  0.04650  Biso   1.000  C
  H71      1.0000 0.36590  0.57430  0.05280  Biso   1.000  H
  C81      1.0000 0.12950  0.54210  0.06000  Biso   1.000  C
  H72      1.0000 0.15640  0.49620  0.07710  Biso   1.000  H
  C82      1.0000 0.96700  0.56300  0.04850  Biso   1.000  C
  C83      1.0000 0.92380  0.63040  0.02230  Biso   1.000  C
  H73      1.0000 0.81160  0.64390  0.01260  Biso   1.000  H
  C84      1.0000 0.04980  0.67600  0.01120  Biso   1.000  C
  H74      1.0000 0.02340  0.72200  0.99460  Biso   1.000  H
  C85      1.0000 0.85640  0.43030  0.96340  Biso   1.000  C
  H75      1.0000 0.80940  0.38410  0.95030  Biso   1.000  H
  H76      1.0000 0.97550  0.42560  0.97590  Biso   1.000  H
  H77      1.0000 0.83670  0.46300  0.92450  Biso   1.000  H
  C86      1.0000 0.77530  0.45870  0.02450  Biso   1.000  C
  C87      1.0000 0.71980  0.52370  0.11120  Biso   1.000  C
  C88      1.0000 0.73590  0.58260  0.16340  Biso   1.000  C
  H78      1.0000 0.69440  0.62650  0.14160  Biso   1.000  H
  H79      1.0000 0.85230  0.58850  0.18080  Biso   1.000  H
  H80      1.0000 0.67150  0.57110  0.20190  Biso   1.000  H
  N13      1.0000 0.60310  0.87100  0.09610  Biso   1.000  N
  N14      1.0000 0.53080  0.92500  0.13260  Biso   1.000  N
  N15      1.0000 0.75430  0.88780  0.19340  Biso   1.000  N
  N16      1.0000 0.58420  0.97690  0.54150  Biso   1.000  N
  N17      1.0000 0.52160  0.02290  0.58950  Biso   1.000  N
  N18      1.0000 0.72920  0.07370  0.54410  Biso   1.000  N
  N19      1.0000 0.40180  0.82460  0.62360  Biso   1.000  N
  N20      1.0000 0.46070  0.76320  0.65650  Biso   1.000  N
  N21      1.0000 0.24130  0.80060  0.70290  Biso   1.000  N
  N22      1.0000 0.64250  0.43360  0.04890  Biso   1.000  N
  N23      1.0000 0.60740  0.47460  0.10440  Biso   1.000  N
  N24      1.0000 0.83270  0.51540  0.06280  Biso   1.000  N
  O9       1.0000 0.25540  0.86460  0.46780  Biso   1.000  O
  O10      1.0000 0.43920  0.89030  0.39540  Biso   1.000  O
  O11      1.0000 0.21220  0.32440  0.46280  Biso   1.000  O
  O12      1.0000 0.39580  0.24740  0.50830  Biso   1.000  O
  O13      1.0000 0.30060  0.77250  0.99980  Biso   1.000  O
  O14      1.0000 0.49840  0.69150  0.01230  Biso   1.000  O
  O15      1.0000 0.77840  0.83660  0.95150  Biso   1.000  O
  O16      1.0000 0.58360  0.81150  0.86850  Biso   1.000  O
  Cd3      1.0000 0.50963  0.86127  0.52551  Biso   1.000  Cd
  Cd4      1.0000 0.51674  0.83853  0.98472  Biso   1.000  Cd
