data_image0
_cell_length_a       10.364
_cell_length_b       26.746
_cell_length_c       27.804
_cell_angle_alpha    90
_cell_angle_beta     93.91
_cell_angle_gamma    90

_symmetry_space_group_name_H-M    "P 1"
_symmetry_int_tables_number       1

loop_
  _symmetry_equiv_pos_as_xyz
  'x, y, z'

loop_
  _atom_site_label
  _atom_site_occupancy
  _atom_site_fract_x
  _atom_site_fract_y
  _atom_site_fract_z
  _atom_site_thermal_displace_type
  _atom_site_B_iso_or_equiv
  _atom_site_type_symbol
  C1       1.0000 0.96360  0.37100  0.07150  Biso   1.000  C
  C2       1.0000 0.97030  0.41690  0.03790  Biso   1.000  C
  C3       1.0000 0.95560  0.40830  0.98760  Biso   1.000  C
  H1       1.0000 0.93730  0.37580  0.97600  Biso   1.000  H
  C4       1.0000 0.99160  0.46200  0.05600  Biso   1.000  C
  H2       1.0000 0.99670  0.46690  0.08950  Biso   1.000  H
  C5       1.0000 0.00710  0.50400  0.02380  Biso   1.000  C
  C6       1.0000 0.03220  0.55270  0.04480  Biso   1.000  C
  H3       1.0000 0.03990  0.55770  0.07830  Biso   1.000  H
  C7       1.0000 0.24510  0.33580  0.20640  Biso   1.000  C
  C8       1.0000 0.36730  0.36330  0.21520  Biso   1.000  C
  C9       1.0000 0.48560  0.34030  0.20660  Biso   1.000  C
  H4       1.0000 0.48690  0.30670  0.19680  Biso   1.000  H
  C10      1.0000 0.59850  0.36650  0.21250  Biso   1.000  C
  C11      1.0000 0.59940  0.41530  0.22800  Biso   1.000  C
  H5       1.0000 0.67820  0.43280  0.23190  Biso   1.000  H
  C12      1.0000 0.48460  0.43920  0.23800  Biso   1.000  C
  C13      1.0000 0.36920  0.41250  0.23070  Biso   1.000  C
  H6       1.0000 0.29080  0.42830  0.23660  Biso   1.000  H
  C14      1.0000 0.72150  0.34120  0.19790  Biso   1.000  C
  C15      1.0000 0.48680  0.49180  0.25520  Biso   1.000  C
  C16      1.0000 0.59080  0.51290  0.28040  Biso   1.000  C
  H7       1.0000 0.66460  0.49310  0.28740  Biso   1.000  H
  C17      1.0000 0.59230  0.56130  0.29600  Biso   1.000  C
  H8       1.0000 0.66590  0.57390  0.31360  Biso   1.000  H
  C18      1.0000 0.48450  0.59270  0.28580  Biso   1.000  C
  C19      1.0000 0.37840  0.57300  0.25920  Biso   1.000  C
  H9       1.0000 0.30630  0.59340  0.25110  Biso   1.000  H
  C20      1.0000 0.37790  0.52310  0.24430  Biso   1.000  C
  H10      1.0000 0.30450  0.51000  0.22690  Biso   1.000  H
  C21      1.0000 0.48740  0.64560  0.30080  Biso   1.000  C
  C22      1.0000 0.69180  0.22230  0.08190  Biso   1.000  C
  C23      1.0000 0.56480  0.21930  0.05370  Biso   1.000  C
  C24      1.0000 0.45230  0.21860  0.07850  Biso   1.000  C
  H11      1.0000 0.45680  0.21630  0.11230  Biso   1.000  H
  C25      1.0000 0.33220  0.22150  0.05210  Biso   1.000  C
  C26      1.0000 0.32490  0.22480  0.00230  Biso   1.000  C
  H12      1.0000 0.24360  0.22690  0.98530  Biso   1.000  H
  C27      1.0000 0.43650  0.22480  0.97700  Biso   1.000  C
  C28      1.0000 0.55890  0.22440  0.00380  Biso   1.000  C
  H13      1.0000 0.63540  0.22750  0.98780  Biso   1.000  H
  C29      1.0000 0.21260  0.22500  0.07880  Biso   1.000  C
  C30      1.0000 0.43090  0.22940  0.92430  Biso   1.000  C
  C31      1.0000 0.33260  0.25500  0.89890  Biso   1.000  C
  H14      1.0000 0.26580  0.26920  0.91560  Biso   1.000  H
  C32      1.0000 0.33060  0.26010  0.84970  Biso   1.000  C
  H15      1.0000 0.25990  0.27600  0.83310  Biso   1.000  H
  C33      1.0000 0.42930  0.24240  0.82450  Biso   1.000  C
  C34      1.0000 0.52570  0.21740  0.85010  Biso   1.000  C
  H16      1.0000 0.59360  0.20430  0.83320  Biso   1.000  H
  C35      1.0000 0.52960  0.21000  0.89960  Biso   1.000  C
  H17      1.0000 0.59790  0.19230  0.91570  Biso   1.000  H
  C36      1.0000 0.42910  0.24970  0.77060  Biso   1.000  C
  O1       1.0000 0.97050  0.26971  0.15053  Biso   1.000  O
  O2       1.0000 0.94760  0.32970  0.05093  Biso   1.000  O
  O3       1.0000 0.96900  0.38010  0.11510  Biso   1.000  O
  O4       1.0000 0.25620  0.28814  0.20118  Biso   1.000  O
  O5       1.0000 0.14190  0.36016  0.20333  Biso   1.000  O
  O6       1.0000 0.71140  0.29980  0.17835  Biso   1.000  O
  O7       1.0000 0.82770  0.36491  0.20625  Biso   1.000  O
  O8       1.0000 0.58740  0.66140  0.32335  Biso   1.000  O
  O9       1.0000 0.38520  0.67106  0.29198  Biso   1.000  O
  O10      1.0000 0.69550  0.21220  0.12588  Biso   1.000  O
  O11      1.0000 0.79060  0.23381  0.05919  Biso   1.000  O
  O12      1.0000 0.22170  0.21736  0.12337  Biso   1.000  O
  O13      1.0000 0.10680  0.23408  0.05397  Biso   1.000  O
  O14      1.0000 0.33000  0.26740  0.74823  Biso   1.000  O
  O15      1.0000 0.52300  0.23270  0.75110  Biso   1.000  O
  Zn1      1.0000 0.12219  0.23806  0.18285  Biso   1.000  Zn
  Zn2      1.0000 0.82782  0.23343  0.17772  Biso   1.000  Zn
  Zn3      1.0000 0.95543  0.26408  0.08185  Biso   1.000  Zn
  Zn4      1.0000 0.97311  0.33657  0.17495  Biso   1.000  Zn
  C37      1.0000 0.53640  0.87100  0.42850  Biso   1.000  C
  C38      1.0000 0.52970  0.91690  0.46210  Biso   1.000  C
  C39      1.0000 0.54440  0.90830  0.51240  Biso   1.000  C
  H18      1.0000 0.56270  0.87580  0.52400  Biso   1.000  H
  C40      1.0000 0.50840  0.96200  0.44400  Biso   1.000  C
  H19      1.0000 0.50330  0.96690  0.41050  Biso   1.000  H
  C41      1.0000 0.49290  0.00400  0.47620  Biso   1.000  C
  C42      1.0000 0.46780  0.05270  0.45520  Biso   1.000  C
  H20      1.0000 0.46010  0.05770  0.42170  Biso   1.000  H
  C43      1.0000 0.25490  0.83580  0.29360  Biso   1.000  C
  C44      1.0000 0.13270  0.86330  0.28480  Biso   1.000  C
  C45      1.0000 0.01440  0.84030  0.29340  Biso   1.000  C
  H21      1.0000 0.01310  0.80670  0.30320  Biso   1.000  H
  C46      1.0000 0.90150  0.86650  0.28750  Biso   1.000  C
  C47      1.0000 0.90060  0.91530  0.27200  Biso   1.000  C
  H22      1.0000 0.82180  0.93280  0.26810  Biso   1.000  H
  C48      1.0000 0.01540  0.93920  0.26200  Biso   1.000  C
  C49      1.0000 0.13080  0.91250  0.26930  Biso   1.000  C
  H23      1.0000 0.20920  0.92830  0.26340  Biso   1.000  H
  C50      1.0000 0.77850  0.84120  0.30210  Biso   1.000  C
  C51      1.0000 0.01320  0.99180  0.24480  Biso   1.000  C
  C52      1.0000 0.90920  0.01290  0.21960  Biso   1.000  C
  H24      1.0000 0.83540  0.99310  0.21260  Biso   1.000  H
  C53      1.0000 0.90770  0.06130  0.20400  Biso   1.000  C
  H25      1.0000 0.83410  0.07390  0.18640  Biso   1.000  H
  C54      1.0000 0.01550  0.09270  0.21420  Biso   1.000  C
  C55      1.0000 0.12160  0.07300  0.24080  Biso   1.000  C
  H26      1.0000 0.19370  0.09340  0.24890  Biso   1.000  H
  C56      1.0000 0.12210  0.02310  0.25570  Biso   1.000  C
  H27      1.0000 0.19550  0.01000  0.27310  Biso   1.000  H
  C57      1.0000 0.01260  0.14560  0.19920  Biso   1.000  C
  C58      1.0000 0.80820  0.72230  0.41810  Biso   1.000  C
  C59      1.0000 0.93520  0.71930  0.44630  Biso   1.000  C
  C60      1.0000 0.04770  0.71860  0.42150  Biso   1.000  C
  H28      1.0000 0.04320  0.71630  0.38770  Biso   1.000  H
  C61      1.0000 0.16780  0.72150  0.44790  Biso   1.000  C
  C62      1.0000 0.17510  0.72480  0.49770  Biso   1.000  C
  H29      1.0000 0.25640  0.72690  0.51470  Biso   1.000  H
  C63      1.0000 0.06350  0.72480  0.52300  Biso   1.000  C
  C64      1.0000 0.94110  0.72440  0.49620  Biso   1.000  C
  H30      1.0000 0.86460  0.72750  0.51220  Biso   1.000  H
  C65      1.0000 0.28740  0.72500  0.42120  Biso   1.000  C
  C66      1.0000 0.06910  0.72940  0.57570  Biso   1.000  C
  C67      1.0000 0.16740  0.75500  0.60110  Biso   1.000  C
  H31      1.0000 0.23420  0.76920  0.58440  Biso   1.000  H
  C68      1.0000 0.16940  0.76010  0.65030  Biso   1.000  C
  H32      1.0000 0.24010  0.77600  0.66690  Biso   1.000  H
  C69      1.0000 0.07070  0.74240  0.67550  Biso   1.000  C
  C70      1.0000 0.97430  0.71740  0.64990  Biso   1.000  C
  H33      1.0000 0.90640  0.70430  0.66680  Biso   1.000  H
  C71      1.0000 0.97040  0.71000  0.60040  Biso   1.000  C
  H34      1.0000 0.90210  0.69230  0.58430  Biso   1.000  H
  C72      1.0000 0.07090  0.74970  0.72940  Biso   1.000  C
  O16      1.0000 0.52950  0.76971  0.34947  Biso   1.000  O
  O17      1.0000 0.55240  0.82970  0.44907  Biso   1.000  O
  O18      1.0000 0.53100  0.88010  0.38490  Biso   1.000  O
  O19      1.0000 0.24380  0.78814  0.29882  Biso   1.000  O
  O20      1.0000 0.35810  0.86016  0.29667  Biso   1.000  O
  O21      1.0000 0.78860  0.79980  0.32165  Biso   1.000  O
  O22      1.0000 0.67230  0.86491  0.29375  Biso   1.000  O
  O23      1.0000 0.91260  0.16140  0.17665  Biso   1.000  O
  O24      1.0000 0.11480  0.17106  0.20802  Biso   1.000  O
  O25      1.0000 0.80450  0.71220  0.37412  Biso   1.000  O
  O26      1.0000 0.70940  0.73381  0.44081  Biso   1.000  O
  O27      1.0000 0.27830  0.71736  0.37663  Biso   1.000  O
  O28      1.0000 0.39320  0.73408  0.44603  Biso   1.000  O
  O29      1.0000 0.17000  0.76740  0.75177  Biso   1.000  O
  O30      1.0000 0.97700  0.73270  0.74890  Biso   1.000  O
  Zn5      1.0000 0.37781  0.73806  0.31715  Biso   1.000  Zn
  Zn6      1.0000 0.67218  0.73343  0.32228  Biso   1.000  Zn
  Zn7      1.0000 0.54457  0.76408  0.41815  Biso   1.000  Zn
  Zn8      1.0000 0.52689  0.83657  0.32505  Biso   1.000  Zn
  C73      1.0000 0.03640  0.62900  0.92850  Biso   1.000  C
  C74      1.0000 0.02970  0.58310  0.96210  Biso   1.000  C
  C75      1.0000 0.04440  0.59170  0.01240  Biso   1.000  C
  H35      1.0000 0.06270  0.62420  0.02400  Biso   1.000  H
  C76      1.0000 0.00840  0.53800  0.94400  Biso   1.000  C
  H36      1.0000 0.00330  0.53310  0.91050  Biso   1.000  H
  C77      1.0000 0.99290  0.49600  0.97620  Biso   1.000  C
  C78      1.0000 0.96780  0.44730  0.95520  Biso   1.000  C
  H37      1.0000 0.96010  0.44230  0.92170  Biso   1.000  H
  C79      1.0000 0.75490  0.66420  0.79360  Biso   1.000  C
  C80      1.0000 0.63270  0.63670  0.78480  Biso   1.000  C
  C81      1.0000 0.51440  0.65970  0.79340  Biso   1.000  C
  H38      1.0000 0.51310  0.69330  0.80320  Biso   1.000  H
  C82      1.0000 0.40150  0.63350  0.78750  Biso   1.000  C
  C83      1.0000 0.40060  0.58470  0.77200  Biso   1.000  C
  H39      1.0000 0.32180  0.56720  0.76810  Biso   1.000  H
  C84      1.0000 0.51540  0.56080  0.76200  Biso   1.000  C
  C85      1.0000 0.63080  0.58750  0.76930  Biso   1.000  C
  H40      1.0000 0.70920  0.57170  0.76340  Biso   1.000  H
  C86      1.0000 0.27850  0.65880  0.80210  Biso   1.000  C
  C87      1.0000 0.51320  0.50820  0.74480  Biso   1.000  C
  C88      1.0000 0.40920  0.48710  0.71960  Biso   1.000  C
  H41      1.0000 0.33540  0.50690  0.71260  Biso   1.000  H
  C89      1.0000 0.40770  0.43870  0.70400  Biso   1.000  C
  H42      1.0000 0.33410  0.42610  0.68640  Biso   1.000  H
  C90      1.0000 0.51550  0.40730  0.71420  Biso   1.000  C
  C91      1.0000 0.62160  0.42700  0.74080  Biso   1.000  C
  H43      1.0000 0.69370  0.40660  0.74890  Biso   1.000  H
  C92      1.0000 0.62210  0.47690  0.75570  Biso   1.000  C
  H44      1.0000 0.69550  0.49000  0.77310  Biso   1.000  H
  C93      1.0000 0.51260  0.35440  0.69920  Biso   1.000  C
  C94      1.0000 0.30820  0.77770  0.91810  Biso   1.000  C
  C95      1.0000 0.43520  0.78070  0.94630  Biso   1.000  C
  C96      1.0000 0.54770  0.78140  0.92150  Biso   1.000  C
  H45      1.0000 0.54320  0.78370  0.88770  Biso   1.000  H
  C97      1.0000 0.66780  0.77850  0.94790  Biso   1.000  C
  C98      1.0000 0.67510  0.77520  0.99770  Biso   1.000  C
  H46      1.0000 0.75640  0.77310  0.01470  Biso   1.000  H
  C99      1.0000 0.56350  0.77520  0.02300  Biso   1.000  C
  C100     1.0000 0.44110  0.77560  0.99620  Biso   1.000  C
  H47      1.0000 0.36460  0.77250  0.01220  Biso   1.000  H
  C101     1.0000 0.78740  0.77500  0.92120  Biso   1.000  C
  C102     1.0000 0.56910  0.77060  0.07570  Biso   1.000  C
  C103     1.0000 0.66740  0.74500  0.10110  Biso   1.000  C
  H48      1.0000 0.73420  0.73080  0.08440  Biso   1.000  H
  C104     1.0000 0.66940  0.73990  0.15030  Biso   1.000  C
  H49      1.0000 0.74010  0.72400  0.16690  Biso   1.000  H
  C105     1.0000 0.57070  0.75760  0.17550  Biso   1.000  C
  C106     1.0000 0.47430  0.78260  0.14990  Biso   1.000  C
  H50      1.0000 0.40640  0.79570  0.16680  Biso   1.000  H
  C107     1.0000 0.47040  0.79000  0.10040  Biso   1.000  C
  H51      1.0000 0.40210  0.80770  0.08430  Biso   1.000  H
  C108     1.0000 0.57090  0.75030  0.22940  Biso   1.000  C
  O31      1.0000 0.02950  0.73029  0.84947  Biso   1.000  O
  O32      1.0000 0.05240  0.67030  0.94907  Biso   1.000  O
  O33      1.0000 0.03100  0.61990  0.88490  Biso   1.000  O
  O34      1.0000 0.74380  0.71186  0.79882  Biso   1.000  O
  O35      1.0000 0.85810  0.63984  0.79667  Biso   1.000  O
  O36      1.0000 0.28860  0.70020  0.82165  Biso   1.000  O
  O37      1.0000 0.17230  0.63509  0.79375  Biso   1.000  O
  O38      1.0000 0.41260  0.33860  0.67665  Biso   1.000  O
  O39      1.0000 0.61480  0.32894  0.70802  Biso   1.000  O
  O40      1.0000 0.30450  0.78780  0.87412  Biso   1.000  O
  O41      1.0000 0.20940  0.76619  0.94081  Biso   1.000  O
  O42      1.0000 0.77830  0.78264  0.87663  Biso   1.000  O
  O43      1.0000 0.89320  0.76592  0.94603  Biso   1.000  O
  O44      1.0000 0.67000  0.73260  0.25177  Biso   1.000  O
  O45      1.0000 0.47700  0.76730  0.24890  Biso   1.000  O
  Zn9      1.0000 0.87781  0.76194  0.81715  Biso   1.000  Zn
  Zn10     1.0000 0.17218  0.76657  0.82228  Biso   1.000  Zn
  Zn11     1.0000 0.04457  0.73592  0.91815  Biso   1.000  Zn
  Zn12     1.0000 0.02689  0.66343  0.82505  Biso   1.000  Zn
  C109     1.0000 0.46360  0.12900  0.57150  Biso   1.000  C
  C110     1.0000 0.47030  0.08310  0.53790  Biso   1.000  C
  C111     1.0000 0.45560  0.09170  0.48760  Biso   1.000  C
  H52      1.0000 0.43730  0.12420  0.47600  Biso   1.000  H
  C112     1.0000 0.49160  0.03800  0.55600  Biso   1.000  C
  H53      1.0000 0.49670  0.03310  0.58950  Biso   1.000  H
  C113     1.0000 0.50710  0.99600  0.52380  Biso   1.000  C
  C114     1.0000 0.53220  0.94730  0.54480  Biso   1.000  C
  H54      1.0000 0.53990  0.94230  0.57830  Biso   1.000  H
  C115     1.0000 0.74510  0.16420  0.70640  Biso   1.000  C
  C116     1.0000 0.86730  0.13670  0.71520  Biso   1.000  C
  C117     1.0000 0.98560  0.15970  0.70660  Biso   1.000  C
  H55      1.0000 0.98690  0.19330  0.69680  Biso   1.000  H
  C118     1.0000 0.09850  0.13350  0.71250  Biso   1.000  C
  C119     1.0000 0.09940  0.08470  0.72800  Biso   1.000  C
  H56      1.0000 0.17820  0.06720  0.73190  Biso   1.000  H
  C120     1.0000 0.98460  0.06080  0.73800  Biso   1.000  C
  C121     1.0000 0.86920  0.08750  0.73070  Biso   1.000  C
  H57      1.0000 0.79080  0.07170  0.73660  Biso   1.000  H
  C122     1.0000 0.22150  0.15880  0.69790  Biso   1.000  C
  C123     1.0000 0.98680  0.00820  0.75520  Biso   1.000  C
  C124     1.0000 0.09080  0.98710  0.78040  Biso   1.000  C
  H58      1.0000 0.16460  0.00690  0.78740  Biso   1.000  H
  C125     1.0000 0.09230  0.93870  0.79600  Biso   1.000  C
  H59      1.0000 0.16590  0.92610  0.81360  Biso   1.000  H
  C126     1.0000 0.98450  0.90730  0.78580  Biso   1.000  C
  C127     1.0000 0.87840  0.92700  0.75920  Biso   1.000  C
  H60      1.0000 0.80630  0.90660  0.75110  Biso   1.000  H
  C128     1.0000 0.87790  0.97690  0.74430  Biso   1.000  C
  H61      1.0000 0.80450  0.99000  0.72690  Biso   1.000  H
  C129     1.0000 0.98740  0.85440  0.80080  Biso   1.000  C
  C130     1.0000 0.19180  0.27770  0.58190  Biso   1.000  C
  C131     1.0000 0.06480  0.28070  0.55370  Biso   1.000  C
  C132     1.0000 0.95230  0.28140  0.57850  Biso   1.000  C
  H62      1.0000 0.95680  0.28370  0.61230  Biso   1.000  H
  C133     1.0000 0.83220  0.27850  0.55210  Biso   1.000  C
  C134     1.0000 0.82490  0.27520  0.50230  Biso   1.000  C
  H63      1.0000 0.74360  0.27310  0.48530  Biso   1.000  H
  C135     1.0000 0.93650  0.27520  0.47700  Biso   1.000  C
  C136     1.0000 0.05890  0.27560  0.50380  Biso   1.000  C
  H64      1.0000 0.13540  0.27250  0.48780  Biso   1.000  H
  C137     1.0000 0.71260  0.27500  0.57880  Biso   1.000  C
  C138     1.0000 0.93090  0.27060  0.42430  Biso   1.000  C
  C139     1.0000 0.83260  0.24500  0.39890  Biso   1.000  C
  H65      1.0000 0.76580  0.23080  0.41560  Biso   1.000  H
  C140     1.0000 0.83060  0.23990  0.34970  Biso   1.000  C
  H66      1.0000 0.75990  0.22400  0.33310  Biso   1.000  H
  C141     1.0000 0.92930  0.25760  0.32450  Biso   1.000  C
  C142     1.0000 0.02570  0.28260  0.35010  Biso   1.000  C
  H67      1.0000 0.09360  0.29570  0.33320  Biso   1.000  H
  C143     1.0000 0.02960  0.29000  0.39960  Biso   1.000  C
  H68      1.0000 0.09790  0.30770  0.41570  Biso   1.000  H
  C144     1.0000 0.92910  0.25030  0.27060  Biso   1.000  C
  O46      1.0000 0.47050  0.23029  0.65053  Biso   1.000  O
  O47      1.0000 0.44760  0.17030  0.55093  Biso   1.000  O
  O48      1.0000 0.46900  0.11990  0.61510  Biso   1.000  O
  O49      1.0000 0.75620  0.21186  0.70118  Biso   1.000  O
  O50      1.0000 0.64190  0.13984  0.70333  Biso   1.000  O
  O51      1.0000 0.21140  0.20020  0.67835  Biso   1.000  O
  O52      1.0000 0.32770  0.13509  0.70625  Biso   1.000  O
  O53      1.0000 0.08740  0.83860  0.82335  Biso   1.000  O
  O54      1.0000 0.88520  0.82894  0.79198  Biso   1.000  O
  O55      1.0000 0.19550  0.28780  0.62588  Biso   1.000  O
  O56      1.0000 0.29060  0.26619  0.55919  Biso   1.000  O
  O57      1.0000 0.72170  0.28264  0.62337  Biso   1.000  O
  O58      1.0000 0.60680  0.26592  0.55397  Biso   1.000  O
  O59      1.0000 0.83000  0.23260  0.24823  Biso   1.000  O
  O60      1.0000 0.02300  0.26730  0.25110  Biso   1.000  O
  Zn13     1.0000 0.62219  0.26194  0.68285  Biso   1.000  Zn
  Zn14     1.0000 0.32782  0.26657  0.67772  Biso   1.000  Zn
  Zn15     1.0000 0.45543  0.23592  0.58185  Biso   1.000  Zn
  Zn16     1.0000 0.47311  0.16343  0.67495  Biso   1.000  Zn
