data_image0
_cell_length_a       10.327
_cell_length_b       26.237
_cell_length_c       27.756
_cell_angle_alpha    90
_cell_angle_beta     93.83
_cell_angle_gamma    90

_symmetry_space_group_name_H-M    "P 1"
_symmetry_int_tables_number       1

loop_
  _symmetry_equiv_pos_as_xyz
  'x, y, z'

loop_
  _atom_site_label
  _atom_site_occupancy
  _atom_site_fract_x
  _atom_site_fract_y
  _atom_site_fract_z
  _atom_site_thermal_displace_type
  _atom_site_B_iso_or_equiv
  _atom_site_type_symbol
  Zn1      1.0000 0.18180  0.76753  0.33672  Biso   1.000  Zn
  O1       1.0000 0.04050  0.80457  0.36387  Biso   1.000  O
  O2       1.0000 0.30220  0.83548  0.33288  Biso   1.000  O
  O3       1.0000 0.31080  0.74510  0.38713  Biso   1.000  O
  O4       1.0000 0.08800  0.69412  0.33786  Biso   1.000  O
  O5       1.0000 0.18770  0.75894  0.26649  Biso   1.000  O
  Zn2      1.0000 0.88719  0.77326  0.33262  Biso   1.000  Zn
  Zn3      1.0000 0.05457  0.79983  0.43261  Biso   1.000  Zn
  Zn4      1.0000 0.04111  0.87264  0.33656  Biso   1.000  Zn
  C1       1.0000 0.29260  0.87824  0.31289  Biso   1.000  C
  C2       1.0000 0.31430  0.75369  0.43105  Biso   1.000  C
  O6       1.0000 0.75920  0.82370  0.30962  Biso   1.000  O
  O7       1.0000 0.89070  0.70771  0.30199  Biso   1.000  O
  O8       1.0000 0.78490  0.75318  0.39038  Biso   1.000  O
  O9       1.0000 0.21950  0.76708  0.45508  Biso   1.000  O
  O10      1.0000 0.05590  0.86875  0.46252  Biso   1.000  O
  O11      1.0000 0.90170  0.76816  0.45928  Biso   1.000  O
  O12      1.0000 0.18600  0.90404  0.30647  Biso   1.000  O
  O13      1.0000 0.04160  0.91755  0.39772  Biso   1.000  O
  O14      1.0000 0.87240  0.89784  0.30829  Biso   1.000  O
  C3       1.0000 0.41400  0.90324  0.29691  Biso   1.000  C
  C4       1.0000 0.44400  0.74665  0.45940  Biso   1.000  C
  C5       1.0000 0.04160  0.90870  0.44196  Biso   1.000  C
  C6       1.0000 0.53110  0.87712  0.30512  Biso   1.000  C
  C7       1.0000 0.41230  0.95273  0.27647  Biso   1.000  C
  C8       1.0000 0.45270  0.74030  0.50982  Biso   1.000  C
  C9       1.0000 0.55640  0.74998  0.43510  Biso   1.000  C
  C10      1.0000 0.01940  0.95690  0.47180  Biso   1.000  C
  H1       1.0000 0.53280  0.84430  0.31870  Biso   1.000  H
  C11      1.0000 0.64500  0.90036  0.29302  Biso   1.000  C
  C12      1.0000 0.52620  0.97482  0.26510  Biso   1.000  C
  H2       1.0000 0.33340  0.97030  0.27080  Biso   1.000  H
  H3       1.0000 0.37660  0.73740  0.52640  Biso   1.000  H
  C13      1.0000 0.57010  0.73838  0.53471  Biso   1.000  C
  C14      1.0000 0.67750  0.75018  0.46177  Biso   1.000  C
  H4       1.0000 0.55210  0.75210  0.40120  Biso   1.000  H
  C15      1.0000 0.09670  0.96300  0.51650  Biso   1.000  C
  C16      1.0000 0.92460  0.99340  0.45530  Biso   1.000  C
  C17      1.0000 0.64180  0.94856  0.27381  Biso   1.000  C
  C18      1.0000 0.76950  0.87165  0.30436  Biso   1.000  C
  C19      1.0000 0.52490  0.02623  0.24391  Biso   1.000  C
  C20      1.0000 0.68430  0.74440  0.51082  Biso   1.000  C
  C21      1.0000 0.57800  0.73300  0.58914  Biso   1.000  C
  C22      1.0000 0.79690  0.75715  0.43435  Biso   1.000  C
  C23      1.0000 0.21670  0.92400  0.53970  Biso   1.000  C
  C24      1.0000 0.82410  0.98940  0.40600  Biso   1.000  C
  H5       1.0000 0.72000  0.96410  0.26640  Biso   1.000  H
  C25      1.0000 0.62510  0.06070  0.25265  Biso   1.000  C
  C26      1.0000 0.42000  0.04390  0.21327  Biso   1.000  C
  H6       1.0000 0.76530  0.74450  0.52840  Biso   1.000  H
  C27      1.0000 0.49040  0.70140  0.61061  Biso   1.000  C
  C28      1.0000 0.66880  0.76020  0.61760  Biso   1.000  C
  C29      1.0000 0.30670  0.93430  0.58350  Biso   1.000  C
  H7       1.0000 0.22700  0.89280  0.52380  Biso   1.000  H
  H8       1.0000 0.83240  0.96020  0.38690  Biso   1.000  H
  C30      1.0000 0.72980  0.02330  0.39200  Biso   1.000  C
  H9       1.0000 0.69800  0.05030  0.27230  Biso   1.000  H
  C31      1.0000 0.62390  0.10970  0.23399  Biso   1.000  C
  C32      1.0000 0.41580  0.09290  0.19536  Biso   1.000  C
  H10      1.0000 0.35090  0.02160  0.20480  Biso   1.000  H
  H11      1.0000 0.42520  0.68410  0.59180  Biso   1.000  H
  C33      1.0000 0.50150  0.69580  0.66130  Biso   1.000  C
  C34      1.0000 0.67610  0.75440  0.66769  Biso   1.000  C
  H12      1.0000 0.72570  0.78260  0.60320  Biso   1.000  H
  H13      1.0000 0.36560  0.90570  0.58870  Biso   1.000  H
  H14      1.0000 0.68520  0.01080  0.36250  Biso   1.000  H
  H15      1.0000 0.69530  0.13150  0.24030  Biso   1.000  H
  C35      1.0000 0.51530  0.12624  0.20570  Biso   1.000  C
  H16      1.0000 0.34320  0.10360  0.17570  Biso   1.000  H
  H17      1.0000 0.44710  0.67290  0.67630  Biso   1.000  H
  C36      1.0000 0.59220  0.72400  0.68924  Biso   1.000  C
  H18      1.0000 0.74050  0.77190  0.68660  Biso   1.000  H
  C37      1.0000 0.50960  0.17977  0.18654  Biso   1.000  C
  C38      1.0000 0.59620  0.71620  0.74322  Biso   1.000  C
  O15      1.0000 0.51330  0.69210  0.76142  Biso   1.000  O
  Zn5      1.0000 0.31820  0.26753  0.16328  Biso   1.000  Zn
  O16      1.0000 0.45950  0.30457  0.13613  Biso   1.000  O
  O17      1.0000 0.19780  0.33548  0.16712  Biso   1.000  O
  O18      1.0000 0.18920  0.24510  0.11287  Biso   1.000  O
  O19      1.0000 0.41200  0.19412  0.16214  Biso   1.000  O
  O20      1.0000 0.31230  0.25894  0.23351  Biso   1.000  O
  Zn6      1.0000 0.61281  0.27326  0.16738  Biso   1.000  Zn
  Zn7      1.0000 0.44543  0.29983  0.06739  Biso   1.000  Zn
  Zn8      1.0000 0.45889  0.37264  0.16344  Biso   1.000  Zn
  C39      1.0000 0.20740  0.37824  0.18711  Biso   1.000  C
  C40      1.0000 0.18570  0.25369  0.06895  Biso   1.000  C
  O21      1.0000 0.74080  0.32370  0.19038  Biso   1.000  O
  O22      1.0000 0.60930  0.20771  0.19801  Biso   1.000  O
  O23      1.0000 0.71510  0.25318  0.10962  Biso   1.000  O
  O24      1.0000 0.28050  0.26708  0.04492  Biso   1.000  O
  O25      1.0000 0.44410  0.36875  0.03748  Biso   1.000  O
  O26      1.0000 0.59830  0.26816  0.04072  Biso   1.000  O
  O27      1.0000 0.31400  0.40404  0.19353  Biso   1.000  O
  O28      1.0000 0.45840  0.41755  0.10228  Biso   1.000  O
  O29      1.0000 0.62760  0.39784  0.19171  Biso   1.000  O
  C41      1.0000 0.08600  0.40324  0.20309  Biso   1.000  C
  C42      1.0000 0.05600  0.24665  0.04060  Biso   1.000  C
  C43      1.0000 0.45840  0.40870  0.05804  Biso   1.000  C
  C44      1.0000 0.96890  0.37712  0.19488  Biso   1.000  C
  C45      1.0000 0.08770  0.45273  0.22353  Biso   1.000  C
  C46      1.0000 0.04730  0.24030  0.99018  Biso   1.000  C
  C47      1.0000 0.94360  0.24998  0.06490  Biso   1.000  C
  C48      1.0000 0.48060  0.45690  0.02820  Biso   1.000  C
  H19      1.0000 0.96720  0.34430  0.18130  Biso   1.000  H
  C49      1.0000 0.85500  0.40036  0.20698  Biso   1.000  C
  C50      1.0000 0.97380  0.47482  0.23490  Biso   1.000  C
  H20      1.0000 0.16660  0.47030  0.22920  Biso   1.000  H
  H21      1.0000 0.12340  0.23740  0.97360  Biso   1.000  H
  C51      1.0000 0.92990  0.23838  0.96529  Biso   1.000  C
  C52      1.0000 0.82250  0.25018  0.03823  Biso   1.000  C
  H22      1.0000 0.94790  0.25210  0.09880  Biso   1.000  H
  C53      1.0000 0.40330  0.46300  0.98350  Biso   1.000  C
  C54      1.0000 0.57540  0.49340  0.04470  Biso   1.000  C
  C55      1.0000 0.85820  0.44856  0.22619  Biso   1.000  C
  C56      1.0000 0.73050  0.37165  0.19564  Biso   1.000  C
  C57      1.0000 0.97510  0.52623  0.25609  Biso   1.000  C
  C58      1.0000 0.81570  0.24440  0.98918  Biso   1.000  C
  C59      1.0000 0.92200  0.23300  0.91086  Biso   1.000  C
  C60      1.0000 0.70310  0.25715  0.06565  Biso   1.000  C
  C61      1.0000 0.28330  0.42400  0.96030  Biso   1.000  C
  C62      1.0000 0.67590  0.48940  0.09400  Biso   1.000  C
  H23      1.0000 0.78000  0.46410  0.23360  Biso   1.000  H
  C63      1.0000 0.87490  0.56070  0.24735  Biso   1.000  C
  C64      1.0000 0.08000  0.54390  0.28673  Biso   1.000  C
  H24      1.0000 0.73470  0.24450  0.97160  Biso   1.000  H
  C65      1.0000 0.00960  0.20140  0.88939  Biso   1.000  C
  C66      1.0000 0.83120  0.26020  0.88240  Biso   1.000  C
  C67      1.0000 0.19330  0.43430  0.91650  Biso   1.000  C
  H25      1.0000 0.27300  0.39280  0.97620  Biso   1.000  H
  H26      1.0000 0.66760  0.46020  0.11310  Biso   1.000  H
  C68      1.0000 0.77020  0.52330  0.10800  Biso   1.000  C
  H27      1.0000 0.80200  0.55030  0.22770  Biso   1.000  H
  C69      1.0000 0.87610  0.60970  0.26601  Biso   1.000  C
  C70      1.0000 0.08420  0.59290  0.30464  Biso   1.000  C
  H28      1.0000 0.14910  0.52160  0.29520  Biso   1.000  H
  H29      1.0000 0.07480  0.18410  0.90820  Biso   1.000  H
  C71      1.0000 0.99850  0.19580  0.83870  Biso   1.000  C
  C72      1.0000 0.82390  0.25440  0.83231  Biso   1.000  C
  H30      1.0000 0.77430  0.28260  0.89680  Biso   1.000  H
  H31      1.0000 0.13440  0.40570  0.91130  Biso   1.000  H
  H32      1.0000 0.81480  0.51080  0.13750  Biso   1.000  H
  H33      1.0000 0.80470  0.63150  0.25970  Biso   1.000  H
  C73      1.0000 0.98470  0.62624  0.29430  Biso   1.000  C
  H34      1.0000 0.15680  0.60360  0.32430  Biso   1.000  H
  H35      1.0000 0.05290  0.17290  0.82370  Biso   1.000  H
  C74      1.0000 0.90780  0.22400  0.81076  Biso   1.000  C
  H36      1.0000 0.75950  0.27190  0.81340  Biso   1.000  H
  C75      1.0000 0.99040  0.67977  0.31346  Biso   1.000  C
  C76      1.0000 0.90380  0.21620  0.75678  Biso   1.000  C
  O30      1.0000 0.98670  0.19210  0.73858  Biso   1.000  O
  Zn9      1.0000 0.81820  0.23247  0.66328  Biso   1.000  Zn
  O31      1.0000 0.95950  0.19543  0.63613  Biso   1.000  O
  O32      1.0000 0.69780  0.16452  0.66712  Biso   1.000  O
  O33      1.0000 0.68920  0.25490  0.61287  Biso   1.000  O
  O34      1.0000 0.91200  0.30588  0.66214  Biso   1.000  O
  O35      1.0000 0.81230  0.24106  0.73351  Biso   1.000  O
  Zn10     1.0000 0.11281  0.22674  0.66738  Biso   1.000  Zn
  Zn11     1.0000 0.94543  0.20017  0.56739  Biso   1.000  Zn
  Zn12     1.0000 0.95889  0.12736  0.66344  Biso   1.000  Zn
  C77      1.0000 0.70740  0.12176  0.68711  Biso   1.000  C
  C78      1.0000 0.68570  0.24631  0.56895  Biso   1.000  C
  O36      1.0000 0.24080  0.17630  0.69038  Biso   1.000  O
  O37      1.0000 0.10930  0.29229  0.69801  Biso   1.000  O
  O38      1.0000 0.21510  0.24682  0.60962  Biso   1.000  O
  O39      1.0000 0.78050  0.23292  0.54492  Biso   1.000  O
  O40      1.0000 0.94410  0.13125  0.53748  Biso   1.000  O
  O41      1.0000 0.09830  0.23184  0.54072  Biso   1.000  O
  O42      1.0000 0.81400  0.09596  0.69353  Biso   1.000  O
  O43      1.0000 0.95840  0.08245  0.60228  Biso   1.000  O
  O44      1.0000 0.12760  0.10216  0.69171  Biso   1.000  O
  C79      1.0000 0.58600  0.09676  0.70309  Biso   1.000  C
  C80      1.0000 0.55600  0.25335  0.54060  Biso   1.000  C
  C81      1.0000 0.95840  0.09130  0.55804  Biso   1.000  C
  C82      1.0000 0.46890  0.12288  0.69488  Biso   1.000  C
  C83      1.0000 0.58770  0.04727  0.72353  Biso   1.000  C
  C84      1.0000 0.54730  0.25970  0.49018  Biso   1.000  C
  C85      1.0000 0.44360  0.25002  0.56490  Biso   1.000  C
  C86      1.0000 0.98060  0.04310  0.52820  Biso   1.000  C
  H37      1.0000 0.46720  0.15570  0.68130  Biso   1.000  H
  C87      1.0000 0.35500  0.09964  0.70698  Biso   1.000  C
  C88      1.0000 0.47380  0.02518  0.73490  Biso   1.000  C
  H38      1.0000 0.66660  0.02970  0.72920  Biso   1.000  H
  H39      1.0000 0.62340  0.26260  0.47360  Biso   1.000  H
  C89      1.0000 0.42990  0.26162  0.46529  Biso   1.000  C
  C90      1.0000 0.32250  0.24982  0.53823  Biso   1.000  C
  H40      1.0000 0.44790  0.24790  0.59880  Biso   1.000  H
  C91      1.0000 0.90330  0.03700  0.48350  Biso   1.000  C
  C92      1.0000 0.07540  0.00660  0.54470  Biso   1.000  C
  C93      1.0000 0.35820  0.05144  0.72619  Biso   1.000  C
  C94      1.0000 0.23050  0.12835  0.69564  Biso   1.000  C
  C95      1.0000 0.47510  0.97377  0.75609  Biso   1.000  C
  C96      1.0000 0.31570  0.25560  0.48918  Biso   1.000  C
  C97      1.0000 0.42200  0.26700  0.41086  Biso   1.000  C
  C98      1.0000 0.20310  0.24285  0.56565  Biso   1.000  C
  C99      1.0000 0.78330  0.07600  0.46030  Biso   1.000  C
  C100     1.0000 0.17590  0.01060  0.59400  Biso   1.000  C
  H41      1.0000 0.28000  0.03590  0.73360  Biso   1.000  H
  C101     1.0000 0.37490  0.93930  0.74735  Biso   1.000  C
  C102     1.0000 0.58000  0.95610  0.78673  Biso   1.000  C
  H42      1.0000 0.23470  0.25550  0.47160  Biso   1.000  H
  C103     1.0000 0.50960  0.29860  0.38939  Biso   1.000  C
  C104     1.0000 0.33120  0.23980  0.38240  Biso   1.000  C
  C105     1.0000 0.69330  0.06570  0.41650  Biso   1.000  C
  H43      1.0000 0.77300  0.10720  0.47620  Biso   1.000  H
  H44      1.0000 0.16760  0.03980  0.61310  Biso   1.000  H
  C106     1.0000 0.27020  0.97670  0.60800  Biso   1.000  C
  H45      1.0000 0.30200  0.94970  0.72770  Biso   1.000  H
  C107     1.0000 0.37610  0.89030  0.76601  Biso   1.000  C
  C108     1.0000 0.58420  0.90710  0.80464  Biso   1.000  C
  H46      1.0000 0.64910  0.97840  0.79520  Biso   1.000  H
  H47      1.0000 0.57480  0.31590  0.40820  Biso   1.000  H
  C109     1.0000 0.49850  0.30420  0.33870  Biso   1.000  C
  C110     1.0000 0.32390  0.24560  0.33231  Biso   1.000  C
  H48      1.0000 0.27430  0.21740  0.39680  Biso   1.000  H
  H49      1.0000 0.63440  0.09430  0.41130  Biso   1.000  H
  H50      1.0000 0.31480  0.98920  0.63750  Biso   1.000  H
  H51      1.0000 0.30470  0.86850  0.75970  Biso   1.000  H
  C111     1.0000 0.48470  0.87376  0.79430  Biso   1.000  C
  H52      1.0000 0.65680  0.89640  0.82430  Biso   1.000  H
  H53      1.0000 0.55290  0.32710  0.32370  Biso   1.000  H
  C112     1.0000 0.40780  0.27600  0.31076  Biso   1.000  C
  H54      1.0000 0.25950  0.22810  0.31340  Biso   1.000  H
  C113     1.0000 0.49040  0.82023  0.81346  Biso   1.000  C
  C114     1.0000 0.40380  0.28380  0.25678  Biso   1.000  C
  O45      1.0000 0.48670  0.30790  0.23858  Biso   1.000  O
  Zn13     1.0000 0.68180  0.73247  0.83672  Biso   1.000  Zn
  O46      1.0000 0.54050  0.69543  0.86387  Biso   1.000  O
  O47      1.0000 0.80220  0.66452  0.83288  Biso   1.000  O
  O48      1.0000 0.81080  0.75490  0.88713  Biso   1.000  O
  O49      1.0000 0.58800  0.80588  0.83786  Biso   1.000  O
  O50      1.0000 0.68770  0.74106  0.76649  Biso   1.000  O
  Zn14     1.0000 0.38719  0.72674  0.83262  Biso   1.000  Zn
  Zn15     1.0000 0.55457  0.70017  0.93261  Biso   1.000  Zn
  Zn16     1.0000 0.54111  0.62736  0.83656  Biso   1.000  Zn
  C115     1.0000 0.79260  0.62176  0.81289  Biso   1.000  C
  C116     1.0000 0.81430  0.74631  0.93105  Biso   1.000  C
  O51      1.0000 0.25920  0.67630  0.80962  Biso   1.000  O
  O52      1.0000 0.39070  0.79229  0.80199  Biso   1.000  O
  O53      1.0000 0.28490  0.74682  0.89038  Biso   1.000  O
  O54      1.0000 0.71950  0.73292  0.95508  Biso   1.000  O
  O55      1.0000 0.55590  0.63125  0.96252  Biso   1.000  O
  O56      1.0000 0.40170  0.73184  0.95928  Biso   1.000  O
  O57      1.0000 0.68600  0.59596  0.80647  Biso   1.000  O
  O58      1.0000 0.54160  0.58245  0.89772  Biso   1.000  O
  O59      1.0000 0.37240  0.60216  0.80829  Biso   1.000  O
  C117     1.0000 0.91400  0.59676  0.79691  Biso   1.000  C
  C118     1.0000 0.94400  0.75335  0.95940  Biso   1.000  C
  C119     1.0000 0.54160  0.59130  0.94196  Biso   1.000  C
  C120     1.0000 0.03110  0.62288  0.80512  Biso   1.000  C
  C121     1.0000 0.91230  0.54727  0.77647  Biso   1.000  C
  C122     1.0000 0.95270  0.75970  0.00982  Biso   1.000  C
  C123     1.0000 0.05640  0.75002  0.93510  Biso   1.000  C
  C124     1.0000 0.51940  0.54310  0.97180  Biso   1.000  C
  H55      1.0000 0.03280  0.65570  0.81870  Biso   1.000  H
  C125     1.0000 0.14500  0.59964  0.79302  Biso   1.000  C
  C126     1.0000 0.02620  0.52518  0.76510  Biso   1.000  C
  H56      1.0000 0.83340  0.52970  0.77080  Biso   1.000  H
  H57      1.0000 0.87660  0.76260  0.02640  Biso   1.000  H
  C127     1.0000 0.07010  0.76162  0.03471  Biso   1.000  C
  C128     1.0000 0.17750  0.74982  0.96177  Biso   1.000  C
  H58      1.0000 0.05210  0.74790  0.90120  Biso   1.000  H
  C129     1.0000 0.59670  0.53700  0.01650  Biso   1.000  C
  C130     1.0000 0.42460  0.50660  0.95530  Biso   1.000  C
  C131     1.0000 0.14180  0.55144  0.77381  Biso   1.000  C
  C132     1.0000 0.26950  0.62835  0.80436  Biso   1.000  C
  C133     1.0000 0.02490  0.47377  0.74391  Biso   1.000  C
  C134     1.0000 0.18430  0.75560  0.01082  Biso   1.000  C
  C135     1.0000 0.07800  0.76700  0.08914  Biso   1.000  C
  C136     1.0000 0.29690  0.74285  0.93435  Biso   1.000  C
  C137     1.0000 0.71670  0.57600  0.03970  Biso   1.000  C
  C138     1.0000 0.32410  0.51060  0.90600  Biso   1.000  C
  H59      1.0000 0.22000  0.53590  0.76640  Biso   1.000  H
  C139     1.0000 0.12510  0.43930  0.75265  Biso   1.000  C
  C140     1.0000 0.92000  0.45610  0.71327  Biso   1.000  C
  H60      1.0000 0.26530  0.75550  0.02840  Biso   1.000  H
  C141     1.0000 0.99040  0.79860  0.11061  Biso   1.000  C
  C142     1.0000 0.16880  0.73980  0.11760  Biso   1.000  C
  C143     1.0000 0.80670  0.56570  0.08350  Biso   1.000  C
  H61      1.0000 0.72700  0.60720  0.02380  Biso   1.000  H
  H62      1.0000 0.33240  0.53980  0.88690  Biso   1.000  H
  C144     1.0000 0.22980  0.47670  0.89200  Biso   1.000  C
  H63      1.0000 0.19800  0.44970  0.77230  Biso   1.000  H
  C145     1.0000 0.12390  0.39030  0.73399  Biso   1.000  C
  C146     1.0000 0.91580  0.40710  0.69536  Biso   1.000  C
  H64      1.0000 0.85090  0.47840  0.70480  Biso   1.000  H
  H65      1.0000 0.92520  0.81590  0.09180  Biso   1.000  H
  C147     1.0000 0.00150  0.80420  0.16130  Biso   1.000  C
  C148     1.0000 0.17610  0.74560  0.16769  Biso   1.000  C
  H66      1.0000 0.22570  0.71740  0.10320  Biso   1.000  H
  H67      1.0000 0.86560  0.59430  0.08870  Biso   1.000  H
  H68      1.0000 0.18520  0.48920  0.86250  Biso   1.000  H
  H69      1.0000 0.19530  0.36850  0.74030  Biso   1.000  H
  C149     1.0000 0.01530  0.37376  0.70570  Biso   1.000  C
  H70      1.0000 0.84320  0.39640  0.67570  Biso   1.000  H
  H71      1.0000 0.94710  0.82710  0.17630  Biso   1.000  H
  C150     1.0000 0.09220  0.77600  0.18924  Biso   1.000  C
  H72      1.0000 0.24050  0.72810  0.18660  Biso   1.000  H
  C151     1.0000 0.00960  0.32023  0.68654  Biso   1.000  C
  C152     1.0000 0.09620  0.78380  0.24322  Biso   1.000  C
  O60      1.0000 0.01330  0.80790  0.26142  Biso   1.000  O
