data_image0
_cell_length_a       4.798
_cell_length_b       21.341
_cell_length_c       5.406
_cell_angle_alpha    90
_cell_angle_beta     90.01
_cell_angle_gamma    90

_symmetry_space_group_name_H-M    "P 1"
_symmetry_int_tables_number       1

loop_
  _symmetry_equiv_pos_as_xyz
  'x, y, z'

loop_
  _atom_site_label
  _atom_site_occupancy
  _atom_site_fract_x
  _atom_site_fract_y
  _atom_site_fract_z
  _atom_site_thermal_displace_type
  _atom_site_B_iso_or_equiv
  _atom_site_type_symbol
  O1       1.0000 0.25010  0.46719  0.07650  Biso   1.000  O
  Ag1      1.0000 0.25109  0.35970  0.03674  Biso   1.000  Ag
  H1       1.0000 0.02240  0.50072  0.08040  Biso   1.000  H
  H2       1.0000 0.45970  0.49042  0.96400  Biso   1.000  H
  O2       1.0000 0.74990  0.96719  0.92350  Biso   1.000  O
  Ag2      1.0000 0.74891  0.85970  0.96326  Biso   1.000  Ag
  H3       1.0000 0.97760  0.00072  0.91960  Biso   1.000  H
  H4       1.0000 0.54030  0.99042  0.03600  Biso   1.000  H
  O3       1.0000 0.74990  0.53281  0.92350  Biso   1.000  O
  Ag3      1.0000 0.74891  0.64030  0.96326  Biso   1.000  Ag
  H5       1.0000 0.97760  0.49928  0.91960  Biso   1.000  H
  H6       1.0000 0.54030  0.50958  0.03600  Biso   1.000  H
  O4       1.0000 0.25010  0.03281  0.07650  Biso   1.000  O
  Ag4      1.0000 0.25109  0.14030  0.03674  Biso   1.000  Ag
  H7       1.0000 0.02240  0.99928  0.08040  Biso   1.000  H
  H8       1.0000 0.45970  0.00958  0.96400  Biso   1.000  H
  C1       1.0000 0.24520  0.25000  0.06080  Biso   1.000  C
  C2       1.0000 0.24280  0.25000  0.83660  Biso   1.000  C
  Ag5      1.0000 0.24981  0.25000  0.44673  Biso   1.000  Ag
  Ag6      1.0000 0.74976  0.25000  0.88780  Biso   1.000  Ag
  C3       1.0000 0.75480  0.75000  0.93920  Biso   1.000  C
  C4       1.0000 0.75720  0.75000  0.16340  Biso   1.000  C
  Ag7      1.0000 0.75019  0.75000  0.55327  Biso   1.000  Ag
  Ag8      1.0000 0.25024  0.75000  0.11220  Biso   1.000  Ag
