data_image0
_cell_length_a       7.509
_cell_length_b       11.881
_cell_length_c       20.942
_cell_angle_alpha    96.623
_cell_angle_beta     92.474
_cell_angle_gamma    102.015

_symmetry_space_group_name_H-M    P 1
_symmetry_int_tables_number       1

loop_
  _symmetry_equiv_pos_as_xyz
  'x, y, z'

loop_
  _atom_site_label
  _atom_site_occupancy
  _atom_site_fract_x
  _atom_site_fract_y
  _atom_site_fract_z
  _atom_site_thermal_displace_type
  _atom_site_B_iso_or_equiv
  _atom_site_type_symbol
  Cd1      1.0000 0.65169  0.85364  0.09578  Biso   1.000  Cd
  Cd2      1.0000 0.74880  0.01980  0.47812  Biso   1.000  Cd
  Cd3      1.0000 0.39373  0.17181  0.08465  Biso   1.000  Cd
  Cd4      1.0000 0.34831  0.14636  0.90422  Biso   1.000  Cd
  Cd5      1.0000 0.25120  0.98020  0.52188  Biso   1.000  Cd
  Cd6      1.0000 0.60627  0.82819  0.91535  Biso   1.000  Cd
  Cd7      1.0000 0.00000  0.00000  0.00000  Biso   1.000  Cd
  H1       1.0000 0.05460  0.79380  0.14210  Biso   1.000  H
  H2       1.0000 0.59930  0.56150  0.12800  Biso   1.000  H
  H3       1.0000 0.84040  0.46920  0.16300  Biso   1.000  H
  H4       1.0000 0.22480  0.54840  0.15860  Biso   1.000  H
  H5       1.0000 0.28530  0.68360  0.16560  Biso   1.000  H
  H6       1.0000 0.98820  0.65940  0.27270  Biso   1.000  H
  H7       1.0000 0.13840  0.77160  0.27140  Biso   1.000  H
  H8       1.0000 0.96850  0.57240  0.39050  Biso   1.000  H
  H9       1.0000 0.03030  0.68470  0.49600  Biso   1.000  H
  H10      1.0000 0.26770  0.88210  0.37530  Biso   1.000  H
  H11      1.0000 0.06850  0.46480  0.26160  Biso   1.000  H
  H12      1.0000 0.21100  0.50580  0.32080  Biso   1.000  H
  H13      1.0000 0.52670  0.43860  0.31240  Biso   1.000  H
  H14      1.0000 0.17460  0.35110  0.16080  Biso   1.000  H
  H15      1.0000 0.63600  0.30340  0.23440  Biso   1.000  H
  H16      1.0000 0.62690  0.89160  0.32560  Biso   1.000  H
  H17      1.0000 0.64440  0.72280  0.47400  Biso   1.000  H
  H18      1.0000 0.47310  0.58640  0.38730  Biso   1.000  H
  H19      1.0000 0.46830  0.74560  0.24160  Biso   1.000  H
  H20      1.0000 0.51230  0.62470  0.24840  Biso   1.000  H
  H21      1.0000 0.93650  0.05960  0.26950  Biso   1.000  H
  H22      1.0000 0.55110  0.07040  0.29770  Biso   1.000  H
  H23      1.0000 0.29490  0.48130  0.02020  Biso   1.000  H
  H24      1.0000 0.66100  0.01200  0.01900  Biso   1.000  H
  H25      1.0000 0.94540  0.20620  0.85790  Biso   1.000  H
  H26      1.0000 0.40070  0.43850  0.87200  Biso   1.000  H
  H27      1.0000 0.15960  0.53080  0.83700  Biso   1.000  H
  H28      1.0000 0.77520  0.45160  0.84140  Biso   1.000  H
  H29      1.0000 0.71470  0.31640  0.83440  Biso   1.000  H
  H30      1.0000 0.01180  0.34060  0.72730  Biso   1.000  H
  H31      1.0000 0.86160  0.22840  0.72860  Biso   1.000  H
  H32      1.0000 0.03150  0.42760  0.60950  Biso   1.000  H
  H33      1.0000 0.96970  0.31530  0.50400  Biso   1.000  H
  H34      1.0000 0.73230  0.11790  0.62470  Biso   1.000  H
  H35      1.0000 0.93150  0.53520  0.73840  Biso   1.000  H
  H36      1.0000 0.78900  0.49420  0.67920  Biso   1.000  H
  H37      1.0000 0.47330  0.56140  0.68760  Biso   1.000  H
  H38      1.0000 0.82540  0.64890  0.83920  Biso   1.000  H
  H39      1.0000 0.36400  0.69660  0.76560  Biso   1.000  H
  H40      1.0000 0.37310  0.10840  0.67440  Biso   1.000  H
  H41      1.0000 0.35560  0.27720  0.52600  Biso   1.000  H
  H42      1.0000 0.52690  0.41360  0.61270  Biso   1.000  H
  H43      1.0000 0.53170  0.25440  0.75840  Biso   1.000  H
  H44      1.0000 0.48770  0.37530  0.75160  Biso   1.000  H
  H45      1.0000 0.06350  0.94040  0.73050  Biso   1.000  H
  H46      1.0000 0.44890  0.92960  0.70230  Biso   1.000  H
  H47      1.0000 0.70510  0.51870  0.97980  Biso   1.000  H
  H48      1.0000 0.33900  0.98800  0.98100  Biso   1.000  H
  C1       1.0000 0.97000  0.72460  0.14286  Biso   1.000  C
  C2       1.0000 0.72190  0.59780  0.13540  Biso   1.000  C
  C3       1.0000 0.85450  0.54560  0.15450  Biso   1.000  C
  C4       1.0000 0.20010  0.61990  0.17998  Biso   1.000  C
  C5       1.0000 0.23880  0.62320  0.25423  Biso   1.000  C
  C6       1.0000 0.11330  0.69670  0.28720  Biso   1.000  C
  C7       1.0000 0.03670  0.64790  0.40000  Biso   1.000  C
  C8       1.0000 0.07040  0.71070  0.45780  Biso   1.000  C
  C9       1.0000 0.20090  0.81870  0.39220  Biso   1.000  C
  C10      1.0000 0.19560  0.49970  0.27420  Biso   1.000  C
  C11      1.0000 0.46920  0.40510  0.27250  Biso   1.000  C
  C12      1.0000 0.27650  0.35610  0.18870  Biso   1.000  C
  C13      1.0000 0.52900  0.33020  0.22930  Biso   1.000  C
  C14      1.0000 0.60990  0.83290  0.35200  Biso   1.000  C
  C15      1.0000 0.61830  0.73990  0.43290  Biso   1.000  C
  C16      1.0000 0.52500  0.66400  0.38530  Biso   1.000  C
  C17      1.0000 0.44420  0.68040  0.26629  Biso   1.000  C
  C18      1.0000 0.43800  0.13140  0.40920  Biso   1.000  C
  C19      1.0000 0.33140  0.09280  0.34478  Biso   1.000  C
  C20      1.0000 0.14220  0.08330  0.33708  Biso   1.000  C
  C21      1.0000 0.06040  0.06050  0.27520  Biso   1.000  C
  C22      1.0000 0.15510  0.03900  0.22112  Biso   1.000  C
  C23      1.0000 0.34160  0.03650  0.22932  Biso   1.000  C
  C24      1.0000 0.42660  0.06720  0.29177  Biso   1.000  C
  C25      1.0000 0.44980  0.99190  0.17712  Biso   1.000  C
  C26      1.0000 0.04730  0.01560  0.15670  Biso   1.000  C
  C27      1.0000 0.02370  0.08570  0.39340  Biso   1.000  C
  C28      1.0000 0.31150  0.69490  0.00580  Biso   1.000  C
  C29      1.0000 0.14530  0.59680  0.00378  Biso   1.000  C
  C30      1.0000 0.96630  0.60920  0.99112  Biso   1.000  C
  C31      1.0000 0.17570  0.48910  0.01210  Biso   1.000  C
  C32      1.0000 0.91740  0.72370  0.98590  Biso   1.000  C
  C33      1.0000 0.03000  0.27540  0.85714  Biso   1.000  C
  C34      1.0000 0.27810  0.40220  0.86460  Biso   1.000  C
  C35      1.0000 0.14550  0.45440  0.84550  Biso   1.000  C
  C36      1.0000 0.79990  0.38010  0.82002  Biso   1.000  C
  C37      1.0000 0.76120  0.37680  0.74577  Biso   1.000  C
  C38      1.0000 0.88670  0.30330  0.71280  Biso   1.000  C
  C39      1.0000 0.96330  0.35210  0.60000  Biso   1.000  C
  C40      1.0000 0.92960  0.28930  0.54220  Biso   1.000  C
  C41      1.0000 0.79910  0.18130  0.60780  Biso   1.000  C
  C42      1.0000 0.80440  0.50030  0.72580  Biso   1.000  C
  C43      1.0000 0.53080  0.59490  0.72750  Biso   1.000  C
  C44      1.0000 0.72350  0.64390  0.81130  Biso   1.000  C
  C45      1.0000 0.47100  0.66980  0.77070  Biso   1.000  C
  C46      1.0000 0.39010  0.16710  0.64800  Biso   1.000  C
  C47      1.0000 0.38170  0.26010  0.56710  Biso   1.000  C
  C48      1.0000 0.47500  0.33600  0.61470  Biso   1.000  C
  C49      1.0000 0.55580  0.31960  0.73371  Biso   1.000  C
  C50      1.0000 0.56200  0.86860  0.59080  Biso   1.000  C
  C51      1.0000 0.66860  0.90720  0.65522  Biso   1.000  C
  C52      1.0000 0.85780  0.91670  0.66292  Biso   1.000  C
  C53      1.0000 0.93960  0.93950  0.72480  Biso   1.000  C
  C54      1.0000 0.84490  0.96100  0.77888  Biso   1.000  C
  C55      1.0000 0.65840  0.96350  0.77068  Biso   1.000  C
  C56      1.0000 0.57340  0.93280  0.70823  Biso   1.000  C
  C57      1.0000 0.55020  0.00810  0.82288  Biso   1.000  C
  C58      1.0000 0.95270  0.98440  0.84330  Biso   1.000  C
  C59      1.0000 0.97630  0.91430  0.60660  Biso   1.000  C
  C60      1.0000 0.68850  0.30510  0.99420  Biso   1.000  C
  C61      1.0000 0.85470  0.40320  0.99622  Biso   1.000  C
  C62      1.0000 0.03370  0.39080  0.00888  Biso   1.000  C
  C63      1.0000 0.82430  0.51090  0.98790  Biso   1.000  C
  C64      1.0000 0.08260  0.27630  0.01410  Biso   1.000  C
  N1       1.0000 0.79170  0.71170  0.12832  Biso   1.000  N
  N2       1.0000 0.01430  0.62740  0.15871  Biso   1.000  N
  N3       1.0000 0.30780  0.42220  0.24647  Biso   1.000  N
  N4       1.0000 0.40480  0.30030  0.17647  Biso   1.000  N
  N5       1.0000 0.67040  0.84690  0.41279  Biso   1.000  N
  N6       1.0000 0.51990  0.72250  0.33242  Biso   1.000  N
  N7       1.0000 0.17120  0.81770  0.45321  Biso   1.000  N
  N8       1.0000 0.12360  0.71740  0.35695  Biso   1.000  N
  N9       1.0000 0.20830  0.28830  0.87168  Biso   1.000  N
  N10      1.0000 0.98570  0.37260  0.84129  Biso   1.000  N
  N11      1.0000 0.69220  0.57780  0.75353  Biso   1.000  N
  N12      1.0000 0.59520  0.69970  0.82353  Biso   1.000  N
  N13      1.0000 0.32960  0.15310  0.58721  Biso   1.000  N
  N14      1.0000 0.48010  0.27750  0.66758  Biso   1.000  N
  N15      1.0000 0.82880  0.18230  0.54679  Biso   1.000  N
  N16      1.0000 0.87640  0.28260  0.64305  Biso   1.000  N
  O1       1.0000 0.08220  0.07250  0.44740  Biso   1.000  O
  O2       1.0000 0.86010  0.09560  0.38153  Biso   1.000  O
  O3       1.0000 0.49570  0.23700  0.42244  Biso   1.000  O
  O4       1.0000 0.46820  0.05310  0.44219  Biso   1.000  O
  O5       1.0000 0.88020  0.97940  0.15708  Biso   1.000  O
  O6       1.0000 0.13150  0.03460  0.10693  Biso   1.000  O
  O7       1.0000 0.46800  0.88950  0.17855  Biso   1.000  O
  O8       1.0000 0.52440  0.05280  0.13706  Biso   1.000  O
  O9       1.0000 0.40620  0.71820  0.05728  Biso   1.000  O
  O10      1.0000 0.34520  0.73880  0.95417  Biso   1.000  O
  O11      1.0000 0.76020  0.71730  0.96157  Biso   1.000  O
  O12      1.0000 0.02940  0.81480  0.00632  Biso   1.000  O
  O13      1.0000 0.69550  0.94740  0.01155  Biso   1.000  O
  O14      1.0000 0.91780  0.92750  0.55260  Biso   1.000  O
  O15      1.0000 0.13990  0.90440  0.61847  Biso   1.000  O
  O16      1.0000 0.50430  0.76300  0.57756  Biso   1.000  O
  O17      1.0000 0.53180  0.94690  0.55781  Biso   1.000  O
  O18      1.0000 0.11980  0.02060  0.84292  Biso   1.000  O
  O19      1.0000 0.86850  0.96540  0.89307  Biso   1.000  O
  O20      1.0000 0.53200  0.11050  0.82145  Biso   1.000  O
  O21      1.0000 0.47560  0.94720  0.86294  Biso   1.000  O
  O22      1.0000 0.59380  0.28180  0.94272  Biso   1.000  O
  O23      1.0000 0.65480  0.26120  0.04583  Biso   1.000  O
  O24      1.0000 0.23980  0.28270  0.03843  Biso   1.000  O
  O25      1.0000 0.97060  0.18520  0.99368  Biso   1.000  O
  O26      1.0000 0.30450  0.05260  0.98845  Biso   1.000  O
