data_image0
_cell_length_a       9.0154
_cell_length_b       25.441
_cell_length_c       11.39
_cell_angle_alpha    90
_cell_angle_beta     104.41
_cell_angle_gamma    90

_symmetry_space_group_name_H-M    "P 1"
_symmetry_int_tables_number       1

loop_
  _symmetry_equiv_pos_as_xyz
  'x, y, z'

loop_
  _atom_site_label
  _atom_site_occupancy
  _atom_site_fract_x
  _atom_site_fract_y
  _atom_site_fract_z
  _atom_site_thermal_displace_type
  _atom_site_B_iso_or_equiv
  _atom_site_type_symbol
  O1       1.0000 0.33950  0.15355  0.43740  Biso   1.000  O
  O2       1.0000 0.29310  0.06853  0.45270  Biso   1.000  O
  O3       1.0000 0.24160  0.26738  0.38440  Biso   1.000  O
  O4       1.0000 0.01200  0.29082  0.27838  Biso   1.000  O
  O5       1.0000 0.53330  0.31810  0.38080  Biso   1.000  O
  H1       1.0000 0.48200  0.34500  0.38200  Biso   1.000  H
  H2       1.0000 0.62700  0.32620  0.39500  Biso   1.000  H
  N1       1.0000 0.39600  0.04233  0.25670  Biso   1.000  N
  N2       1.0000 0.10080  0.31043  0.07470  Biso   1.000  N
  C1       1.0000 0.34150  0.10601  0.40550  Biso   1.000  C
  C2       1.0000 0.41640  0.09654  0.30090  Biso   1.000  C
  H3       1.0000 0.37120  0.12080  0.23360  Biso   1.000  H
  H4       1.0000 0.52720  0.10440  0.32840  Biso   1.000  H
  C3       1.0000 0.29760  0.02619  0.15020  Biso   1.000  C
  H5       1.0000 0.24020  0.04830  0.08810  Biso   1.000  H
  C4       1.0000 0.15020  0.28291  0.28750  Biso   1.000  C
  C5       1.0000 0.21680  0.29099  0.17840  Biso   1.000  C
  H6       1.0000 0.30230  0.31650  0.19950  Biso   1.000  H
  H7       1.0000 0.25810  0.25720  0.15700  Biso   1.000  H
  C6       1.0000 0.06230  0.36199  0.04700  Biso   1.000  C
  H8       1.0000 0.11410  0.39200  0.08680  Biso   1.000  H
  O6       1.0000 0.83950  0.65355  0.43740  Biso   1.000  O
  O7       1.0000 0.79310  0.56853  0.45270  Biso   1.000  O
  O8       1.0000 0.74160  0.76738  0.38440  Biso   1.000  O
  O9       1.0000 0.51200  0.79082  0.27838  Biso   1.000  O
  O10      1.0000 0.03330  0.81810  0.38080  Biso   1.000  O
  H9       1.0000 0.98200  0.84500  0.38200  Biso   1.000  H
  H10      1.0000 0.12700  0.82620  0.39500  Biso   1.000  H
  N3       1.0000 0.89600  0.54233  0.25670  Biso   1.000  N
  N4       1.0000 0.60080  0.81043  0.07470  Biso   1.000  N
  C7       1.0000 0.84150  0.60601  0.40550  Biso   1.000  C
  C8       1.0000 0.91640  0.59654  0.30090  Biso   1.000  C
  H11      1.0000 0.87120  0.62080  0.23360  Biso   1.000  H
  H12      1.0000 0.02720  0.60440  0.32840  Biso   1.000  H
  C9       1.0000 0.79760  0.52619  0.15020  Biso   1.000  C
  H13      1.0000 0.74020  0.54830  0.08810  Biso   1.000  H
  C10      1.0000 0.65020  0.78291  0.28750  Biso   1.000  C
  C11      1.0000 0.71680  0.79099  0.17840  Biso   1.000  C
  H14      1.0000 0.80230  0.81650  0.19950  Biso   1.000  H
  H15      1.0000 0.75810  0.75720  0.15700  Biso   1.000  H
  C12      1.0000 0.56230  0.86199  0.04700  Biso   1.000  C
  H16      1.0000 0.61410  0.89200  0.08680  Biso   1.000  H
  O11      1.0000 0.66050  0.15355  0.56260  Biso   1.000  O
  O12      1.0000 0.70690  0.06853  0.54730  Biso   1.000  O
  O13      1.0000 0.75840  0.26738  0.61560  Biso   1.000  O
  O14      1.0000 0.98800  0.29082  0.72162  Biso   1.000  O
  O15      1.0000 0.46670  0.31810  0.61920  Biso   1.000  O
  H17      1.0000 0.51800  0.34500  0.61800  Biso   1.000  H
  H18      1.0000 0.37300  0.32620  0.60500  Biso   1.000  H
  N5       1.0000 0.60400  0.04233  0.74330  Biso   1.000  N
  N6       1.0000 0.89920  0.31043  0.92530  Biso   1.000  N
  C13      1.0000 0.65850  0.10601  0.59450  Biso   1.000  C
  C14      1.0000 0.58360  0.09654  0.69910  Biso   1.000  C
  H19      1.0000 0.62880  0.12080  0.76640  Biso   1.000  H
  H20      1.0000 0.47280  0.10440  0.67160  Biso   1.000  H
  C15      1.0000 0.70240  0.02619  0.84980  Biso   1.000  C
  H21      1.0000 0.75980  0.04830  0.91190  Biso   1.000  H
  C16      1.0000 0.84980  0.28291  0.71250  Biso   1.000  C
  C17      1.0000 0.78320  0.29099  0.82160  Biso   1.000  C
  H22      1.0000 0.69770  0.31650  0.80050  Biso   1.000  H
  H23      1.0000 0.74190  0.25720  0.84300  Biso   1.000  H
  C18      1.0000 0.93770  0.36199  0.95300  Biso   1.000  C
  H24      1.0000 0.88590  0.39200  0.91320  Biso   1.000  H
  O16      1.0000 0.16050  0.65355  0.56260  Biso   1.000  O
  O17      1.0000 0.20690  0.56853  0.54730  Biso   1.000  O
  O18      1.0000 0.25840  0.76738  0.61560  Biso   1.000  O
  O19      1.0000 0.48800  0.79082  0.72162  Biso   1.000  O
  O20      1.0000 0.96670  0.81810  0.61920  Biso   1.000  O
  H25      1.0000 0.01800  0.84500  0.61800  Biso   1.000  H
  H26      1.0000 0.87300  0.82620  0.60500  Biso   1.000  H
  N7       1.0000 0.10400  0.54233  0.74330  Biso   1.000  N
  N8       1.0000 0.39920  0.81043  0.92530  Biso   1.000  N
  C19      1.0000 0.15850  0.60601  0.59450  Biso   1.000  C
  C20      1.0000 0.08360  0.59654  0.69910  Biso   1.000  C
  H27      1.0000 0.12880  0.62080  0.76640  Biso   1.000  H
  H28      1.0000 0.97280  0.60440  0.67160  Biso   1.000  H
  C21      1.0000 0.20240  0.52619  0.84980  Biso   1.000  C
  H29      1.0000 0.25980  0.54830  0.91190  Biso   1.000  H
  C22      1.0000 0.34980  0.78291  0.71250  Biso   1.000  C
  C23      1.0000 0.28320  0.79099  0.82160  Biso   1.000  C
  H30      1.0000 0.19770  0.81650  0.80050  Biso   1.000  H
  H31      1.0000 0.24190  0.75720  0.84300  Biso   1.000  H
  C24      1.0000 0.43770  0.86199  0.95300  Biso   1.000  C
  H32      1.0000 0.38590  0.89200  0.91320  Biso   1.000  H
  O21      1.0000 0.66050  0.84645  0.56260  Biso   1.000  O
  O22      1.0000 0.70690  0.93147  0.54730  Biso   1.000  O
  O23      1.0000 0.75840  0.73262  0.61560  Biso   1.000  O
  O24      1.0000 0.98800  0.70918  0.72162  Biso   1.000  O
  O25      1.0000 0.46670  0.68190  0.61920  Biso   1.000  O
  H33      1.0000 0.51800  0.65500  0.61800  Biso   1.000  H
  H34      1.0000 0.37300  0.67380  0.60500  Biso   1.000  H
  N9       1.0000 0.60400  0.95767  0.74330  Biso   1.000  N
  N10      1.0000 0.89920  0.68957  0.92530  Biso   1.000  N
  C25      1.0000 0.65850  0.89399  0.59450  Biso   1.000  C
  C26      1.0000 0.58360  0.90346  0.69910  Biso   1.000  C
  H35      1.0000 0.62880  0.87920  0.76640  Biso   1.000  H
  H36      1.0000 0.47280  0.89560  0.67160  Biso   1.000  H
  C27      1.0000 0.70240  0.97381  0.84980  Biso   1.000  C
  H37      1.0000 0.75980  0.95170  0.91190  Biso   1.000  H
  C28      1.0000 0.84980  0.71709  0.71250  Biso   1.000  C
  C29      1.0000 0.78320  0.70901  0.82160  Biso   1.000  C
  H38      1.0000 0.69770  0.68350  0.80050  Biso   1.000  H
  H39      1.0000 0.74190  0.74280  0.84300  Biso   1.000  H
  C30      1.0000 0.93770  0.63801  0.95300  Biso   1.000  C
  H40      1.0000 0.88590  0.60800  0.91320  Biso   1.000  H
  O26      1.0000 0.16050  0.34645  0.56260  Biso   1.000  O
  O27      1.0000 0.20690  0.43147  0.54730  Biso   1.000  O
  O28      1.0000 0.25840  0.23262  0.61560  Biso   1.000  O
  O29      1.0000 0.48800  0.20918  0.72162  Biso   1.000  O
  O30      1.0000 0.96670  0.18190  0.61920  Biso   1.000  O
  H41      1.0000 0.01800  0.15500  0.61800  Biso   1.000  H
  H42      1.0000 0.87300  0.17380  0.60500  Biso   1.000  H
  N11      1.0000 0.10400  0.45767  0.74330  Biso   1.000  N
  N12      1.0000 0.39920  0.18957  0.92530  Biso   1.000  N
  C31      1.0000 0.15850  0.39399  0.59450  Biso   1.000  C
  C32      1.0000 0.08360  0.40346  0.69910  Biso   1.000  C
  H43      1.0000 0.12880  0.37920  0.76640  Biso   1.000  H
  H44      1.0000 0.97280  0.39560  0.67160  Biso   1.000  H
  C33      1.0000 0.20240  0.47381  0.84980  Biso   1.000  C
  H45      1.0000 0.25980  0.45170  0.91190  Biso   1.000  H
  C34      1.0000 0.34980  0.21709  0.71250  Biso   1.000  C
  C35      1.0000 0.28320  0.20901  0.82160  Biso   1.000  C
  H46      1.0000 0.19770  0.18350  0.80050  Biso   1.000  H
  H47      1.0000 0.24190  0.24280  0.84300  Biso   1.000  H
  C36      1.0000 0.43770  0.13801  0.95300  Biso   1.000  C
  H48      1.0000 0.38590  0.10800  0.91320  Biso   1.000  H
  O31      1.0000 0.33950  0.84645  0.43740  Biso   1.000  O
  O32      1.0000 0.29310  0.93147  0.45270  Biso   1.000  O
  O33      1.0000 0.24160  0.73262  0.38440  Biso   1.000  O
  O34      1.0000 0.01200  0.70918  0.27838  Biso   1.000  O
  O35      1.0000 0.53330  0.68190  0.38080  Biso   1.000  O
  H49      1.0000 0.48200  0.65500  0.38200  Biso   1.000  H
  H50      1.0000 0.62700  0.67380  0.39500  Biso   1.000  H
  N13      1.0000 0.39600  0.95767  0.25670  Biso   1.000  N
  N14      1.0000 0.10080  0.68957  0.07470  Biso   1.000  N
  C37      1.0000 0.34150  0.89399  0.40550  Biso   1.000  C
  C38      1.0000 0.41640  0.90346  0.30090  Biso   1.000  C
  H51      1.0000 0.37120  0.87920  0.23360  Biso   1.000  H
  H52      1.0000 0.52720  0.89560  0.32840  Biso   1.000  H
  C39      1.0000 0.29760  0.97381  0.15020  Biso   1.000  C
  H53      1.0000 0.24020  0.95170  0.08810  Biso   1.000  H
  C40      1.0000 0.15020  0.71709  0.28750  Biso   1.000  C
  C41      1.0000 0.21680  0.70901  0.17840  Biso   1.000  C
  H54      1.0000 0.30230  0.68350  0.19950  Biso   1.000  H
  H55      1.0000 0.25810  0.74280  0.15700  Biso   1.000  H
  C42      1.0000 0.06230  0.63801  0.04700  Biso   1.000  C
  H56      1.0000 0.11410  0.60800  0.08680  Biso   1.000  H
  O36      1.0000 0.83950  0.34645  0.43740  Biso   1.000  O
  O37      1.0000 0.79310  0.43147  0.45270  Biso   1.000  O
  O38      1.0000 0.74160  0.23262  0.38440  Biso   1.000  O
  O39      1.0000 0.51200  0.20918  0.27838  Biso   1.000  O
  O40      1.0000 0.03330  0.18190  0.38080  Biso   1.000  O
  H57      1.0000 0.98200  0.15500  0.38200  Biso   1.000  H
  H58      1.0000 0.12700  0.17380  0.39500  Biso   1.000  H
  N15      1.0000 0.89600  0.45767  0.25670  Biso   1.000  N
  N16      1.0000 0.60080  0.18957  0.07470  Biso   1.000  N
  C43      1.0000 0.84150  0.39399  0.40550  Biso   1.000  C
  C44      1.0000 0.91640  0.40346  0.30090  Biso   1.000  C
  H59      1.0000 0.87120  0.37920  0.23360  Biso   1.000  H
  H60      1.0000 0.02720  0.39560  0.32840  Biso   1.000  H
  C45      1.0000 0.79760  0.47381  0.15020  Biso   1.000  C
  H61      1.0000 0.74020  0.45170  0.08810  Biso   1.000  H
  C46      1.0000 0.65020  0.21709  0.28750  Biso   1.000  C
  C47      1.0000 0.71680  0.20901  0.17840  Biso   1.000  C
  H62      1.0000 0.80230  0.18350  0.19950  Biso   1.000  H
  H63      1.0000 0.75810  0.24280  0.15700  Biso   1.000  H
  C48      1.0000 0.56230  0.13801  0.04700  Biso   1.000  C
  H64      1.0000 0.61410  0.10800  0.08680  Biso   1.000  H
  La1      1.0000 0.50000  0.23472  0.50000  Biso   1.000  La
  La2      1.0000 0.00000  0.73472  0.50000  Biso   1.000  La
  La3      1.0000 0.50000  0.76528  0.50000  Biso   1.000  La
  La4      1.0000 0.00000  0.26528  0.50000  Biso   1.000  La
  C49      1.0000 0.45510  0.00000  0.31860  Biso   1.000  C
  H65      1.0000 0.52790  0.00000  0.39490  Biso   1.000  H
  C50      1.0000 0.95510  0.50000  0.31860  Biso   1.000  C
  H66      1.0000 0.02790  0.50000  0.39490  Biso   1.000  H
  C51      1.0000 0.54490  0.00000  0.68140  Biso   1.000  C
  H67      1.0000 0.47210  0.00000  0.60510  Biso   1.000  H
  C52      1.0000 0.04490  0.50000  0.68140  Biso   1.000  C
  H68      1.0000 0.97210  0.50000  0.60510  Biso   1.000  H
  C53      1.0000 0.00000  0.28000  0.00000  Biso   1.000  C
  H69      1.0000 0.00000  0.24270  0.00000  Biso   1.000  H
  C54      1.0000 0.50000  0.78000  0.00000  Biso   1.000  C
  H70      1.0000 0.50000  0.74270  0.00000  Biso   1.000  H
  C55      1.0000 0.00000  0.72000  0.00000  Biso   1.000  C
  H71      1.0000 0.00000  0.75730  0.00000  Biso   1.000  H
  C56      1.0000 0.50000  0.22000  0.00000  Biso   1.000  C
  H72      1.0000 0.50000  0.25730  0.00000  Biso   1.000  H
