data_PUNSUN_charged
_audit_creation_date              2014-07-02
_audit_creation_method            'Materials Studio'
_symmetry_space_group_name_H-M    'P1'
_symmetry_Int_Tables_number       1
_symmetry_cell_setting            triclinic
loop_
_symmetry_equiv_pos_as_xyz
  x,y,z
_cell_length_a                    8.9294
_cell_length_b                    12.4238
_cell_length_c                    12.4238
_cell_angle_alpha                 98.0156
_cell_angle_beta                  106.8550
_cell_angle_gamma                 73.1454
loop_
_atom_site_label
_atom_site_type_symbol
_atom_site_fract_x
_atom_site_fract_y
_atom_site_fract_z
_atom_site_U_iso_or_equiv
_atom_site_adp_type
_atom_site_occupancy
La1    La    0.75000   0.52793   0.52793   0.01267  Uiso   1.00
La2    La    0.25000   0.47207   0.47207   0.01267  Uiso   1.00
H1     H     0.55500   0.43300   0.31900   0.01267  Uiso   1.00
H2     H     0.70000   0.42500   0.29300   0.01267  Uiso   1.00
H3     H     0.90610   0.61760   0.84180   0.01267  Uiso   1.00
H4     H     0.81830   0.53250   0.86810   0.01267  Uiso   1.00
H5     H     0.90890   0.80640   0.98380   0.01267  Uiso   1.00
H6     H     0.87870   0.84590   0.17950   0.01267  Uiso   1.00
H7     H     0.74210   0.56370   0.05190   0.01267  Uiso   1.00
H8     H     0.75530   0.75060   0.30220   0.01267  Uiso   1.00
H9     H     0.68140   0.64790   0.24130   0.01267  Uiso   1.00
H10    H     0.94500   0.31900   0.43300   0.01267  Uiso   1.00
H11    H     0.80000   0.29300   0.42500   0.01267  Uiso   1.00
H12    H     0.59390   0.84180   0.61760   0.01267  Uiso   1.00
H13    H     0.68170   0.86810   0.53250   0.01267  Uiso   1.00
H14    H     0.59110   0.98380   0.80640   0.01267  Uiso   1.00
H15    H     0.62130   0.17950   0.84590   0.01267  Uiso   1.00
H16    H     0.75790   0.05190   0.56370   0.01267  Uiso   1.00
H17    H     0.74470   0.30220   0.75060   0.01267  Uiso   1.00
H18    H     0.81860   0.24130   0.64790   0.01267  Uiso   1.00
H19    H     0.44500   0.56700   0.68100   0.01267  Uiso   1.00
H20    H     0.30000   0.57500   0.70700   0.01267  Uiso   1.00
H21    H     0.09390   0.38240   0.15820   0.01267  Uiso   1.00
H22    H     0.18170   0.46750   0.13190   0.01267  Uiso   1.00
H23    H     0.09110   0.19360   0.01620   0.01267  Uiso   1.00
H24    H     0.12130   0.15410   0.82050   0.01267  Uiso   1.00
H25    H     0.25790   0.43630   0.94810   0.01267  Uiso   1.00
H26    H     0.24470   0.24940   0.69780   0.01267  Uiso   1.00
H27    H     0.31860   0.35210   0.75870   0.01267  Uiso   1.00
H28    H     0.05500   0.68100   0.56700   0.01267  Uiso   1.00
H29    H     0.20000   0.70700   0.57500   0.01267  Uiso   1.00
H30    H     0.40610   0.15820   0.38240   0.01267  Uiso   1.00
H31    H     0.31830   0.13190   0.46750   0.01267  Uiso   1.00
H32    H     0.40890   0.01620   0.19360   0.01267  Uiso   1.00
H33    H     0.37870   0.82050   0.15410   0.01267  Uiso   1.00
H34    H     0.24210   0.94810   0.43630   0.01267  Uiso   1.00
H35    H     0.25530   0.69780   0.24940   0.01267  Uiso   1.00
H36    H     0.18140   0.75870   0.35210   0.01267  Uiso   1.00
C1     C     0.65530   0.67000   0.78360   0.01267  Uiso   1.00
C2     C     0.81270   0.61310   0.86710   0.01267  Uiso   1.00
C3     C     0.87180   0.76290   0.02250   0.01267  Uiso   1.00
C4     C     0.85500   0.78460   0.12900   0.01267  Uiso   1.00
C5     C     0.77970   0.62920   0.05920   0.01267  Uiso   1.00
C6     C     0.77630   0.67890   0.25610   0.01267  Uiso   1.00
C7     C     0.92680   0.59620   0.32120   0.01267  Uiso   1.00
C8     C     0.84470   0.78360   0.67000   0.01267  Uiso   1.00
C9     C     0.68730   0.86710   0.61310   0.01267  Uiso   1.00
C10    C     0.62820   0.02250   0.76290   0.01267  Uiso   1.00
C11    C     0.64500   0.12900   0.78460   0.01267  Uiso   1.00
C12    C     0.72030   0.05920   0.62920   0.01267  Uiso   1.00
C13    C     0.72370   0.25610   0.67890   0.01267  Uiso   1.00
C14    C     0.57320   0.32120   0.59620   0.01267  Uiso   1.00
C15    C     0.34470   0.33000   0.21640   0.01267  Uiso   1.00
C16    C     0.18730   0.38690   0.13290   0.01267  Uiso   1.00
C17    C     0.12820   0.23710   0.97750   0.01267  Uiso   1.00
C18    C     0.14500   0.21540   0.87100   0.01267  Uiso   1.00
C19    C     0.22030   0.37080   0.94080   0.01267  Uiso   1.00
C20    C     0.22370   0.32110   0.74390   0.01267  Uiso   1.00
C21    C     0.07320   0.40380   0.67880   0.01267  Uiso   1.00
C22    C     0.15530   0.21640   0.33000   0.01267  Uiso   1.00
C23    C     0.31270   0.13290   0.38690   0.01267  Uiso   1.00
C24    C     0.37180   0.97750   0.23710   0.01267  Uiso   1.00
C25    C     0.35500   0.87100   0.21540   0.01267  Uiso   1.00
C26    C     0.27970   0.94080   0.37080   0.01267  Uiso   1.00
C27    C     0.27630   0.74390   0.32110   0.01267  Uiso   1.00
C28    C     0.42680   0.67880   0.40380   0.01267  Uiso   1.00
N1     N     0.82450   0.66570   0.98130   0.01267  Uiso   1.00
N2     N     0.79680   0.70050   0.14950   0.01267  Uiso   1.00
N3     N     0.67550   0.98130   0.66570   0.01267  Uiso   1.00
N4     N     0.70320   0.14950   0.70050   0.01267  Uiso   1.00
N5     N     0.17550   0.33430   0.01870   0.01267  Uiso   1.00
N6     N     0.20320   0.29950   0.85050   0.01267  Uiso   1.00
N7     N     0.32450   0.01870   0.33430   0.01267  Uiso   1.00
N8     N     0.29680   0.85050   0.29950   0.01267  Uiso   1.00
O1     O     0.62980   0.62119   0.68699   0.01267  Uiso   1.00
O2     O     0.56730   0.75980   0.81300   0.01267  Uiso   1.00
O3     O     0.91260   0.55462   0.40382   0.01267  Uiso   1.00
O4     O     0.05570   0.57454   0.29446   0.01267  Uiso   1.00
O5     O     0.62310   0.46890   0.31670   0.01267  Uiso   1.00
O6     O     0.87020   0.68699   0.62119   0.01267  Uiso   1.00
O7     O     0.93270   0.81300   0.75980   0.01267  Uiso   1.00
O8     O     0.58740   0.40382   0.55462   0.01267  Uiso   1.00
O9     O     0.44430   0.29446   0.57454   0.01267  Uiso   1.00
O10    O     0.87690   0.31670   0.46890   0.01267  Uiso   1.00
O11    O     0.37020   0.37881   0.31301   0.01267  Uiso   1.00
O12    O     0.43270   0.24020   0.18700   0.01267  Uiso   1.00
O13    O     0.08740   0.44538   0.59618   0.01267  Uiso   1.00
O14    O     0.94430   0.42546   0.70554   0.01267  Uiso   1.00
O15    O     0.37690   0.53110   0.68330   0.01267  Uiso   1.00
O16    O     0.12980   0.31301   0.37881   0.01267  Uiso   1.00
O17    O     0.06730   0.18700   0.24020   0.01267  Uiso   1.00
O18    O     0.41260   0.59618   0.44538   0.01267  Uiso   1.00
O19    O     0.55570   0.70554   0.42546   0.01267  Uiso   1.00
O20    O     0.12310   0.68330   0.53110   0.01267  Uiso   1.00
Cl1    Cl    0.80390   0.37010   0.15990   0.01267  Uiso   1.00
Cl2    Cl    0.69610   0.15990   0.37010   0.01267  Uiso   1.00
Cl3    Cl    0.19610   0.62990   0.84010   0.01267  Uiso   1.00
Cl4    Cl    0.30390   0.84010   0.62990   0.01267  Uiso   1.00
