data_image0
_cell_length_a       8.846
_cell_length_b       22.0006
_cell_length_c       22.5475
_cell_angle_alpha    119.201
_cell_angle_beta     96.0092
_cell_angle_gamma    90

_symmetry_space_group_name_H-M    P 1
_symmetry_int_tables_number       1

loop_
  _symmetry_equiv_pos_as_xyz
  'x, y, z'

loop_
  _atom_site_label
  _atom_site_occupancy
  _atom_site_fract_x
  _atom_site_fract_y
  _atom_site_fract_z
  _atom_site_thermal_displace_type
  _atom_site_B_iso_or_equiv
  _atom_site_type_symbol
  Na1      1.0000 0.64370  0.31983  0.41104  Biso   1.000  Na
  Na2      1.0000 0.85630  0.90879  0.58896  Biso   1.000  Na
  Na3      1.0000 0.35630  0.68017  0.58896  Biso   1.000  Na
  Na4      1.0000 0.14370  0.09121  0.41104  Biso   1.000  Na
  H1       1.0000 0.60090  0.44460  0.54940  Biso   1.000  H
  H2       1.0000 0.54140  0.37980  0.52780  Biso   1.000  H
  H3       1.0000 0.39470  0.23050  0.55840  Biso   1.000  H
  H4       1.0000 0.25270  0.25520  0.52980  Biso   1.000  H
  H5       1.0000 0.47920  0.45400  0.66160  Biso   1.000  H
  H6       1.0000 0.38370  0.52460  0.76300  Biso   1.000  H
  H7       1.0000 0.13850  0.36240  0.74260  Biso   1.000  H
  H8       1.0000 0.22970  0.29110  0.64060  Biso   1.000  H
  H9       1.0000 0.35960  0.57400  0.87080  Biso   1.000  H
  H10      1.0000 0.25110  0.58250  0.92460  Biso   1.000  H
  H11      1.0000 0.36180  0.52150  0.89900  Biso   1.000  H
  H12      1.0000 0.05340  0.49540  0.89820  Biso   1.000  H
  H13      1.0000 0.00130  0.43670  0.82300  Biso   1.000  H
  H14      1.0000 0.15330  0.43140  0.86240  Biso   1.000  H
  H15      1.0000 0.19680  0.63320  0.84520  Biso   1.000  H
  H16      1.0000 0.05270  0.68750  0.79660  Biso   1.000  H
  H17      1.0000 0.75680  0.52150  0.70580  Biso   1.000  H
  H18      1.0000 0.90390  0.46720  0.75300  Biso   1.000  H
  H19      1.0000 0.01610  0.97360  0.22260  Biso   1.000  H
  H20      1.0000 0.13060  0.94020  0.25500  Biso   1.000  H
  H21      1.0000 0.13740  0.81760  0.03720  Biso   1.000  H
  H22      1.0000 0.98090  0.71860  0.97180  Biso   1.000  H
  H23      1.0000 0.77420  0.75990  0.13560  Biso   1.000  H
  H24      1.0000 0.92890  0.85980  0.20040  Biso   1.000  H
  H25      1.0000 0.90690  0.61170  0.93280  Biso   1.000  H
  H26      1.0000 0.90460  0.58840  0.98820  Biso   1.000  H
  H27      1.0000 0.77470  0.56080  0.92660  Biso   1.000  H
  H28      1.0000 0.89310  0.72940  0.75100  Biso   1.000  H
  H29      1.0000 0.94550  0.67860  0.67940  Biso   1.000  H
  H30      1.0000 0.87040  0.44490  0.35520  Biso   1.000  H
  H31      1.0000 0.83960  0.51880  0.52680  Biso   1.000  H
  H32      1.0000 0.73440  0.57120  0.51660  Biso   1.000  H
  H33      1.0000 0.69330  0.49070  0.47320  Biso   1.000  H
  H34      1.0000 0.91200  0.61630  0.46400  Biso   1.000  H
  H35      1.0000 0.04960  0.56860  0.45360  Biso   1.000  H
  H36      1.0000 0.93460  0.55650  0.39040  Biso   1.000  H
  H37      1.0000 0.89910  0.89520  0.45060  Biso   1.000  H
  H38      1.0000 0.95860  0.85200  0.47220  Biso   1.000  H
  H39      1.0000 0.10530  0.67210  0.44160  Biso   1.000  H
  H40      1.0000 0.24730  0.72540  0.47020  Biso   1.000  H
  H41      1.0000 0.02080  0.79240  0.33840  Biso   1.000  H
  H42      1.0000 0.11630  0.76160  0.23700  Biso   1.000  H
  H43      1.0000 0.36150  0.61980  0.25740  Biso   1.000  H
  H44      1.0000 0.27030  0.65050  0.35940  Biso   1.000  H
  H45      1.0000 0.14040  0.70320  0.12920  Biso   1.000  H
  H46      1.0000 0.24890  0.65790  0.07540  Biso   1.000  H
  H47      1.0000 0.13820  0.62250  0.10100  Biso   1.000  H
  H48      1.0000 0.44660  0.59720  0.10180  Biso   1.000  H
  H49      1.0000 0.49870  0.61370  0.17700  Biso   1.000  H
  H50      1.0000 0.34670  0.56900  0.13760  Biso   1.000  H
  H51      1.0000 0.30320  0.78800  0.15480  Biso   1.000  H
  H52      1.0000 0.44730  0.89090  0.20340  Biso   1.000  H
  H53      1.0000 0.74320  0.81570  0.29420  Biso   1.000  H
  H54      1.0000 0.59610  0.71420  0.24700  Biso   1.000  H
  H55      1.0000 0.48390  0.75100  0.77740  Biso   1.000  H
  H56      1.0000 0.36940  0.68520  0.74500  Biso   1.000  H
  H57      1.0000 0.36260  0.78040  0.96280  Biso   1.000  H
  H58      1.0000 0.51910  0.74680  0.02820  Biso   1.000  H
  H59      1.0000 0.72580  0.62430  0.86440  Biso   1.000  H
  H60      1.0000 0.57110  0.65940  0.79960  Biso   1.000  H
  H61      1.0000 0.59310  0.67890  0.06720  Biso   1.000  H
  H62      1.0000 0.59540  0.60020  0.01180  Biso   1.000  H
  H63      1.0000 0.72530  0.63420  0.07340  Biso   1.000  H
  H64      1.0000 0.60690  0.97840  0.24900  Biso   1.000  H
  H65      1.0000 0.55450  0.99920  0.32060  Biso   1.000  H
  H66      1.0000 0.62960  0.08970  0.64480  Biso   1.000  H
  H67      1.0000 0.66040  0.99200  0.47320  Biso   1.000  H
  H68      1.0000 0.76560  0.05460  0.48340  Biso   1.000  H
  H69      1.0000 0.80670  0.01750  0.52680  Biso   1.000  H
  H70      1.0000 0.58800  0.15230  0.53600  Biso   1.000  H
  H71      1.0000 0.45040  0.11500  0.54640  Biso   1.000  H
  H72      1.0000 0.56540  0.16610  0.60960  Biso   1.000  H
  H73      1.0000 0.39910  0.55540  0.45060  Biso   1.000  H
  H74      1.0000 0.45860  0.62020  0.47220  Biso   1.000  H
  H75      1.0000 0.60530  0.76950  0.44160  Biso   1.000  H
  H76      1.0000 0.74730  0.74480  0.47020  Biso   1.000  H
  H77      1.0000 0.52080  0.54600  0.33840  Biso   1.000  H
  H78      1.0000 0.61630  0.47540  0.23700  Biso   1.000  H
  H79      1.0000 0.86150  0.63760  0.25740  Biso   1.000  H
  H80      1.0000 0.77030  0.70890  0.35940  Biso   1.000  H
  H81      1.0000 0.64040  0.42600  0.12920  Biso   1.000  H
  H82      1.0000 0.74890  0.41750  0.07540  Biso   1.000  H
  H83      1.0000 0.63820  0.47850  0.10100  Biso   1.000  H
  H84      1.0000 0.94660  0.50460  0.10180  Biso   1.000  H
  H85      1.0000 0.99870  0.56330  0.17700  Biso   1.000  H
  H86      1.0000 0.84670  0.56860  0.13760  Biso   1.000  H
  H87      1.0000 0.80320  0.36680  0.15480  Biso   1.000  H
  H88      1.0000 0.94730  0.31250  0.20340  Biso   1.000  H
  H89      1.0000 0.24320  0.47850  0.29420  Biso   1.000  H
  H90      1.0000 0.09610  0.53280  0.24700  Biso   1.000  H
  H91      1.0000 0.98390  0.02640  0.77740  Biso   1.000  H
  H92      1.0000 0.86940  0.05980  0.74500  Biso   1.000  H
  H93      1.0000 0.86260  0.18240  0.96280  Biso   1.000  H
  H94      1.0000 0.01910  0.28140  0.02820  Biso   1.000  H
  H95      1.0000 0.22580  0.24010  0.86440  Biso   1.000  H
  H96      1.0000 0.07110  0.14020  0.79960  Biso   1.000  H
  H97      1.0000 0.09310  0.38830  0.06720  Biso   1.000  H
  H98      1.0000 0.09540  0.41160  0.01180  Biso   1.000  H
  H99      1.0000 0.22530  0.43920  0.07340  Biso   1.000  H
  H100     1.0000 0.10690  0.27060  0.24900  Biso   1.000  H
  H101     1.0000 0.05450  0.32140  0.32060  Biso   1.000  H
  H102     1.0000 0.12960  0.55510  0.64480  Biso   1.000  H
  H103     1.0000 0.16040  0.48120  0.47320  Biso   1.000  H
  H104     1.0000 0.26560  0.42880  0.48340  Biso   1.000  H
  H105     1.0000 0.30670  0.50930  0.52680  Biso   1.000  H
  H106     1.0000 0.08800  0.38370  0.53600  Biso   1.000  H
  H107     1.0000 0.95040  0.43140  0.54640  Biso   1.000  H
  H108     1.0000 0.06540  0.44350  0.60960  Biso   1.000  H
  H109     1.0000 0.10090  0.10480  0.54940  Biso   1.000  H
  H110     1.0000 0.04140  0.14800  0.52780  Biso   1.000  H
  H111     1.0000 0.89470  0.32790  0.55840  Biso   1.000  H
  H112     1.0000 0.75270  0.27460  0.52980  Biso   1.000  H
  H113     1.0000 0.97920  0.20760  0.66160  Biso   1.000  H
  H114     1.0000 0.88370  0.23840  0.76300  Biso   1.000  H
  H115     1.0000 0.63850  0.38020  0.74260  Biso   1.000  H
  H116     1.0000 0.72970  0.34950  0.64060  Biso   1.000  H
  H117     1.0000 0.85960  0.29680  0.87080  Biso   1.000  H
  H118     1.0000 0.75110  0.34210  0.92460  Biso   1.000  H
  H119     1.0000 0.86180  0.37750  0.89900  Biso   1.000  H
  H120     1.0000 0.55340  0.40280  0.89820  Biso   1.000  H
  H121     1.0000 0.50130  0.38630  0.82300  Biso   1.000  H
  H122     1.0000 0.65330  0.43100  0.86240  Biso   1.000  H
  H123     1.0000 0.69680  0.21200  0.84520  Biso   1.000  H
  H124     1.0000 0.55270  0.10910  0.79660  Biso   1.000  H
  H125     1.0000 0.25680  0.18430  0.70580  Biso   1.000  H
  H126     1.0000 0.40390  0.28580  0.75300  Biso   1.000  H
  H127     1.0000 0.51610  0.24900  0.22260  Biso   1.000  H
  H128     1.0000 0.63060  0.31480  0.25500  Biso   1.000  H
  H129     1.0000 0.63740  0.21960  0.03720  Biso   1.000  H
  H130     1.0000 0.48090  0.25320  0.97180  Biso   1.000  H
  H131     1.0000 0.27420  0.37570  0.13560  Biso   1.000  H
  H132     1.0000 0.42890  0.34060  0.20040  Biso   1.000  H
  H133     1.0000 0.40690  0.32110  0.93280  Biso   1.000  H
  H134     1.0000 0.40460  0.39980  0.98820  Biso   1.000  H
  H135     1.0000 0.27470  0.36580  0.92660  Biso   1.000  H
  H136     1.0000 0.39310  0.02160  0.75100  Biso   1.000  H
  H137     1.0000 0.44550  0.00080  0.67940  Biso   1.000  H
  H138     1.0000 0.37040  0.91030  0.35520  Biso   1.000  H
  H139     1.0000 0.33960  0.00800  0.52680  Biso   1.000  H
  H140     1.0000 0.23440  0.94540  0.51660  Biso   1.000  H
  H141     1.0000 0.19330  0.98250  0.47320  Biso   1.000  H
  H142     1.0000 0.41200  0.84770  0.46400  Biso   1.000  H
  H143     1.0000 0.54960  0.88500  0.45360  Biso   1.000  H
  H144     1.0000 0.43460  0.83390  0.39040  Biso   1.000  H
  C1       1.0000 0.42070  0.22559  0.46758  Biso   1.000  C
  C2       1.0000 0.36310  0.25717  0.53594  Biso   1.000  C
  C3       1.0000 0.36150  0.36478  0.63876  Biso   1.000  C
  C4       1.0000 0.40900  0.43531  0.67722  Biso   1.000  C
  C5       1.0000 0.35200  0.47755  0.73850  Biso   1.000  C
  C6       1.0000 0.24960  0.45195  0.76430  Biso   1.000  C
  C7       1.0000 0.20630  0.38130  0.72620  Biso   1.000  C
  C8       1.0000 0.26090  0.33825  0.66470  Biso   1.000  C
  C9       1.0000 0.17590  0.50260  0.82820  Biso   1.000  C
  C10      1.0000 0.29850  0.54950  0.88600  Biso   1.000  C
  C11      1.0000 0.08760  0.46277  0.85554  Biso   1.000  C
  C12      1.0000 0.06970  0.54394  0.80468  Biso   1.000  C
  C13      1.0000 0.10850  0.60985  0.81630  Biso   1.000  C
  C14      1.0000 0.02300  0.64285  0.78710  Biso   1.000  C
  C15      1.0000 0.89240  0.60845  0.74350  Biso   1.000  C
  C16      1.0000 0.84760  0.54369  0.73298  Biso   1.000  C
  C17      1.0000 0.93500  0.51160  0.76200  Biso   1.000  C
  C18      1.0000 0.22960  0.02031  0.24902  Biso   1.000  C
  C19      1.0000 0.11930  0.95904  0.22388  Biso   1.000  C
  C20      1.0000 0.04800  0.84857  0.12474  Biso   1.000  C
  C21      1.0000 0.06320  0.80617  0.05694  Biso   1.000  C
  C22      1.0000 0.96930  0.74653  0.01786  Biso   1.000  C
  C23      1.0000 0.85670  0.72719  0.04598  Biso   1.000  C
  C24      1.0000 0.84660  0.77127  0.11494  Biso   1.000  C
  C25      1.0000 0.93960  0.83140  0.15440  Biso   1.000  C
  C26      1.0000 0.84280  0.59999  0.95798  Biso   1.000  C
  C27      1.0000 0.73890  0.71781  0.67122  Biso   1.000  C
  C28      1.0000 0.85860  0.69210  0.70520  Biso   1.000  C
  C29      1.0000 0.83050  0.45690  0.39580  Biso   1.000  C
  C30      1.0000 0.77500  0.52600  0.49400  Biso   1.000  C
  C31      1.0000 0.94500  0.56990  0.43820  Biso   1.000  C
  C32      1.0000 0.07930  0.75801  0.53242  Biso   1.000  C
  C33      1.0000 0.13690  0.72123  0.46406  Biso   1.000  C
  C34      1.0000 0.13850  0.72602  0.36124  Biso   1.000  C
  C35      1.0000 0.09100  0.75809  0.32278  Biso   1.000  C
  C36      1.0000 0.14800  0.73905  0.26150  Biso   1.000  C
  C37      1.0000 0.25040  0.68765  0.23570  Biso   1.000  C
  C38      1.0000 0.29370  0.65510  0.27380  Biso   1.000  C
  C39      1.0000 0.23910  0.67355  0.33530  Biso   1.000  C
  C40      1.0000 0.32410  0.67440  0.17180  Biso   1.000  C
  C41      1.0000 0.20150  0.66350  0.11400  Biso   1.000  C
  C42      1.0000 0.41240  0.60723  0.14446  Biso   1.000  C
  C43      1.0000 0.43030  0.73926  0.19532  Biso   1.000  C
  C44      1.0000 0.39150  0.79355  0.18370  Biso   1.000  C
  C45      1.0000 0.47700  0.85575  0.21290  Biso   1.000  C
  C46      1.0000 0.60760  0.86495  0.25650  Biso   1.000  C
  C47      1.0000 0.65240  0.81071  0.26702  Biso   1.000  C
  C48      1.0000 0.56500  0.74960  0.23800  Biso   1.000  C
  C49      1.0000 0.27040  0.77129  0.75098  Biso   1.000  C
  C50      1.0000 0.38070  0.73516  0.77612  Biso   1.000  C
  C51      1.0000 0.45200  0.72383  0.87526  Biso   1.000  C
  C52      1.0000 0.43680  0.74923  0.94306  Biso   1.000  C
  C53      1.0000 0.53070  0.72867  0.98214  Biso   1.000  C
  C54      1.0000 0.64330  0.68121  0.95402  Biso   1.000  C
  C55      1.0000 0.65340  0.65633  0.88506  Biso   1.000  C
  C56      1.0000 0.56040  0.67700  0.84560  Biso   1.000  C
  C57      1.0000 0.65720  0.64201  0.04202  Biso   1.000  C
  C58      1.0000 0.76110  0.04659  0.32878  Biso   1.000  C
  C59      1.0000 0.64140  0.98690  0.29480  Biso   1.000  C
  C60      1.0000 0.66950  0.06110  0.60420  Biso   1.000  C
  C61      1.0000 0.72500  0.03200  0.50600  Biso   1.000  C
  C62      1.0000 0.55500  0.13170  0.56180  Biso   1.000  C
  C63      1.0000 0.57930  0.77441  0.53242  Biso   1.000  C
  C64      1.0000 0.63690  0.74283  0.46406  Biso   1.000  C
  C65      1.0000 0.63850  0.63522  0.36124  Biso   1.000  C
  C66      1.0000 0.59100  0.56469  0.32278  Biso   1.000  C
  C67      1.0000 0.64800  0.52245  0.26150  Biso   1.000  C
  C68      1.0000 0.75040  0.54805  0.23570  Biso   1.000  C
  C69      1.0000 0.79370  0.61870  0.27380  Biso   1.000  C
  C70      1.0000 0.73910  0.66175  0.33530  Biso   1.000  C
  C71      1.0000 0.82410  0.49740  0.17180  Biso   1.000  C
  C72      1.0000 0.70150  0.45050  0.11400  Biso   1.000  C
  C73      1.0000 0.91240  0.53723  0.14446  Biso   1.000  C
  C74      1.0000 0.93030  0.45606  0.19532  Biso   1.000  C
  C75      1.0000 0.89150  0.39015  0.18370  Biso   1.000  C
  C76      1.0000 0.97700  0.35715  0.21290  Biso   1.000  C
  C77      1.0000 0.10760  0.39155  0.25650  Biso   1.000  C
  C78      1.0000 0.15240  0.45631  0.26702  Biso   1.000  C
  C79      1.0000 0.06500  0.48840  0.23800  Biso   1.000  C
  C80      1.0000 0.77040  0.97969  0.75098  Biso   1.000  C
  C81      1.0000 0.88070  0.04096  0.77612  Biso   1.000  C
  C82      1.0000 0.95200  0.15143  0.87526  Biso   1.000  C
  C83      1.0000 0.93680  0.19383  0.94306  Biso   1.000  C
  C84      1.0000 0.03070  0.25347  0.98214  Biso   1.000  C
  C85      1.0000 0.14330  0.27281  0.95402  Biso   1.000  C
  C86      1.0000 0.15340  0.22873  0.88506  Biso   1.000  C
  C87      1.0000 0.06040  0.16860  0.84560  Biso   1.000  C
  C88      1.0000 0.15720  0.40001  0.04202  Biso   1.000  C
  C89      1.0000 0.26110  0.28219  0.32878  Biso   1.000  C
  C90      1.0000 0.14140  0.30790  0.29480  Biso   1.000  C
  C91      1.0000 0.16950  0.54310  0.60420  Biso   1.000  C
  C92      1.0000 0.22500  0.47400  0.50600  Biso   1.000  C
  C93      1.0000 0.05500  0.43010  0.56180  Biso   1.000  C
  C94      1.0000 0.92070  0.24199  0.46758  Biso   1.000  C
  C95      1.0000 0.86310  0.27877  0.53594  Biso   1.000  C
  C96      1.0000 0.86150  0.27398  0.63876  Biso   1.000  C
  C97      1.0000 0.90900  0.24191  0.67722  Biso   1.000  C
  C98      1.0000 0.85200  0.26095  0.73850  Biso   1.000  C
  C99      1.0000 0.74960  0.31235  0.76430  Biso   1.000  C
  C100     1.0000 0.70630  0.34490  0.72620  Biso   1.000  C
  C101     1.0000 0.76090  0.32645  0.66470  Biso   1.000  C
  C102     1.0000 0.67590  0.32560  0.82820  Biso   1.000  C
  C103     1.0000 0.79850  0.33650  0.88600  Biso   1.000  C
  C104     1.0000 0.58760  0.39277  0.85554  Biso   1.000  C
  C105     1.0000 0.56970  0.26074  0.80468  Biso   1.000  C
  C106     1.0000 0.60850  0.20645  0.81630  Biso   1.000  C
  C107     1.0000 0.52300  0.14425  0.78710  Biso   1.000  C
  C108     1.0000 0.39240  0.13505  0.74350  Biso   1.000  C
  C109     1.0000 0.34760  0.18929  0.73298  Biso   1.000  C
  C110     1.0000 0.43500  0.25040  0.76200  Biso   1.000  C
  C111     1.0000 0.72960  0.22871  0.24902  Biso   1.000  C
  C112     1.0000 0.61930  0.26484  0.22388  Biso   1.000  C
  C113     1.0000 0.54800  0.27617  0.12474  Biso   1.000  C
  C114     1.0000 0.56320  0.25077  0.05694  Biso   1.000  C
  C115     1.0000 0.46930  0.27133  0.01786  Biso   1.000  C
  C116     1.0000 0.35670  0.31879  0.04598  Biso   1.000  C
  C117     1.0000 0.34660  0.34367  0.11494  Biso   1.000  C
  C118     1.0000 0.43960  0.32300  0.15440  Biso   1.000  C
  C119     1.0000 0.34280  0.35799  0.95798  Biso   1.000  C
  C120     1.0000 0.23890  0.95341  0.67122  Biso   1.000  C
  C121     1.0000 0.35860  0.01310  0.70520  Biso   1.000  C
  C122     1.0000 0.33050  0.93890  0.39580  Biso   1.000  C
  C123     1.0000 0.27500  0.96800  0.49400  Biso   1.000  C
  C124     1.0000 0.44500  0.86830  0.43820  Biso   1.000  C
  C125     1.0000 0.75000  0.66270  0.00000  Biso   1.000  C
  C126     1.0000 0.25000  0.33730  0.00000  Biso   1.000  C
  N1       1.0000 0.85310  0.52248  0.44776  Biso   1.000  N
  N2       1.0000 0.64690  0.07472  0.55224  Biso   1.000  N
  N3       1.0000 0.14690  0.47752  0.55224  Biso   1.000  N
  N4       1.0000 0.35310  0.92528  0.44776  Biso   1.000  N
  O1       1.0000 0.50830  0.25946  0.45368  Biso   1.000  O
  O2       1.0000 0.36850  0.16364  0.42622  Biso   1.000  O
  O3       1.0000 0.19760  0.07674  0.29972  Biso   1.000  O
  O4       1.0000 0.34640  0.01478  0.22116  Biso   1.000  O
  O5       1.0000 0.41950  0.32765  0.57794  Biso   1.000  O
  O6       1.0000 0.79940  0.63438  0.70858  Biso   1.000  O
  O7       1.0000 0.14590  0.90711  0.15762  Biso   1.000  O
  O8       1.0000 0.60800  0.69200  0.65444  Biso   1.000  O
  O9       1.0000 0.78750  0.76834  0.66454  Biso   1.000  O
  O10      1.0000 0.75690  0.41179  0.40098  Biso   1.000  O
  O11      1.0000 0.62230  0.40194  0.52968  Biso   1.000  O
  O12      1.0000 0.99170  0.80578  0.54632  Biso   1.000  O
  O13      1.0000 0.13150  0.73742  0.57378  Biso   1.000  O
  O14      1.0000 0.30240  0.77702  0.70028  Biso   1.000  O
  O15      1.0000 0.15360  0.79362  0.77884  Biso   1.000  O
  O16      1.0000 0.08050  0.74971  0.42206  Biso   1.000  O
  O17      1.0000 0.70060  0.92580  0.29142  Biso   1.000  O
  O18      1.0000 0.35410  0.74949  0.84238  Biso   1.000  O
  O19      1.0000 0.89200  0.03756  0.34556  Biso   1.000  O
  O20      1.0000 0.71250  0.10380  0.33546  Biso   1.000  O
  O21      1.0000 0.74310  0.01081  0.59902  Biso   1.000  O
  O22      1.0000 0.87770  0.87226  0.47032  Biso   1.000  O
  O23      1.0000 0.49170  0.74054  0.54632  Biso   1.000  O
  O24      1.0000 0.63150  0.83636  0.57378  Biso   1.000  O
  O25      1.0000 0.80240  0.92326  0.70028  Biso   1.000  O
  O26      1.0000 0.65360  0.98522  0.77884  Biso   1.000  O
  O27      1.0000 0.58050  0.67235  0.42206  Biso   1.000  O
  O28      1.0000 0.20060  0.36562  0.29142  Biso   1.000  O
  O29      1.0000 0.85410  0.09289  0.84238  Biso   1.000  O
  O30      1.0000 0.39200  0.30800  0.34556  Biso   1.000  O
  O31      1.0000 0.21250  0.23166  0.33546  Biso   1.000  O
  O32      1.0000 0.24310  0.58821  0.59902  Biso   1.000  O
  O33      1.0000 0.37770  0.59806  0.47032  Biso   1.000  O
  O34      1.0000 0.00830  0.19422  0.45368  Biso   1.000  O
  O35      1.0000 0.86850  0.26258  0.42622  Biso   1.000  O
  O36      1.0000 0.69760  0.22298  0.29972  Biso   1.000  O
  O37      1.0000 0.84640  0.20638  0.22116  Biso   1.000  O
  O38      1.0000 0.91950  0.25029  0.57794  Biso   1.000  O
  O39      1.0000 0.29940  0.07420  0.70858  Biso   1.000  O
  O40      1.0000 0.64590  0.25051  0.15762  Biso   1.000  O
  O41      1.0000 0.10800  0.96244  0.65444  Biso   1.000  O
  O42      1.0000 0.28750  0.89620  0.66454  Biso   1.000  O
  O43      1.0000 0.25690  0.98919  0.40098  Biso   1.000  O
  O44      1.0000 0.12230  0.12774  0.52968  Biso   1.000  O
