data_image0
_cell_length_a       6.889
_cell_length_b       11.606
_cell_length_c       23.851
_cell_angle_alpha    90
_cell_angle_beta     90
_cell_angle_gamma    96.082

_symmetry_space_group_name_H-M    P 1
_symmetry_int_tables_number       1

loop_
  _symmetry_equiv_pos_as_xyz
  'x, y, z'

loop_
  _atom_site_label
  _atom_site_occupancy
  _atom_site_fract_x
  _atom_site_fract_y
  _atom_site_fract_z
  _atom_site_thermal_displace_type
  _atom_site_B_iso_or_equiv
  _atom_site_type_symbol
  Zn1      1.0000 0.13126  0.14180  0.48184  Biso   1.000  Zn
  Zn2      1.0000 0.86874  0.35820  0.98184  Biso   1.000  Zn
  Zn3      1.0000 0.86874  0.85820  0.51815  Biso   1.000  Zn
  Zn4      1.0000 0.13126  0.64180  0.01815  Biso   1.000  Zn
  H1       1.0000 0.52140  0.44640  0.58550  Biso   1.000  H
  H2       1.0000 0.84320  0.50780  0.58660  Biso   1.000  H
  H3       1.0000 0.14960  0.60820  0.57320  Biso   1.000  H
  H4       1.0000 0.56990  0.25860  0.45000  Biso   1.000  H
  H5       1.0000 0.22530  0.31970  0.57720  Biso   1.000  H
  H6       1.0000 0.63860  0.31150  0.69940  Biso   1.000  H
  H7       1.0000 0.84070  0.26320  0.62730  Biso   1.000  H
  H8       1.0000 0.44180  0.99990  0.58230  Biso   1.000  H
  H9       1.0000 0.23930  0.04700  0.65490  Biso   1.000  H
  H10      1.0000 0.51080  0.28890  0.78290  Biso   1.000  H
  H11      1.0000 0.31620  0.32900  0.85830  Biso   1.000  H
  H12      1.0000 0.83880  0.18570  0.77630  Biso   1.000  H
  H13      1.0000 0.03220  0.14340  0.70100  Biso   1.000  H
  H14      1.0000 0.47860  0.05360  0.08550  Biso   1.000  H
  H15      1.0000 0.15680  0.99220  0.08660  Biso   1.000  H
  H16      1.0000 0.85040  0.89180  0.07320  Biso   1.000  H
  H17      1.0000 0.43010  0.24140  0.95000  Biso   1.000  H
  H18      1.0000 0.77470  0.18030  0.07720  Biso   1.000  H
  H19      1.0000 0.36140  0.18850  0.19940  Biso   1.000  H
  H20      1.0000 0.15930  0.23680  0.12730  Biso   1.000  H
  H21      1.0000 0.55820  0.50010  0.08230  Biso   1.000  H
  H22      1.0000 0.76070  0.45300  0.15490  Biso   1.000  H
  H23      1.0000 0.48920  0.21110  0.28290  Biso   1.000  H
  H24      1.0000 0.68380  0.17100  0.35830  Biso   1.000  H
  H25      1.0000 0.16120  0.31430  0.27630  Biso   1.000  H
  H26      1.0000 0.96780  0.35660  0.20100  Biso   1.000  H
  H27      1.0000 0.47860  0.55360  0.41450  Biso   1.000  H
  H28      1.0000 0.15680  0.49220  0.41340  Biso   1.000  H
  H29      1.0000 0.85040  0.39180  0.42680  Biso   1.000  H
  H30      1.0000 0.43010  0.74140  0.55000  Biso   1.000  H
  H31      1.0000 0.77470  0.68030  0.42280  Biso   1.000  H
  H32      1.0000 0.36140  0.68850  0.30060  Biso   1.000  H
  H33      1.0000 0.15930  0.73680  0.37270  Biso   1.000  H
  H34      1.0000 0.55820  0.00010  0.41770  Biso   1.000  H
  H35      1.0000 0.76070  0.95300  0.34510  Biso   1.000  H
  H36      1.0000 0.48920  0.71110  0.21710  Biso   1.000  H
  H37      1.0000 0.68380  0.67100  0.14170  Biso   1.000  H
  H38      1.0000 0.16120  0.81430  0.22370  Biso   1.000  H
  H39      1.0000 0.96780  0.85660  0.29900  Biso   1.000  H
  H40      1.0000 0.52140  0.94640  0.91450  Biso   1.000  H
  H41      1.0000 0.84320  0.00780  0.91340  Biso   1.000  H
  H42      1.0000 0.14960  0.10820  0.92680  Biso   1.000  H
  H43      1.0000 0.56990  0.75860  0.05000  Biso   1.000  H
  H44      1.0000 0.22530  0.81970  0.92280  Biso   1.000  H
  H45      1.0000 0.63860  0.81150  0.80060  Biso   1.000  H
  H46      1.0000 0.84070  0.76320  0.87270  Biso   1.000  H
  H47      1.0000 0.44180  0.49990  0.91770  Biso   1.000  H
  H48      1.0000 0.23930  0.54700  0.84510  Biso   1.000  H
  H49      1.0000 0.51080  0.78890  0.71710  Biso   1.000  H
  H50      1.0000 0.31620  0.82900  0.64170  Biso   1.000  H
  H51      1.0000 0.83880  0.68570  0.72370  Biso   1.000  H
  H52      1.0000 0.03220  0.64340  0.79900  Biso   1.000  H
  C1       1.0000 0.81430  0.43900  0.50803  Biso   1.000  C
  C2       1.0000 0.90620  0.50430  0.55130  Biso   1.000  C
  C3       1.0000 0.08890  0.56410  0.54324  Biso   1.000  C
  C4       1.0000 0.62100  0.37530  0.51470  Biso   1.000  C
  C5       1.0000 0.52210  0.29090  0.48320  Biso   1.000  C
  C6       1.0000 0.33340  0.32380  0.55226  Biso   1.000  C
  C7       1.0000 0.41850  0.18280  0.68570  Biso   1.000  C
  C8       1.0000 0.59840  0.24700  0.67605  Biso   1.000  C
  C9       1.0000 0.71880  0.21830  0.63306  Biso   1.000  C
  C10      1.0000 0.66410  0.12520  0.59845  Biso   1.000  C
  C11      1.0000 0.48310  0.06260  0.60654  Biso   1.000  C
  C12      1.0000 0.36240  0.09100  0.64976  Biso   1.000  C
  C13      1.0000 0.79920  0.09110  0.55350  Biso   1.000  C
  C14      1.0000 0.29300  0.21040  0.73363  Biso   1.000  C
  C15      1.0000 0.37400  0.26700  0.78130  Biso   1.000  C
  C16      1.0000 0.25770  0.29150  0.82617  Biso   1.000  C
  C17      1.0000 0.05700  0.26210  0.82503  Biso   1.000  C
  C18      1.0000 0.97580  0.20670  0.77788  Biso   1.000  C
  C19      1.0000 0.09150  0.18140  0.73293  Biso   1.000  C
  C20      1.0000 0.93260  0.28950  0.87415  Biso   1.000  C
  C21      1.0000 0.18570  0.06100  0.00803  Biso   1.000  C
  C22      1.0000 0.09380  0.99570  0.05130  Biso   1.000  C
  C23      1.0000 0.91110  0.93590  0.04324  Biso   1.000  C
  C24      1.0000 0.37900  0.12470  0.01470  Biso   1.000  C
  C25      1.0000 0.47790  0.20910  0.98320  Biso   1.000  C
  C26      1.0000 0.66660  0.17620  0.05226  Biso   1.000  C
  C27      1.0000 0.58150  0.31720  0.18570  Biso   1.000  C
  C28      1.0000 0.40160  0.25300  0.17605  Biso   1.000  C
  C29      1.0000 0.28120  0.28170  0.13306  Biso   1.000  C
  C30      1.0000 0.33590  0.37480  0.09845  Biso   1.000  C
  C31      1.0000 0.51690  0.43740  0.10654  Biso   1.000  C
  C32      1.0000 0.63760  0.40900  0.14976  Biso   1.000  C
  C33      1.0000 0.20080  0.40890  0.05350  Biso   1.000  C
  C34      1.0000 0.70700  0.28960  0.23363  Biso   1.000  C
  C35      1.0000 0.62600  0.23300  0.28130  Biso   1.000  C
  C36      1.0000 0.74230  0.20850  0.32617  Biso   1.000  C
  C37      1.0000 0.94300  0.23790  0.32503  Biso   1.000  C
  C38      1.0000 0.02420  0.29330  0.27788  Biso   1.000  C
  C39      1.0000 0.90850  0.31860  0.23293  Biso   1.000  C
  C40      1.0000 0.06740  0.21050  0.37415  Biso   1.000  C
  C41      1.0000 0.18570  0.56100  0.49197  Biso   1.000  C
  C42      1.0000 0.09380  0.49570  0.44870  Biso   1.000  C
  C43      1.0000 0.91110  0.43590  0.45676  Biso   1.000  C
  C44      1.0000 0.37900  0.62470  0.48530  Biso   1.000  C
  C45      1.0000 0.47790  0.70910  0.51680  Biso   1.000  C
  C46      1.0000 0.66660  0.67620  0.44774  Biso   1.000  C
  C47      1.0000 0.58150  0.81720  0.31430  Biso   1.000  C
  C48      1.0000 0.40160  0.75300  0.32395  Biso   1.000  C
  C49      1.0000 0.28120  0.78170  0.36694  Biso   1.000  C
  C50      1.0000 0.33590  0.87480  0.40155  Biso   1.000  C
  C51      1.0000 0.51690  0.93740  0.39346  Biso   1.000  C
  C52      1.0000 0.63760  0.90900  0.35024  Biso   1.000  C
  C53      1.0000 0.20080  0.90890  0.44650  Biso   1.000  C
  C54      1.0000 0.70700  0.78960  0.26637  Biso   1.000  C
  C55      1.0000 0.62600  0.73300  0.21870  Biso   1.000  C
  C56      1.0000 0.74230  0.70850  0.17383  Biso   1.000  C
  C57      1.0000 0.94300  0.73790  0.17497  Biso   1.000  C
  C58      1.0000 0.02420  0.79330  0.22212  Biso   1.000  C
  C59      1.0000 0.90850  0.81860  0.26707  Biso   1.000  C
  C60      1.0000 0.06740  0.71050  0.12585  Biso   1.000  C
  C61      1.0000 0.81430  0.93900  0.99197  Biso   1.000  C
  C62      1.0000 0.90620  0.00430  0.94870  Biso   1.000  C
  C63      1.0000 0.08890  0.06410  0.95676  Biso   1.000  C
  C64      1.0000 0.62100  0.87530  0.98530  Biso   1.000  C
  C65      1.0000 0.52210  0.79090  0.01680  Biso   1.000  C
  C66      1.0000 0.33340  0.82380  0.94774  Biso   1.000  C
  C67      1.0000 0.41850  0.68280  0.81430  Biso   1.000  C
  C68      1.0000 0.59840  0.74700  0.82395  Biso   1.000  C
  C69      1.0000 0.71880  0.71830  0.86694  Biso   1.000  C
  C70      1.0000 0.66410  0.62520  0.90155  Biso   1.000  C
  C71      1.0000 0.48310  0.56260  0.89346  Biso   1.000  C
  C72      1.0000 0.36240  0.59100  0.85024  Biso   1.000  C
  C73      1.0000 0.79920  0.59110  0.94650  Biso   1.000  C
  C74      1.0000 0.29300  0.71040  0.76637  Biso   1.000  C
  C75      1.0000 0.37400  0.76700  0.71870  Biso   1.000  C
  C76      1.0000 0.25770  0.79150  0.67383  Biso   1.000  C
  C77      1.0000 0.05700  0.76210  0.67497  Biso   1.000  C
  C78      1.0000 0.97580  0.70670  0.72212  Biso   1.000  C
  C79      1.0000 0.09150  0.68140  0.76707  Biso   1.000  C
  C80      1.0000 0.93260  0.78950  0.62585  Biso   1.000  C
  N1       1.0000 0.49690  0.39540  0.55843  Biso   1.000  N
  N2       1.0000 0.34200  0.25950  0.50686  Biso   1.000  N
  N3       1.0000 0.50310  0.10460  0.05843  Biso   1.000  N
  N4       1.0000 0.65800  0.24050  0.00686  Biso   1.000  N
  N5       1.0000 0.50310  0.60460  0.44157  Biso   1.000  N
  N6       1.0000 0.65800  0.74050  0.49314  Biso   1.000  N
  N7       1.0000 0.49690  0.89540  0.94157  Biso   1.000  N
  N8       1.0000 0.34200  0.75950  0.99314  Biso   1.000  N
  O1       1.0000 0.95890  0.15370  0.54723  Biso   1.000  O
  O2       1.0000 0.74730  0.00138  0.52499  Biso   1.000  O
  O3       1.0000 0.02390  0.34180  0.91492  Biso   1.000  O
  O4       1.0000 0.75340  0.26150  0.87321  Biso   1.000  O
  O5       1.0000 0.04110  0.34630  0.04723  Biso   1.000  O
  O6       1.0000 0.25270  0.49862  0.02499  Biso   1.000  O
  O7       1.0000 0.97610  0.15820  0.41492  Biso   1.000  O
  O8       1.0000 0.24660  0.23850  0.37321  Biso   1.000  O
  O9       1.0000 0.04110  0.84630  0.45277  Biso   1.000  O
  O10      1.0000 0.25270  0.99862  0.47501  Biso   1.000  O
  O11      1.0000 0.97610  0.65820  0.08508  Biso   1.000  O
  O12      1.0000 0.24660  0.73850  0.12679  Biso   1.000  O
  O13      1.0000 0.95890  0.65370  0.95277  Biso   1.000  O
  O14      1.0000 0.74730  0.50138  0.97501  Biso   1.000  O
  O15      1.0000 0.02390  0.84180  0.58508  Biso   1.000  O
  O16      1.0000 0.75340  0.76150  0.62679  Biso   1.000  O
