data_image0
_cell_length_a       7.7563
_cell_length_b       9.6938
_cell_length_c       9.6938
_cell_angle_alpha    114.1
_cell_angle_beta     99.3055
_cell_angle_gamma    80.6945

_symmetry_space_group_name_H-M    P 1
_symmetry_int_tables_number       1

loop_
  _symmetry_equiv_pos_as_xyz
  'x, y, z'

loop_
  _atom_site_label
  _atom_site_occupancy
  _atom_site_fract_x
  _atom_site_fract_y
  _atom_site_fract_z
  _atom_site_thermal_displace_type
  _atom_site_B_iso_or_equiv
  _atom_site_type_symbol
  Mn1      1.0000 0.52501  0.44554  0.11214  Biso   1.000  Mn
  Mn2      1.0000 0.02501  0.88786  0.55446  Biso   1.000  Mn
  H1       1.0000 0.86760  0.47970  0.73470  Biso   1.000  H
  H2       1.0000 0.01740  0.25360  0.73940  Biso   1.000  H
  H3       1.0000 0.83400  0.02700  0.31880  Biso   1.000  H
  H4       1.0000 0.67620  0.24130  0.30010  Biso   1.000  H
  H5       1.0000 0.66550  0.67880  0.72460  Biso   1.000  H
  H6       1.0000 0.38580  0.19070  0.92970  Biso   1.000  H
  H7       1.0000 0.28550  0.26210  0.07530  Biso   1.000  H
  H8       1.0000 0.36760  0.26530  0.52030  Biso   1.000  H
  H9       1.0000 0.51740  0.26060  0.74640  Biso   1.000  H
  H10      1.0000 0.33400  0.68120  0.97300  Biso   1.000  H
  H11      1.0000 0.17620  0.69990  0.75870  Biso   1.000  H
  H12      1.0000 0.16550  0.27540  0.32120  Biso   1.000  H
  H13      1.0000 0.88580  0.07030  0.80930  Biso   1.000  H
  H14      1.0000 0.78550  0.92470  0.73790  Biso   1.000  H
  C1       1.0000 0.29630  0.70540  0.32240  Biso   1.000  C
  C2       1.0000 0.43220  0.66930  0.43650  Biso   1.000  C
  C3       1.0000 0.42060  0.90760  0.70640  Biso   1.000  C
  C4       1.0000 0.48190  0.75210  0.59150  Biso   1.000  C
  C5       1.0000 0.85720  0.38910  0.64990  Biso   1.000  C
  C6       1.0000 0.94730  0.25160  0.65140  Biso   1.000  C
  C7       1.0000 0.83830  0.11840  0.40340  Biso   1.000  C
  C8       1.0000 0.74350  0.24700  0.39040  Biso   1.000  C
  C9       1.0000 0.75070  0.38650  0.51650  Biso   1.000  C
  C10      1.0000 0.63880  0.52440  0.50960  Biso   1.000  C
  C11      1.0000 0.79630  0.67760  0.29460  Biso   1.000  C
  C12      1.0000 0.93220  0.56350  0.33070  Biso   1.000  C
  C13      1.0000 0.92060  0.29360  0.09240  Biso   1.000  C
  C14      1.0000 0.98190  0.40850  0.24790  Biso   1.000  C
  C15      1.0000 0.35720  0.35010  0.61090  Biso   1.000  C
  C16      1.0000 0.44730  0.34860  0.74840  Biso   1.000  C
  C17      1.0000 0.33830  0.59660  0.88160  Biso   1.000  C
  C18      1.0000 0.24350  0.60960  0.75300  Biso   1.000  C
  C19      1.0000 0.25070  0.48350  0.61350  Biso   1.000  C
  C20      1.0000 0.13880  0.49040  0.47560  Biso   1.000  C
  N1       1.0000 0.53450  0.52800  0.38700  Biso   1.000  N
  N2       1.0000 0.61120  0.65800  0.63480  Biso   1.000  N
  N3       1.0000 0.93740  0.11710  0.53210  Biso   1.000  N
  N4       1.0000 0.03450  0.61300  0.47200  Biso   1.000  N
  N5       1.0000 0.11120  0.36520  0.34200  Biso   1.000  N
  N6       1.0000 0.43740  0.46790  0.88290  Biso   1.000  N
  O1       1.0000 0.29750  0.61120  0.18700  Biso   1.000  O
  O2       1.0000 0.19120  0.82620  0.36780  Biso   1.000  O
  O3       1.0000 0.25910  0.95410  0.70290  Biso   1.000  O
  O4       1.0000 0.54050  0.97830  0.80210  Biso   1.000  O
  O5       1.0000 0.39900  0.23750  0.03870  Biso   1.000  O
  O6       1.0000 0.79750  0.81300  0.38880  Biso   1.000  O
  O7       1.0000 0.69120  0.63220  0.17380  Biso   1.000  O
  O8       1.0000 0.75910  0.29710  0.04590  Biso   1.000  O
  O9       1.0000 0.04050  0.19790  0.02170  Biso   1.000  O
  O10      1.0000 0.89900  0.96130  0.76250  Biso   1.000  O
