data_image0
_cell_length_a       8.8494
_cell_length_b       10.3728
_cell_length_c       16.9471
_cell_angle_alpha    90
_cell_angle_beta     92.869
_cell_angle_gamma    90

_symmetry_space_group_name_H-M    "P 1"
_symmetry_int_tables_number       1

loop_
  _symmetry_equiv_pos_as_xyz
  'x, y, z'

loop_
  _atom_site_label
  _atom_site_occupancy
  _atom_site_fract_x
  _atom_site_fract_y
  _atom_site_fract_z
  _atom_site_thermal_displace_type
  _atom_site_B_iso_or_equiv
  _atom_site_type_symbol
  O1       1.0000 0.50480  0.18290  0.30780  Biso   1.000  O
  O2       1.0000 0.96230  0.36550  0.16840  Biso   1.000  O
  O3       1.0000 0.71490  0.34200  0.23550  Biso   1.000  O
  O4       1.0000 0.96330  0.29740  0.50360  Biso   1.000  O
  O5       1.0000 0.83080  0.50230  0.45590  Biso   1.000  O
  O6       1.0000 0.72900  0.29320  0.08900  Biso   1.000  O
  O7       1.0000 0.42610  0.19480  0.16090  Biso   1.000  O
  O8       1.0000 0.76030  0.28610  0.39720  Biso   1.000  O
  O9       1.0000 0.01320  0.39710  0.37070  Biso   1.000  O
  O10      1.0000 0.32340  0.01700  0.24580  Biso   1.000  O
  O11      1.0000 0.74670  0.52100  0.13700  Biso   1.000  O
  O12      1.0000 0.24560  0.24840  0.26380  Biso   1.000  O
  Fe1      1.0000 0.72850  0.18230  0.30150  Biso   1.000  Fe
  Fe2      1.0000 0.07070  0.34920  0.26850  Biso   1.000  Fe
  Fe3      1.0000 0.59080  0.15100  0.09610  Biso   1.000  Fe
  P1       1.0000 0.37720  0.15840  0.24430  Biso   1.000  P
  P2       1.0000 0.78740  0.38080  0.15860  Biso   1.000  P
  P3       1.0000 0.89170  0.36880  0.43160  Biso   1.000  P
  F1       1.0000 0.95130  0.18300  0.28440  Biso   1.000  F
  F2       1.0000 0.70550  0.08940  0.19720  Biso   1.000  F
  O13      1.0000 0.99520  0.68290  0.19220  Biso   1.000  O
  O14      1.0000 0.53770  0.86550  0.33160  Biso   1.000  O
  O15      1.0000 0.78510  0.84200  0.26450  Biso   1.000  O
  O16      1.0000 0.53670  0.79740  0.99640  Biso   1.000  O
  O17      1.0000 0.66920  0.00230  0.04410  Biso   1.000  O
  O18      1.0000 0.77100  0.79320  0.41100  Biso   1.000  O
  O19      1.0000 0.07390  0.69480  0.33910  Biso   1.000  O
  O20      1.0000 0.73970  0.78610  0.10280  Biso   1.000  O
  O21      1.0000 0.48680  0.89710  0.12930  Biso   1.000  O
  O22      1.0000 0.17660  0.51700  0.25420  Biso   1.000  O
  O23      1.0000 0.75330  0.02100  0.36300  Biso   1.000  O
  O24      1.0000 0.25440  0.74840  0.23620  Biso   1.000  O
  Fe4      1.0000 0.77150  0.68230  0.19850  Biso   1.000  Fe
  Fe5      1.0000 0.42930  0.84920  0.23150  Biso   1.000  Fe
  Fe6      1.0000 0.90920  0.65100  0.40390  Biso   1.000  Fe
  P4       1.0000 0.12280  0.65840  0.25570  Biso   1.000  P
  P5       1.0000 0.71260  0.88080  0.34140  Biso   1.000  P
  P6       1.0000 0.60830  0.86880  0.06840  Biso   1.000  P
  F3       1.0000 0.54870  0.68300  0.21560  Biso   1.000  F
  F4       1.0000 0.79450  0.58940  0.30280  Biso   1.000  F
  O25      1.0000 0.49520  0.81710  0.69220  Biso   1.000  O
  O26      1.0000 0.03770  0.63450  0.83160  Biso   1.000  O
  O27      1.0000 0.28510  0.65800  0.76450  Biso   1.000  O
  O28      1.0000 0.03670  0.70260  0.49640  Biso   1.000  O
  O29      1.0000 0.16920  0.49770  0.54410  Biso   1.000  O
  O30      1.0000 0.27100  0.70680  0.91100  Biso   1.000  O
  O31      1.0000 0.57390  0.80520  0.83910  Biso   1.000  O
  O32      1.0000 0.23970  0.71390  0.60280  Biso   1.000  O
  O33      1.0000 0.98680  0.60290  0.62930  Biso   1.000  O
  O34      1.0000 0.67660  0.98300  0.75420  Biso   1.000  O
  O35      1.0000 0.25330  0.47900  0.86300  Biso   1.000  O
  O36      1.0000 0.75440  0.75160  0.73620  Biso   1.000  O
  Fe7      1.0000 0.27150  0.81770  0.69850  Biso   1.000  Fe
  Fe8      1.0000 0.92930  0.65080  0.73150  Biso   1.000  Fe
  Fe9      1.0000 0.40920  0.84900  0.90390  Biso   1.000  Fe
  P7       1.0000 0.62280  0.84160  0.75570  Biso   1.000  P
  P8       1.0000 0.21260  0.61920  0.84140  Biso   1.000  P
  P9       1.0000 0.10830  0.63120  0.56840  Biso   1.000  P
  F5       1.0000 0.04870  0.81700  0.71560  Biso   1.000  F
  F6       1.0000 0.29450  0.91060  0.80280  Biso   1.000  F
  O37      1.0000 0.00480  0.31710  0.80780  Biso   1.000  O
  O38      1.0000 0.46230  0.13450  0.66840  Biso   1.000  O
  O39      1.0000 0.21490  0.15800  0.73550  Biso   1.000  O
  O40      1.0000 0.46330  0.20260  0.00360  Biso   1.000  O
  O41      1.0000 0.33080  0.99770  0.95590  Biso   1.000  O
  O42      1.0000 0.22900  0.20680  0.58900  Biso   1.000  O
  O43      1.0000 0.92610  0.30520  0.66090  Biso   1.000  O
  O44      1.0000 0.26030  0.21390  0.89720  Biso   1.000  O
  O45      1.0000 0.51320  0.10290  0.87070  Biso   1.000  O
  O46      1.0000 0.82340  0.48300  0.74580  Biso   1.000  O
  O47      1.0000 0.24670  0.97900  0.63700  Biso   1.000  O
  O48      1.0000 0.74560  0.25160  0.76380  Biso   1.000  O
  Fe10     1.0000 0.22850  0.31770  0.80150  Biso   1.000  Fe
  Fe11     1.0000 0.57070  0.15080  0.76850  Biso   1.000  Fe
  Fe12     1.0000 0.09080  0.34900  0.59610  Biso   1.000  Fe
  P10      1.0000 0.87720  0.34160  0.74430  Biso   1.000  P
  P11      1.0000 0.28740  0.11920  0.65860  Biso   1.000  P
  P12      1.0000 0.39170  0.13120  0.93160  Biso   1.000  P
  F7       1.0000 0.45130  0.31700  0.78440  Biso   1.000  F
  F8       1.0000 0.20550  0.41060  0.69720  Biso   1.000  F
