data_image0
_cell_length_a       9.8385
_cell_length_b       11.0629
_cell_length_c       13.5398
_cell_angle_alpha    66.61
_cell_angle_beta     85.898
_cell_angle_gamma    69.717

_symmetry_space_group_name_H-M    P 1
_symmetry_int_tables_number       1

loop_
  _symmetry_equiv_pos_as_xyz
  'x, y, z'

loop_
  _atom_site_label
  _atom_site_occupancy
  _atom_site_fract_x
  _atom_site_fract_y
  _atom_site_fract_z
  _atom_site_thermal_displace_type
  _atom_site_B_iso_or_equiv
  _atom_site_type_symbol
  Co1      1.0000 0.89257  0.02323  0.79748  Biso   1.000  Co
  Co2      1.0000 0.82947  0.05518  0.01434  Biso   1.000  Co
  Co3      1.0000 0.10743  0.97677  0.20252  Biso   1.000  Co
  Co4      1.0000 0.17053  0.94482  0.98566  Biso   1.000  Co
  H1       1.0000 0.95790  0.17200  0.87070  Biso   1.000  H
  H2       1.0000 0.64740  0.74990  0.10400  Biso   1.000  H
  H3       1.0000 0.67010  0.36690  0.12530  Biso   1.000  H
  H4       1.0000 0.87850  0.59130  0.89540  Biso   1.000  H
  H5       1.0000 0.47840  0.58540  0.33450  Biso   1.000  H
  H6       1.0000 0.58180  0.66710  0.26570  Biso   1.000  H
  H7       1.0000 0.79230  0.82930  0.23120  Biso   1.000  H
  H8       1.0000 0.64190  0.80510  0.36950  Biso   1.000  H
  H9       1.0000 0.39560  0.21180  0.21600  Biso   1.000  H
  H10      1.0000 0.55370  0.22700  0.07940  Biso   1.000  H
  H11      1.0000 0.44190  0.89160  0.45990  Biso   1.000  H
  H12      1.0000 0.24920  0.15790  0.34440  Biso   1.000  H
  H13      1.0000 0.29470  0.83120  0.59170  Biso   1.000  H
  H14      1.0000 0.13590  0.82160  0.73450  Biso   1.000  H
  H15      1.0000 0.91910  0.22410  0.57940  Biso   1.000  H
  H16      1.0000 0.06520  0.24460  0.44100  Biso   1.000  H
  H17      1.0000 0.04210  0.82800  0.12930  Biso   1.000  H
  H18      1.0000 0.35260  0.25010  0.89600  Biso   1.000  H
  H19      1.0000 0.32990  0.63310  0.87470  Biso   1.000  H
  H20      1.0000 0.12150  0.40870  0.10460  Biso   1.000  H
  H21      1.0000 0.52160  0.41460  0.66550  Biso   1.000  H
  H22      1.0000 0.41820  0.33290  0.73430  Biso   1.000  H
  H23      1.0000 0.20770  0.17070  0.76880  Biso   1.000  H
  H24      1.0000 0.35810  0.19490  0.63050  Biso   1.000  H
  H25      1.0000 0.60440  0.78820  0.78400  Biso   1.000  H
  H26      1.0000 0.44630  0.77300  0.92060  Biso   1.000  H
  H27      1.0000 0.55810  0.10840  0.54010  Biso   1.000  H
  H28      1.0000 0.75080  0.84210  0.65560  Biso   1.000  H
  H29      1.0000 0.70530  0.16880  0.40830  Biso   1.000  H
  H30      1.0000 0.86410  0.17840  0.26550  Biso   1.000  H
  H31      1.0000 0.08090  0.77590  0.42060  Biso   1.000  H
  H32      1.0000 0.93480  0.75540  0.55900  Biso   1.000  H
  C1       1.0000 0.81130  0.81530  0.94420  Biso   1.000  C
  C2       1.0000 0.77150  0.68670  0.99460  Biso   1.000  C
  C3       1.0000 0.68190  0.67640  0.07900  Biso   1.000  C
  C4       1.0000 0.64290  0.55740  0.12690  Biso   1.000  C
  C5       1.0000 0.69620  0.44830  0.09170  Biso   1.000  C
  C6       1.0000 0.78750  0.45780  0.00770  Biso   1.000  C
  C7       1.0000 0.82170  0.58080  0.95600  Biso   1.000  C
  C8       1.0000 0.50240  0.63380  0.26030  Biso   1.000  C
  C9       1.0000 0.36920  0.76100  0.19980  Biso   1.000  C
  C10      1.0000 0.84540  0.33570  0.97380  Biso   1.000  C
  C11      1.0000 0.71050  0.90870  0.22750  Biso   1.000  C
  C12      1.0000 0.62100  0.89360  0.31040  Biso   1.000  C
  C13      1.0000 0.50110  0.00530  0.30900  Biso   1.000  C
  C14      1.0000 0.47690  0.13140  0.22080  Biso   1.000  C
  C15      1.0000 0.57200  0.13970  0.13930  Biso   1.000  C
  C16      1.0000 0.40860  0.98000  0.40040  Biso   1.000  C
  C17      1.0000 0.28480  0.07070  0.40470  Biso   1.000  C
  C18      1.0000 0.19420  0.04470  0.50070  Biso   1.000  C
  C19      1.0000 0.21760  0.91330  0.58920  Biso   1.000  C
  C20      1.0000 0.12220  0.90790  0.67430  Biso   1.000  C
  C21      1.0000 0.99760  0.14240  0.58290  Biso   1.000  C
  C22      1.0000 0.08370  0.15610  0.49970  Biso   1.000  C
  C23      1.0000 0.18870  0.18470  0.05580  Biso   1.000  C
  C24      1.0000 0.22850  0.31330  0.00540  Biso   1.000  C
  C25      1.0000 0.31810  0.32360  0.92100  Biso   1.000  C
  C26      1.0000 0.35710  0.44260  0.87310  Biso   1.000  C
  C27      1.0000 0.30380  0.55170  0.90830  Biso   1.000  C
  C28      1.0000 0.21250  0.54220  0.99230  Biso   1.000  C
  C29      1.0000 0.17830  0.41920  0.04400  Biso   1.000  C
  C30      1.0000 0.49760  0.36620  0.73970  Biso   1.000  C
  C31      1.0000 0.63080  0.23900  0.80020  Biso   1.000  C
  C32      1.0000 0.15460  0.66430  0.02620  Biso   1.000  C
  C33      1.0000 0.28950  0.09130  0.77250  Biso   1.000  C
  C34      1.0000 0.37900  0.10640  0.68960  Biso   1.000  C
  C35      1.0000 0.49890  0.99470  0.69100  Biso   1.000  C
  C36      1.0000 0.52310  0.86860  0.77920  Biso   1.000  C
  C37      1.0000 0.42800  0.86030  0.86070  Biso   1.000  C
  C38      1.0000 0.59140  0.02000  0.59960  Biso   1.000  C
  C39      1.0000 0.71520  0.92930  0.59530  Biso   1.000  C
  C40      1.0000 0.80580  0.95530  0.49930  Biso   1.000  C
  C41      1.0000 0.78240  0.08670  0.41080  Biso   1.000  C
  C42      1.0000 0.87780  0.09210  0.32570  Biso   1.000  C
  C43      1.0000 0.00240  0.85760  0.41710  Biso   1.000  C
  C44      1.0000 0.91630  0.84390  0.50030  Biso   1.000  C
  N1       1.0000 0.68870  0.02960  0.14150  Biso   1.000  N
  N2       1.0000 0.01340  0.02440  0.66940  Biso   1.000  N
  N3       1.0000 0.31130  0.97040  0.85850  Biso   1.000  N
  N4       1.0000 0.98660  0.97560  0.33060  Biso   1.000  N
  O1       1.0000 0.86420  0.84040  0.85330  Biso   1.000  O
  O2       1.0000 0.79010  0.89140  0.99650  Biso   1.000  O
  O3       1.0000 0.55410  0.53440  0.21120  Biso   1.000  O
  O4       1.0000 0.29500  0.82000  0.25930  Biso   1.000  O
  O5       1.0000 0.34530  0.79430  0.10230  Biso   1.000  O
  O6       1.0000 0.84100  0.22030  0.04290  Biso   1.000  O
  O7       1.0000 0.89030  0.35470  0.88180  Biso   1.000  O
  O8       1.0000 0.97750  0.07940  0.89040  Biso   1.000  O
  O9       1.0000 0.13580  0.15960  0.14670  Biso   1.000  O
  O10      1.0000 0.20990  0.10860  0.00350  Biso   1.000  O
  O11      1.0000 0.44590  0.46560  0.78880  Biso   1.000  O
  O12      1.0000 0.70500  0.18000  0.74070  Biso   1.000  O
  O13      1.0000 0.65470  0.20570  0.89770  Biso   1.000  O
  O14      1.0000 0.15900  0.77970  0.95710  Biso   1.000  O
  O15      1.0000 0.10970  0.64530  0.11820  Biso   1.000  O
  O16      1.0000 0.02250  0.92060  0.10960  Biso   1.000  O
