data_image0
_cell_length_a       7.72
_cell_length_b       21.25
_cell_length_c       21.25
_cell_angle_alpha    120
_cell_angle_beta     90
_cell_angle_gamma    90

_symmetry_space_group_name_H-M    P 1
_symmetry_int_tables_number       1

loop_
  _symmetry_equiv_pos_as_xyz
  'x, y, z'

loop_
  _atom_site_label
  _atom_site_occupancy
  _atom_site_fract_x
  _atom_site_fract_y
  _atom_site_fract_z
  _atom_site_thermal_displace_type
  _atom_site_B_iso_or_equiv
  _atom_site_type_symbol
  Zn1      1.0000 0.83333  0.59806  0.29903  Biso   1.000  Zn
  Zn2      1.0000 0.16667  0.70097  0.40194  Biso   1.000  Zn
  Zn3      1.0000 0.50000  0.70097  0.29903  Biso   1.000  Zn
  Zn4      1.0000 0.83333  0.40194  0.70097  Biso   1.000  Zn
  Zn5      1.0000 0.16667  0.29903  0.59806  Biso   1.000  Zn
  Zn6      1.0000 0.50000  0.29903  0.70097  Biso   1.000  Zn
  H1       1.0000 0.72440  0.74640  0.15430  Biso   1.000  H
  H2       1.0000 0.84710  0.76400  0.06500  Biso   1.000  H
  H3       1.0000 0.14080  0.63760  0.15680  Biso   1.000  H
  H4       1.0000 0.26740  0.65690  0.06960  Biso   1.000  H
  H5       1.0000 0.05773  0.40790  0.25360  Biso   1.000  H
  H6       1.0000 0.18043  0.30100  0.23600  Biso   1.000  H
  H7       1.0000 0.47413  0.51920  0.36240  Biso   1.000  H
  H8       1.0000 0.60073  0.41270  0.34310  Biso   1.000  H
  H9       1.0000 0.39107  0.84570  0.59210  Biso   1.000  H
  H10      1.0000 0.51377  0.93500  0.69900  Biso   1.000  H
  H11      1.0000 0.80747  0.84320  0.48080  Biso   1.000  H
  H12      1.0000 0.93407  0.93040  0.58730  Biso   1.000  H
  H13      1.0000 0.72440  0.25360  0.84570  Biso   1.000  H
  H14      1.0000 0.84710  0.23600  0.93500  Biso   1.000  H
  H15      1.0000 0.14080  0.36240  0.84320  Biso   1.000  H
  H16      1.0000 0.26740  0.34310  0.93040  Biso   1.000  H
  H17      1.0000 0.05773  0.59210  0.74640  Biso   1.000  H
  H18      1.0000 0.18043  0.69900  0.76400  Biso   1.000  H
  H19      1.0000 0.47413  0.48080  0.63760  Biso   1.000  H
  H20      1.0000 0.60073  0.58730  0.65690  Biso   1.000  H
  H21      1.0000 0.39107  0.15430  0.40790  Biso   1.000  H
  H22      1.0000 0.51377  0.06500  0.30100  Biso   1.000  H
  H23      1.0000 0.80747  0.15680  0.51920  Biso   1.000  H
  H24      1.0000 0.93407  0.06960  0.41270  Biso   1.000  H
  H25      1.0000 0.60893  0.59210  0.84570  Biso   1.000  H
  H26      1.0000 0.48623  0.69900  0.93500  Biso   1.000  H
  H27      1.0000 0.19253  0.48080  0.84320  Biso   1.000  H
  H28      1.0000 0.06593  0.58730  0.93040  Biso   1.000  H
  H29      1.0000 0.27560  0.15430  0.74640  Biso   1.000  H
  H30      1.0000 0.15290  0.06500  0.76400  Biso   1.000  H
  H31      1.0000 0.85920  0.15680  0.63760  Biso   1.000  H
  H32      1.0000 0.73260  0.06960  0.65690  Biso   1.000  H
  H33      1.0000 0.94227  0.25360  0.40790  Biso   1.000  H
  H34      1.0000 0.81957  0.23600  0.30100  Biso   1.000  H
  H35      1.0000 0.52587  0.36240  0.51920  Biso   1.000  H
  H36      1.0000 0.39927  0.34310  0.41270  Biso   1.000  H
  H37      1.0000 0.60893  0.40790  0.15430  Biso   1.000  H
  H38      1.0000 0.48623  0.30100  0.06500  Biso   1.000  H
  H39      1.0000 0.19253  0.51920  0.15680  Biso   1.000  H
  H40      1.0000 0.06593  0.41270  0.06960  Biso   1.000  H
  H41      1.0000 0.27560  0.84570  0.25360  Biso   1.000  H
  H42      1.0000 0.15290  0.93500  0.23600  Biso   1.000  H
  H43      1.0000 0.85920  0.84320  0.36240  Biso   1.000  H
  H44      1.0000 0.73260  0.93040  0.34310  Biso   1.000  H
  H45      1.0000 0.94227  0.74640  0.59210  Biso   1.000  H
  H46      1.0000 0.81957  0.76400  0.69900  Biso   1.000  H
  H47      1.0000 0.52587  0.63760  0.48080  Biso   1.000  H
  H48      1.0000 0.39927  0.65690  0.58730  Biso   1.000  H
  C1       1.0000 0.82830  0.67700  0.21960  Biso   1.000  C
  C2       1.0000 0.91540  0.68930  0.16280  Biso   1.000  C
  C3       1.0000 0.83350  0.72730  0.13650  Biso   1.000  C
  C4       1.0000 0.90770  0.73880  0.08330  Biso   1.000  C
  C5       1.0000 0.08130  0.66290  0.13830  Biso   1.000  C
  C6       1.0000 0.15660  0.67480  0.08600  Biso   1.000  C
  C7       1.0000 0.07380  0.71200  0.05730  Biso   1.000  C
  C8       1.0000 0.04110  0.74470  0.95720  Biso   1.000  C
  C9       1.0000 0.16163  0.54260  0.32300  Biso   1.000  C
  C10      1.0000 0.24873  0.47350  0.31070  Biso   1.000  C
  C11      1.0000 0.16683  0.40920  0.27270  Biso   1.000  C
  C12      1.0000 0.24103  0.34450  0.26120  Biso   1.000  C
  C13      1.0000 0.41463  0.47540  0.33710  Biso   1.000  C
  C14      1.0000 0.48993  0.41120  0.32520  Biso   1.000  C
  C15      1.0000 0.40713  0.34530  0.28800  Biso   1.000  C
  C16      1.0000 0.37443  0.21250  0.25530  Biso   1.000  C
  C17      1.0000 0.49497  0.78040  0.45740  Biso   1.000  C
  C18      1.0000 0.58207  0.83720  0.52650  Biso   1.000  C
  C19      1.0000 0.50017  0.86350  0.59080  Biso   1.000  C
  C20      1.0000 0.57437  0.91670  0.65550  Biso   1.000  C
  C21      1.0000 0.74797  0.86170  0.52460  Biso   1.000  C
  C22      1.0000 0.82327  0.91400  0.58880  Biso   1.000  C
  C23      1.0000 0.74047  0.94270  0.65470  Biso   1.000  C
  C24      1.0000 0.70777  0.04280  0.78750  Biso   1.000  C
  C25      1.0000 0.82830  0.32300  0.78040  Biso   1.000  C
  C26      1.0000 0.91540  0.31070  0.83720  Biso   1.000  C
  C27      1.0000 0.83350  0.27270  0.86350  Biso   1.000  C
  C28      1.0000 0.90770  0.26120  0.91670  Biso   1.000  C
  C29      1.0000 0.08130  0.33710  0.86170  Biso   1.000  C
  C30      1.0000 0.15660  0.32520  0.91400  Biso   1.000  C
  C31      1.0000 0.07380  0.28800  0.94270  Biso   1.000  C
  C32      1.0000 0.04110  0.25530  0.04280  Biso   1.000  C
  C33      1.0000 0.16163  0.45740  0.67700  Biso   1.000  C
  C34      1.0000 0.24873  0.52650  0.68930  Biso   1.000  C
  C35      1.0000 0.16683  0.59080  0.72730  Biso   1.000  C
  C36      1.0000 0.24103  0.65550  0.73880  Biso   1.000  C
  C37      1.0000 0.41463  0.52460  0.66290  Biso   1.000  C
  C38      1.0000 0.48993  0.58880  0.67480  Biso   1.000  C
  C39      1.0000 0.40713  0.65470  0.71200  Biso   1.000  C
  C40      1.0000 0.37443  0.78750  0.74470  Biso   1.000  C
  C41      1.0000 0.49497  0.21960  0.54260  Biso   1.000  C
  C42      1.0000 0.58207  0.16280  0.47350  Biso   1.000  C
  C43      1.0000 0.50017  0.13650  0.40920  Biso   1.000  C
  C44      1.0000 0.57437  0.08330  0.34450  Biso   1.000  C
  C45      1.0000 0.74797  0.13830  0.47540  Biso   1.000  C
  C46      1.0000 0.82327  0.08600  0.41120  Biso   1.000  C
  C47      1.0000 0.74047  0.05730  0.34530  Biso   1.000  C
  C48      1.0000 0.70777  0.95720  0.21250  Biso   1.000  C
  C49      1.0000 0.50503  0.45740  0.78040  Biso   1.000  C
  C50      1.0000 0.41793  0.52650  0.83720  Biso   1.000  C
  C51      1.0000 0.49983  0.59080  0.86350  Biso   1.000  C
  C52      1.0000 0.42563  0.65550  0.91670  Biso   1.000  C
  C53      1.0000 0.25203  0.52460  0.86170  Biso   1.000  C
  C54      1.0000 0.17673  0.58880  0.91400  Biso   1.000  C
  C55      1.0000 0.25953  0.65470  0.94270  Biso   1.000  C
  C56      1.0000 0.29223  0.78750  0.04280  Biso   1.000  C
  C57      1.0000 0.17170  0.21960  0.67700  Biso   1.000  C
  C58      1.0000 0.08460  0.16280  0.68930  Biso   1.000  C
  C59      1.0000 0.16650  0.13650  0.72730  Biso   1.000  C
  C60      1.0000 0.09230  0.08330  0.73880  Biso   1.000  C
  C61      1.0000 0.91870  0.13830  0.66290  Biso   1.000  C
  C62      1.0000 0.84340  0.08600  0.67480  Biso   1.000  C
  C63      1.0000 0.92620  0.05730  0.71200  Biso   1.000  C
  C64      1.0000 0.95890  0.95720  0.74470  Biso   1.000  C
  C65      1.0000 0.83837  0.32300  0.54260  Biso   1.000  C
  C66      1.0000 0.75127  0.31070  0.47350  Biso   1.000  C
  C67      1.0000 0.83317  0.27270  0.40920  Biso   1.000  C
  C68      1.0000 0.75897  0.26120  0.34450  Biso   1.000  C
  C69      1.0000 0.58537  0.33710  0.47540  Biso   1.000  C
  C70      1.0000 0.51007  0.32520  0.41120  Biso   1.000  C
  C71      1.0000 0.59287  0.28800  0.34530  Biso   1.000  C
  C72      1.0000 0.62557  0.25530  0.21250  Biso   1.000  C
  C73      1.0000 0.50503  0.54260  0.21960  Biso   1.000  C
  C74      1.0000 0.41793  0.47350  0.16280  Biso   1.000  C
  C75      1.0000 0.49983  0.40920  0.13650  Biso   1.000  C
  C76      1.0000 0.42563  0.34450  0.08330  Biso   1.000  C
  C77      1.0000 0.25203  0.47540  0.13830  Biso   1.000  C
  C78      1.0000 0.17673  0.41120  0.08600  Biso   1.000  C
  C79      1.0000 0.25953  0.34530  0.05730  Biso   1.000  C
  C80      1.0000 0.29223  0.21250  0.95720  Biso   1.000  C
  C81      1.0000 0.17170  0.78040  0.32300  Biso   1.000  C
  C82      1.0000 0.08460  0.83720  0.31070  Biso   1.000  C
  C83      1.0000 0.16650  0.86350  0.27270  Biso   1.000  C
  C84      1.0000 0.09230  0.91670  0.26120  Biso   1.000  C
  C85      1.0000 0.91870  0.86170  0.33710  Biso   1.000  C
  C86      1.0000 0.84340  0.91400  0.32520  Biso   1.000  C
  C87      1.0000 0.92620  0.94270  0.28800  Biso   1.000  C
  C88      1.0000 0.95890  0.04280  0.25530  Biso   1.000  C
  C89      1.0000 0.83837  0.67700  0.45740  Biso   1.000  C
  C90      1.0000 0.75127  0.68930  0.52650  Biso   1.000  C
  C91      1.0000 0.83317  0.72730  0.59080  Biso   1.000  C
  C92      1.0000 0.75897  0.73880  0.65550  Biso   1.000  C
  C93      1.0000 0.58537  0.66290  0.52460  Biso   1.000  C
  C94      1.0000 0.51007  0.67480  0.58880  Biso   1.000  C
  C95      1.0000 0.59287  0.71200  0.65470  Biso   1.000  C
  C96      1.0000 0.62557  0.74470  0.78750  Biso   1.000  C
  C97      1.0000 0.16667  0.72310  0.00000  Biso   1.000  C
  C98      1.0000 0.50000  0.27690  0.27690  Biso   1.000  C
  C99      1.0000 0.83333  0.00000  0.72310  Biso   1.000  C
  C100     1.0000 0.16667  0.27690  0.00000  Biso   1.000  C
  C101     1.0000 0.50000  0.72310  0.72310  Biso   1.000  C
  C102     1.0000 0.83333  0.00000  0.27690  Biso   1.000  C
  O1       1.0000 0.90730  0.63760  0.23890  Biso   1.000  O
  O2       1.0000 0.68570  0.70660  0.24220  Biso   1.000  O
  O3       1.0000 0.24063  0.60130  0.36240  Biso   1.000  O
  O4       1.0000 0.01903  0.53560  0.29340  Biso   1.000  O
  O5       1.0000 0.57397  0.76110  0.39870  Biso   1.000  O
  O6       1.0000 0.35237  0.75780  0.46440  Biso   1.000  O
  O7       1.0000 0.90730  0.36240  0.76110  Biso   1.000  O
  O8       1.0000 0.68570  0.29340  0.75780  Biso   1.000  O
  O9       1.0000 0.24063  0.39870  0.63760  Biso   1.000  O
  O10      1.0000 0.01903  0.46440  0.70660  Biso   1.000  O
  O11      1.0000 0.57397  0.23890  0.60130  Biso   1.000  O
  O12      1.0000 0.35237  0.24220  0.53560  Biso   1.000  O
  O13      1.0000 0.42603  0.39870  0.76110  Biso   1.000  O
  O14      1.0000 0.64763  0.46440  0.75780  Biso   1.000  O
  O15      1.0000 0.09270  0.23890  0.63760  Biso   1.000  O
  O16      1.0000 0.31430  0.24220  0.70660  Biso   1.000  O
  O17      1.0000 0.75937  0.36240  0.60130  Biso   1.000  O
  O18      1.0000 0.98097  0.29340  0.53560  Biso   1.000  O
  O19      1.0000 0.42603  0.60130  0.23890  Biso   1.000  O
  O20      1.0000 0.64763  0.53560  0.24220  Biso   1.000  O
  O21      1.0000 0.09270  0.76110  0.36240  Biso   1.000  O
  O22      1.0000 0.31430  0.75780  0.29340  Biso   1.000  O
  O23      1.0000 0.75937  0.63760  0.39870  Biso   1.000  O
  O24      1.0000 0.98097  0.70660  0.46440  Biso   1.000  O
  F1       1.0000 0.12250  0.74650  0.90240  Biso   1.000  F
  F2       1.0000 0.91210  0.69770  0.92850  Biso   1.000  F
  F3       1.0000 0.96970  0.81010  0.99710  Biso   1.000  F
  F4       1.0000 0.45583  0.15590  0.25350  Biso   1.000  F
  F5       1.0000 0.24543  0.23080  0.30230  Biso   1.000  F
  F6       1.0000 0.30303  0.18700  0.18990  Biso   1.000  F
  F7       1.0000 0.78917  0.09760  0.84410  Biso   1.000  F
  F8       1.0000 0.57877  0.07150  0.76920  Biso   1.000  F
  F9       1.0000 0.63637  0.00290  0.81300  Biso   1.000  F
  F10      1.0000 0.12250  0.25350  0.09760  Biso   1.000  F
  F11      1.0000 0.91210  0.30230  0.07150  Biso   1.000  F
  F12      1.0000 0.96970  0.18990  0.00290  Biso   1.000  F
  F13      1.0000 0.45583  0.84410  0.74650  Biso   1.000  F
  F14      1.0000 0.24543  0.76920  0.69770  Biso   1.000  F
  F15      1.0000 0.30303  0.81300  0.81010  Biso   1.000  F
  F16      1.0000 0.78917  0.90240  0.15590  Biso   1.000  F
  F17      1.0000 0.57877  0.92850  0.23080  Biso   1.000  F
  F18      1.0000 0.63637  0.99710  0.18700  Biso   1.000  F
  F19      1.0000 0.21083  0.84410  0.09760  Biso   1.000  F
  F20      1.0000 0.42123  0.76920  0.07150  Biso   1.000  F
  F21      1.0000 0.36363  0.81300  0.00290  Biso   1.000  F
  F22      1.0000 0.87750  0.90240  0.74650  Biso   1.000  F
  F23      1.0000 0.08790  0.92850  0.69770  Biso   1.000  F
  F24      1.0000 0.03030  0.99710  0.81010  Biso   1.000  F
  F25      1.0000 0.54417  0.25350  0.15590  Biso   1.000  F
  F26      1.0000 0.75457  0.30230  0.23080  Biso   1.000  F
  F27      1.0000 0.69697  0.18990  0.18700  Biso   1.000  F
  F28      1.0000 0.21083  0.15590  0.90240  Biso   1.000  F
  F29      1.0000 0.42123  0.23080  0.92850  Biso   1.000  F
  F30      1.0000 0.36363  0.18700  0.99710  Biso   1.000  F
  F31      1.0000 0.87750  0.09760  0.25350  Biso   1.000  F
  F32      1.0000 0.08790  0.07150  0.30230  Biso   1.000  F
  F33      1.0000 0.03030  0.00290  0.18990  Biso   1.000  F
  F34      1.0000 0.54417  0.74650  0.84410  Biso   1.000  F
  F35      1.0000 0.75457  0.69770  0.76920  Biso   1.000  F
  F36      1.0000 0.69697  0.81010  0.81300  Biso   1.000  F
