data_image0
_cell_length_a       7.73
_cell_length_b       21.26
_cell_length_c       21.26
_cell_angle_alpha    120
_cell_angle_beta     90
_cell_angle_gamma    90

_symmetry_space_group_name_H-M    P 1
_symmetry_int_tables_number       1

loop_
  _symmetry_equiv_pos_as_xyz
  'x, y, z'

loop_
  _atom_site_label
  _atom_site_occupancy
  _atom_site_fract_x
  _atom_site_fract_y
  _atom_site_fract_z
  _atom_site_thermal_displace_type
  _atom_site_B_iso_or_equiv
  _atom_site_type_symbol
  Zn1      1.0000 0.00000  0.29909  0.70092  Biso   1.000  Zn
  Zn2      1.0000 0.66667  0.40183  0.70091  Biso   1.000  Zn
  Zn3      1.0000 0.33333  0.29909  0.59818  Biso   1.000  Zn
  Zn4      1.0000 0.00000  0.70091  0.29908  Biso   1.000  Zn
  Zn5      1.0000 0.66667  0.59817  0.29908  Biso   1.000  Zn
  Zn6      1.0000 0.33333  0.70092  0.40183  Biso   1.000  Zn
  H1       1.0000 0.10960  0.15340  0.40760  Biso   1.000  H
  H2       1.0000 0.56530  0.07050  0.41320  Biso   1.000  H
  H3       1.0000 0.69250  0.15710  0.51930  Biso   1.000  H
  H4       1.0000 0.98920  0.06480  0.30150  Biso   1.000  H
  H5       1.0000 0.77627  0.25420  0.84660  Biso   1.000  H
  H6       1.0000 0.23197  0.34270  0.92950  Biso   1.000  H
  H7       1.0000 0.35917  0.36220  0.84290  Biso   1.000  H
  H8       1.0000 0.65587  0.23670  0.93520  Biso   1.000  H
  H9       1.0000 0.44293  0.59240  0.74580  Biso   1.000  H
  H10      1.0000 0.89863  0.58680  0.65730  Biso   1.000  H
  H11      1.0000 0.02583  0.48070  0.63780  Biso   1.000  H
  H12      1.0000 0.32253  0.69850  0.76330  Biso   1.000  H
  H13      1.0000 0.10960  0.84660  0.59240  Biso   1.000  H
  H14      1.0000 0.56530  0.92950  0.58680  Biso   1.000  H
  H15      1.0000 0.69250  0.84290  0.48070  Biso   1.000  H
  H16      1.0000 0.98920  0.93520  0.69850  Biso   1.000  H
  H17      1.0000 0.77627  0.74580  0.15340  Biso   1.000  H
  H18      1.0000 0.23197  0.65730  0.07050  Biso   1.000  H
  H19      1.0000 0.35917  0.63780  0.15710  Biso   1.000  H
  H20      1.0000 0.65587  0.76330  0.06480  Biso   1.000  H
  H21      1.0000 0.44293  0.40760  0.25420  Biso   1.000  H
  H22      1.0000 0.89863  0.41320  0.34270  Biso   1.000  H
  H23      1.0000 0.02583  0.51930  0.36220  Biso   1.000  H
  H24      1.0000 0.32253  0.30150  0.23670  Biso   1.000  H
  H25      1.0000 0.55707  0.74580  0.59240  Biso   1.000  H
  H26      1.0000 0.10137  0.65730  0.58680  Biso   1.000  H
  H27      1.0000 0.97417  0.63780  0.48070  Biso   1.000  H
  H28      1.0000 0.67747  0.76330  0.69850  Biso   1.000  H
  H29      1.0000 0.89040  0.40760  0.15340  Biso   1.000  H
  H30      1.0000 0.43470  0.41320  0.07050  Biso   1.000  H
  H31      1.0000 0.30750  0.51930  0.15710  Biso   1.000  H
  H32      1.0000 0.01080  0.30150  0.06480  Biso   1.000  H
  H33      1.0000 0.22373  0.84660  0.25420  Biso   1.000  H
  H34      1.0000 0.76803  0.92950  0.34270  Biso   1.000  H
  H35      1.0000 0.64083  0.84290  0.36220  Biso   1.000  H
  H36      1.0000 0.34413  0.93520  0.23670  Biso   1.000  H
  H37      1.0000 0.55707  0.25420  0.40760  Biso   1.000  H
  H38      1.0000 0.10137  0.34270  0.41320  Biso   1.000  H
  H39      1.0000 0.97417  0.36220  0.51930  Biso   1.000  H
  H40      1.0000 0.67747  0.23670  0.30150  Biso   1.000  H
  H41      1.0000 0.89040  0.59240  0.84660  Biso   1.000  H
  H42      1.0000 0.43470  0.58680  0.92950  Biso   1.000  H
  H43      1.0000 0.30750  0.48070  0.84290  Biso   1.000  H
  H44      1.0000 0.01080  0.69850  0.93520  Biso   1.000  H
  H45      1.0000 0.22373  0.15340  0.74580  Biso   1.000  H
  H46      1.0000 0.76803  0.07050  0.65730  Biso   1.000  H
  H47      1.0000 0.64083  0.15710  0.63780  Biso   1.000  H
  H48      1.0000 0.34413  0.06480  0.76330  Biso   1.000  H
  C1       1.0000 0.00380  0.21890  0.54130  Biso   1.000  C
  C2       1.0000 0.00020  0.13580  0.40880  Biso   1.000  C
  C3       1.0000 0.67640  0.08630  0.41150  Biso   1.000  C
  C4       1.0000 0.75210  0.13870  0.47570  Biso   1.000  C
  C5       1.0000 0.91740  0.16350  0.47430  Biso   1.000  C
  C6       1.0000 0.92810  0.08310  0.34490  Biso   1.000  C
  C7       1.0000 0.75920  0.05690  0.34560  Biso   1.000  C
  C8       1.0000 0.54090  0.04240  0.25500  Biso   1.000  C
  C9       1.0000 0.67047  0.32240  0.78110  Biso   1.000  C
  C10      1.0000 0.66687  0.27300  0.86420  Biso   1.000  C
  C11      1.0000 0.34307  0.32520  0.91370  Biso   1.000  C
  C12      1.0000 0.41877  0.33700  0.86130  Biso   1.000  C
  C13      1.0000 0.58407  0.31080  0.83650  Biso   1.000  C
  C14      1.0000 0.59477  0.26180  0.91690  Biso   1.000  C
  C15      1.0000 0.42587  0.28870  0.94310  Biso   1.000  C
  C16      1.0000 0.20757  0.21260  0.95760  Biso   1.000  C
  C17      1.0000 0.33713  0.45870  0.67760  Biso   1.000  C
  C18      1.0000 0.33353  0.59120  0.72700  Biso   1.000  C
  C19      1.0000 0.00973  0.58850  0.67480  Biso   1.000  C
  C20      1.0000 0.08543  0.52430  0.66300  Biso   1.000  C
  C21      1.0000 0.25073  0.52570  0.68920  Biso   1.000  C
  C22      1.0000 0.26143  0.65510  0.73820  Biso   1.000  C
  C23      1.0000 0.09253  0.65440  0.71130  Biso   1.000  C
  C24      1.0000 0.87423  0.74500  0.78740  Biso   1.000  C
  C25      1.0000 0.00380  0.78110  0.45870  Biso   1.000  C
  C26      1.0000 0.00020  0.86420  0.59120  Biso   1.000  C
  C27      1.0000 0.67640  0.91370  0.58850  Biso   1.000  C
  C28      1.0000 0.75210  0.86130  0.52430  Biso   1.000  C
  C29      1.0000 0.91740  0.83650  0.52570  Biso   1.000  C
  C30      1.0000 0.92810  0.91690  0.65510  Biso   1.000  C
  C31      1.0000 0.75920  0.94310  0.65440  Biso   1.000  C
  C32      1.0000 0.54090  0.95760  0.74500  Biso   1.000  C
  C33      1.0000 0.67047  0.67760  0.21890  Biso   1.000  C
  C34      1.0000 0.66687  0.72700  0.13580  Biso   1.000  C
  C35      1.0000 0.34307  0.67480  0.08630  Biso   1.000  C
  C36      1.0000 0.41877  0.66300  0.13870  Biso   1.000  C
  C37      1.0000 0.58407  0.68920  0.16350  Biso   1.000  C
  C38      1.0000 0.59477  0.73820  0.08310  Biso   1.000  C
  C39      1.0000 0.42587  0.71130  0.05690  Biso   1.000  C
  C40      1.0000 0.20757  0.78740  0.04240  Biso   1.000  C
  C41      1.0000 0.33713  0.54130  0.32240  Biso   1.000  C
  C42      1.0000 0.33353  0.40880  0.27300  Biso   1.000  C
  C43      1.0000 0.00973  0.41150  0.32520  Biso   1.000  C
  C44      1.0000 0.08543  0.47570  0.33700  Biso   1.000  C
  C45      1.0000 0.25073  0.47430  0.31080  Biso   1.000  C
  C46      1.0000 0.26143  0.34490  0.26180  Biso   1.000  C
  C47      1.0000 0.09253  0.34560  0.28870  Biso   1.000  C
  C48      1.0000 0.87423  0.25500  0.21260  Biso   1.000  C
  C49      1.0000 0.66287  0.67760  0.45870  Biso   1.000  C
  C50      1.0000 0.66647  0.72700  0.59120  Biso   1.000  C
  C51      1.0000 0.99027  0.67480  0.58850  Biso   1.000  C
  C52      1.0000 0.91457  0.66300  0.52430  Biso   1.000  C
  C53      1.0000 0.74927  0.68920  0.52570  Biso   1.000  C
  C54      1.0000 0.73857  0.73820  0.65510  Biso   1.000  C
  C55      1.0000 0.90747  0.71130  0.65440  Biso   1.000  C
  C56      1.0000 0.12577  0.78740  0.74500  Biso   1.000  C
  C57      1.0000 0.99620  0.54130  0.21890  Biso   1.000  C
  C58      1.0000 0.99980  0.40880  0.13580  Biso   1.000  C
  C59      1.0000 0.32360  0.41150  0.08630  Biso   1.000  C
  C60      1.0000 0.24790  0.47570  0.13870  Biso   1.000  C
  C61      1.0000 0.08260  0.47430  0.16350  Biso   1.000  C
  C62      1.0000 0.07190  0.34490  0.08310  Biso   1.000  C
  C63      1.0000 0.24080  0.34560  0.05690  Biso   1.000  C
  C64      1.0000 0.45910  0.25500  0.04240  Biso   1.000  C
  C65      1.0000 0.32953  0.78110  0.32240  Biso   1.000  C
  C66      1.0000 0.33313  0.86420  0.27300  Biso   1.000  C
  C67      1.0000 0.65693  0.91370  0.32520  Biso   1.000  C
  C68      1.0000 0.58123  0.86130  0.33700  Biso   1.000  C
  C69      1.0000 0.41593  0.83650  0.31080  Biso   1.000  C
  C70      1.0000 0.40523  0.91690  0.26180  Biso   1.000  C
  C71      1.0000 0.57413  0.94310  0.28870  Biso   1.000  C
  C72      1.0000 0.79243  0.95760  0.21260  Biso   1.000  C
  C73      1.0000 0.66287  0.32240  0.54130  Biso   1.000  C
  C74      1.0000 0.66647  0.27300  0.40880  Biso   1.000  C
  C75      1.0000 0.99027  0.32520  0.41150  Biso   1.000  C
  C76      1.0000 0.91457  0.33700  0.47570  Biso   1.000  C
  C77      1.0000 0.74927  0.31080  0.47430  Biso   1.000  C
  C78      1.0000 0.73857  0.26180  0.34490  Biso   1.000  C
  C79      1.0000 0.90747  0.28870  0.34560  Biso   1.000  C
  C80      1.0000 0.12577  0.21260  0.25500  Biso   1.000  C
  C81      1.0000 0.99620  0.45870  0.78110  Biso   1.000  C
  C82      1.0000 0.99980  0.59120  0.86420  Biso   1.000  C
  C83      1.0000 0.32360  0.58850  0.91370  Biso   1.000  C
  C84      1.0000 0.24790  0.52430  0.86130  Biso   1.000  C
  C85      1.0000 0.08260  0.52570  0.83650  Biso   1.000  C
  C86      1.0000 0.07190  0.65510  0.91690  Biso   1.000  C
  C87      1.0000 0.24080  0.65440  0.94310  Biso   1.000  C
  C88      1.0000 0.45910  0.74500  0.95760  Biso   1.000  C
  C89      1.0000 0.32953  0.21890  0.67760  Biso   1.000  C
  C90      1.0000 0.33313  0.13580  0.72700  Biso   1.000  C
  C91      1.0000 0.65693  0.08630  0.67480  Biso   1.000  C
  C92      1.0000 0.58123  0.13870  0.66300  Biso   1.000  C
  C93      1.0000 0.41593  0.16350  0.68920  Biso   1.000  C
  C94      1.0000 0.40523  0.08310  0.73820  Biso   1.000  C
  C95      1.0000 0.57413  0.05690  0.71130  Biso   1.000  C
  C96      1.0000 0.79243  0.04240  0.78740  Biso   1.000  C
  C97      1.0000 0.66667  0.00000  0.27650  Biso   1.000  C
  C98      1.0000 0.33333  0.27650  0.00000  Biso   1.000  C
  C99      1.0000 0.00000  0.72350  0.72350  Biso   1.000  C
  C100     1.0000 0.66667  0.00000  0.72350  Biso   1.000  C
  C101     1.0000 0.33333  0.72350  0.00000  Biso   1.000  C
  C102     1.0000 0.00000  0.27650  0.27650  Biso   1.000  C
  O1       1.0000 0.92580  0.23900  0.60060  Biso   1.000  O
  O2       1.0000 0.14620  0.24210  0.53560  Biso   1.000  O
  O3       1.0000 0.59247  0.36160  0.76100  Biso   1.000  O
  O4       1.0000 0.81287  0.29350  0.75790  Biso   1.000  O
  O5       1.0000 0.25913  0.39940  0.63840  Biso   1.000  O
  O6       1.0000 0.47953  0.46440  0.70650  Biso   1.000  O
  O7       1.0000 0.92580  0.76100  0.39940  Biso   1.000  O
  O8       1.0000 0.14620  0.75790  0.46440  Biso   1.000  O
  O9       1.0000 0.59247  0.63840  0.23900  Biso   1.000  O
  O10      1.0000 0.81287  0.70650  0.24210  Biso   1.000  O
  O11      1.0000 0.25913  0.60060  0.36160  Biso   1.000  O
  O12      1.0000 0.47953  0.53560  0.29350  Biso   1.000  O
  O13      1.0000 0.74087  0.63840  0.39940  Biso   1.000  O
  O14      1.0000 0.52047  0.70650  0.46440  Biso   1.000  O
  O15      1.0000 0.07420  0.60060  0.23900  Biso   1.000  O
  O16      1.0000 0.85380  0.53560  0.24210  Biso   1.000  O
  O17      1.0000 0.40753  0.76100  0.36160  Biso   1.000  O
  O18      1.0000 0.18713  0.75790  0.29350  Biso   1.000  O
  O19      1.0000 0.74087  0.36160  0.60060  Biso   1.000  O
  O20      1.0000 0.52047  0.29350  0.53560  Biso   1.000  O
  O21      1.0000 0.07420  0.39940  0.76100  Biso   1.000  O
  O22      1.0000 0.85380  0.46440  0.75790  Biso   1.000  O
  O23      1.0000 0.40753  0.23900  0.63840  Biso   1.000  O
  O24      1.0000 0.18713  0.24210  0.70650  Biso   1.000  O
  F1       1.0000 0.41570  0.07130  0.30180  Biso   1.000  F
  F2       1.0000 0.46910  0.00360  0.19000  Biso   1.000  F
  F3       1.0000 0.62530  0.09760  0.25340  Biso   1.000  F
  F4       1.0000 0.08237  0.23050  0.92870  Biso   1.000  F
  F5       1.0000 0.13577  0.18640  0.99640  Biso   1.000  F
  F6       1.0000 0.29197  0.15580  0.90240  Biso   1.000  F
  F7       1.0000 0.74903  0.69820  0.76950  Biso   1.000  F
  F8       1.0000 0.80243  0.81000  0.81360  Biso   1.000  F
  F9       1.0000 0.95863  0.74660  0.84420  Biso   1.000  F
  F10      1.0000 0.41570  0.92870  0.69820  Biso   1.000  F
  F11      1.0000 0.46910  0.99640  0.81000  Biso   1.000  F
  F12      1.0000 0.62530  0.90240  0.74660  Biso   1.000  F
  F13      1.0000 0.08237  0.76950  0.07130  Biso   1.000  F
  F14      1.0000 0.13577  0.81360  0.00360  Biso   1.000  F
  F15      1.0000 0.29197  0.84420  0.09760  Biso   1.000  F
  F16      1.0000 0.74903  0.30180  0.23050  Biso   1.000  F
  F17      1.0000 0.80243  0.19000  0.18640  Biso   1.000  F
  F18      1.0000 0.95863  0.25340  0.15580  Biso   1.000  F
  F19      1.0000 0.25097  0.76950  0.69820  Biso   1.000  F
  F20      1.0000 0.19757  0.81360  0.81000  Biso   1.000  F
  F21      1.0000 0.04137  0.84420  0.74660  Biso   1.000  F
  F22      1.0000 0.58430  0.30180  0.07130  Biso   1.000  F
  F23      1.0000 0.53090  0.19000  0.00360  Biso   1.000  F
  F24      1.0000 0.37470  0.25340  0.09760  Biso   1.000  F
  F25      1.0000 0.91763  0.92870  0.23050  Biso   1.000  F
  F26      1.0000 0.86423  0.99640  0.18640  Biso   1.000  F
  F27      1.0000 0.70803  0.90240  0.15580  Biso   1.000  F
  F28      1.0000 0.25097  0.23050  0.30180  Biso   1.000  F
  F29      1.0000 0.19757  0.18640  0.19000  Biso   1.000  F
  F30      1.0000 0.04137  0.15580  0.25340  Biso   1.000  F
  F31      1.0000 0.58430  0.69820  0.92870  Biso   1.000  F
  F32      1.0000 0.53090  0.81000  0.99640  Biso   1.000  F
  F33      1.0000 0.37470  0.74660  0.90240  Biso   1.000  F
  F34      1.0000 0.91763  0.07130  0.76950  Biso   1.000  F
  F35      1.0000 0.86423  0.00360  0.81360  Biso   1.000  F
  F36      1.0000 0.70803  0.09760  0.84420  Biso   1.000  F
