data_image0
_cell_length_a       12.458
_cell_length_b       17.2089
_cell_length_c       28.3873
_cell_angle_alpha    81.6004
_cell_angle_beta     77.3245
_cell_angle_gamma    68.7791

_symmetry_space_group_name_H-M    P 1
_symmetry_int_tables_number       1

loop_
  _symmetry_equiv_pos_as_xyz
  'x, y, z'

loop_
  _atom_site_label
  _atom_site_occupancy
  _atom_site_fract_x
  _atom_site_fract_y
  _atom_site_fract_z
  _atom_site_thermal_displace_type
  _atom_site_B_iso_or_equiv
  _atom_site_type_symbol
  Zn1      1.0000 0.72055  0.86369  0.82821  Biso   1.000  Zn
  Zn2      1.0000 0.79628  0.43084  0.25622  Biso   1.000  Zn
  Zn3      1.0000 0.58755  0.36369  0.32821  Biso   1.000  Zn
  Zn4      1.0000 0.51666  0.93084  0.75622  Biso   1.000  Zn
  H1       1.0000 0.88140  0.04730  0.76050  Biso   1.000  H
  H2       1.0000 0.94100  0.15790  0.72050  Biso   1.000  H
  H3       1.0000 0.64120  0.25160  0.66460  Biso   1.000  H
  H4       1.0000 0.58440  0.13990  0.70510  Biso   1.000  H
  H5       1.0000 0.95720  0.29090  0.68510  Biso   1.000  H
  H6       1.0000 0.99870  0.22590  0.64390  Biso   1.000  H
  H7       1.0000 0.63470  0.70580  0.68720  Biso   1.000  H
  H8       1.0000 0.71560  0.57860  0.65300  Biso   1.000  H
  H9       1.0000 0.97170  0.50720  0.73400  Biso   1.000  H
  H10      1.0000 0.88820  0.63580  0.76820  Biso   1.000  H
  H11      1.0000 0.36340  0.22480  0.42980  Biso   1.000  H
  H12      1.0000 0.23380  0.20010  0.50010  Biso   1.000  H
  H13      1.0000 0.22680  0.40920  0.55060  Biso   1.000  H
  H14      1.0000 0.34840  0.43390  0.48090  Biso   1.000  H
  H15      1.0000 0.71990  0.34070  0.44190  Biso   1.000  H
  H16      1.0000 0.78150  0.32940  0.51480  Biso   1.000  H
  H17      1.0000 0.01380  0.44300  0.44940  Biso   1.000  H
  H18      1.0000 0.95430  0.45210  0.37610  Biso   1.000  H
  H19      1.0000 0.81900  0.34970  0.57950  Biso   1.000  H
  H20      1.0000 0.94200  0.27660  0.56500  Biso   1.000  H
  H21      1.0000 0.10410  0.34660  0.63200  Biso   1.000  H
  H22      1.0000 0.07230  0.40610  0.58430  Biso   1.000  H
  H23      1.0000 0.78410  0.43390  0.64530  Biso   1.000  H
  H24      1.0000 0.86110  0.47950  0.60650  Biso   1.000  H
  H25      1.0000 0.89580  0.44870  0.15710  Biso   1.000  H
  H26      1.0000 0.00680  0.46700  0.16240  Biso   1.000  H
  H27      1.0000 0.99090  0.47060  0.07460  Biso   1.000  H
  H28      1.0000 0.00430  0.56050  0.06110  Biso   1.000  H
  H29      1.0000 0.88430  0.54840  0.05860  Biso   1.000  H
  H30      1.0000 0.91940  0.60690  0.18090  Biso   1.000  H
  H31      1.0000 0.93100  0.65790  0.12930  Biso   1.000  H
  H32      1.0000 0.03750  0.57650  0.14190  Biso   1.000  H
  H33      1.0000 0.31080  0.54730  0.26050  Biso   1.000  H
  H34      1.0000 0.18060  0.65790  0.22050  Biso   1.000  H
  H35      1.0000 0.44260  0.75160  0.16460  Biso   1.000  H
  H36      1.0000 0.57060  0.63990  0.20510  Biso   1.000  H
  H37      1.0000 0.06680  0.79090  0.18510  Biso   1.000  H
  H38      1.0000 0.13150  0.72590  0.14390  Biso   1.000  H
  H39      1.0000 0.97230  0.20580  0.18720  Biso   1.000  H
  H40      1.0000 0.05280  0.07860  0.15300  Biso   1.000  H
  H41      1.0000 0.78710  0.00720  0.23400  Biso   1.000  H
  H42      1.0000 0.70780  0.13580  0.26820  Biso   1.000  H
  H43      1.0000 0.98200  0.72480  0.92980  Biso   1.000  H
  H44      1.0000 0.06600  0.70010  0.00010  Biso   1.000  H
  H45      1.0000 0.81340  0.90920  0.05060  Biso   1.000  H
  H46      1.0000 0.73680  0.93390  0.98090  Biso   1.000  H
  H47      1.0000 0.49750  0.84070  0.94190  Biso   1.000  H
  H48      1.0000 0.37430  0.82940  0.01480  Biso   1.000  H
  H49      1.0000 0.09380  0.94300  0.94940  Biso   1.000  H
  H50      1.0000 0.21750  0.95210  0.87610  Biso   1.000  H
  H51      1.0000 0.25180  0.84970  0.07950  Biso   1.000  H
  H52      1.0000 0.21640  0.77660  0.06500  Biso   1.000  H
  H53      1.0000 0.91730  0.84660  0.13200  Biso   1.000  H
  H54      1.0000 0.93730  0.90610  0.08430  Biso   1.000  H
  H55      1.0000 0.13670  0.93390  0.14530  Biso   1.000  H
  H56      1.0000 0.05290  0.97950  0.10650  Biso   1.000  H
  H57      1.0000 0.49840  0.94870  0.65710  Biso   1.000  H
  H58      1.0000 0.36380  0.96700  0.66240  Biso   1.000  H
  H59      1.0000 0.46390  0.97060  0.57460  Biso   1.000  H
  H60      1.0000 0.37410  0.06050  0.56110  Biso   1.000  H
  H61      1.0000 0.50870  0.04840  0.55860  Biso   1.000  H
  H62      1.0000 0.29280  0.10690  0.68090  Biso   1.000  H
  H63      1.0000 0.28180  0.15790  0.62930  Biso   1.000  H
  H64      1.0000 0.24410  0.07650  0.64190  Biso   1.000  H
  C1       1.0000 0.68892  0.01204  0.76132  Biso   1.000  C
  C2       1.0000 0.72669  0.08350  0.73692  Biso   1.000  C
  C3       1.0000 0.83280  0.08879  0.74101  Biso   1.000  C
  C4       1.0000 0.86915  0.15388  0.71702  Biso   1.000  C
  C5       1.0000 0.79800  0.21294  0.68786  Biso   1.000  C
  C6       1.0000 0.69051  0.20964  0.68374  Biso   1.000  C
  C7       1.0000 0.65669  0.14363  0.70819  Biso   1.000  C
  C8       1.0000 0.94081  0.27997  0.65461  Biso   1.000  C
  C9       1.0000 0.94636  0.35074  0.61554  Biso   1.000  C
  C10      1.0000 0.70518  0.76723  0.75161  Biso   1.000  C
  C11      1.0000 0.75430  0.68487  0.73053  Biso   1.000  C
  C12      1.0000 0.70366  0.66554  0.69654  Biso   1.000  C
  C13      1.0000 0.75114  0.59000  0.67632  Biso   1.000  C
  C14      1.0000 0.85028  0.53077  0.68987  Biso   1.000  C
  C15      1.0000 0.90318  0.54771  0.72453  Biso   1.000  C
  C16      1.0000 0.85376  0.62435  0.74453  Biso   1.000  C
  C17      1.0000 0.44941  0.35041  0.40297  Biso   1.000  C
  C18      1.0000 0.36659  0.33227  0.44855  Biso   1.000  C
  C19      1.0000 0.33407  0.26305  0.45441  Biso   1.000  C
  C20      1.0000 0.25747  0.24764  0.49642  Biso   1.000  C
  C21      1.0000 0.21825  0.30306  0.53184  Biso   1.000  C
  C22      1.0000 0.25338  0.37147  0.52577  Biso   1.000  C
  C23      1.0000 0.32589  0.38587  0.48455  Biso   1.000  C
  C24      1.0000 0.79330  0.40121  0.35479  Biso   1.000  C
  C25      1.0000 0.78000  0.36146  0.44334  Biso   1.000  C
  C26      1.0000 0.81563  0.35541  0.48673  Biso   1.000  C
  C27      1.0000 0.90145  0.38732  0.48938  Biso   1.000  C
  C28      1.0000 0.95357  0.42237  0.44789  Biso   1.000  C
  C29      1.0000 0.91832  0.42763  0.40433  Biso   1.000  C
  C30      1.0000 0.90503  0.33602  0.57232  Biso   1.000  C
  C31      1.0000 0.07204  0.35227  0.60225  Biso   1.000  C
  C32      1.0000 0.86424  0.43555  0.63337  Biso   1.000  C
  C33      1.0000 0.83136  0.39768  0.40140  Biso   1.000  C
  C34      1.0000 0.92040  0.49180  0.16680  Biso   1.000  C
  C35      1.0000 0.94990  0.53100  0.07600  Biso   1.000  C
  C36      1.0000 0.95180  0.60200  0.14640  Biso   1.000  C
  C37      1.0000 0.53772  0.51204  0.26132  Biso   1.000  C
  C38      1.0000 0.45289  0.58350  0.23692  Biso   1.000  C
  C39      1.0000 0.33740  0.58879  0.24101  Biso   1.000  C
  C40      1.0000 0.25995  0.65388  0.21702  Biso   1.000  C
  C41      1.0000 0.30120  0.71294  0.18786  Biso   1.000  C
  C42      1.0000 0.41611  0.70964  0.18374  Biso   1.000  C
  C43      1.0000 0.49149  0.64363  0.20819  Biso   1.000  C
  C44      1.0000 0.12461  0.77997  0.15461  Biso   1.000  C
  C45      1.0000 0.08736  0.85074  0.11554  Biso   1.000  C
  C46      1.0000 0.77598  0.26723  0.25161  Biso   1.000  C
  C47      1.0000 0.83030  0.18487  0.23053  Biso   1.000  C
  C48      1.0000 0.93426  0.16554  0.19654  Biso   1.000  C
  C49      1.0000 0.98254  0.09000  0.17632  Biso   1.000  C
  C50      1.0000 0.92908  0.03077  0.18987  Biso   1.000  C
  C51      1.0000 0.82458  0.04771  0.22453  Biso   1.000  C
  C52      1.0000 0.77736  0.12435  0.24453  Biso   1.000  C
  C53      1.0000 0.79721  0.85041  0.90297  Biso   1.000  C
  C54      1.0000 0.85259  0.83227  0.94855  Biso   1.000  C
  C55      1.0000 0.94847  0.76305  0.95441  Biso   1.000  C
  C56      1.0000 0.99847  0.74764  0.99642  Biso   1.000  C
  C57      1.0000 0.94685  0.80306  0.03184  Biso   1.000  C
  C58      1.0000 0.84938  0.87147  0.02577  Biso   1.000  C
  C59      1.0000 0.80369  0.88587  0.98455  Biso   1.000  C
  C60      1.0000 0.45070  0.90121  0.85479  Biso   1.000  C
  C61      1.0000 0.41520  0.86146  0.94334  Biso   1.000  C
  C62      1.0000 0.34223  0.85541  0.98673  Biso   1.000  C
  C63      1.0000 0.22185  0.88732  0.98938  Biso   1.000  C
  C64      1.0000 0.17617  0.92237  0.94789  Biso   1.000  C
  C65      1.0000 0.24972  0.92763  0.90433  Biso   1.000  C
  C66      1.0000 0.18663  0.83602  0.07232  Biso   1.000  C
  C67      1.0000 0.97344  0.85227  0.10225  Biso   1.000  C
  C68      1.0000 0.06684  0.93555  0.13337  Biso   1.000  C
  C69      1.0000 0.36956  0.89768  0.90140  Biso   1.000  C
  C70      1.0000 0.42100  0.99180  0.66680  Biso   1.000  C
  C71      1.0000 0.44310  0.03100  0.57600  Biso   1.000  C
  C72      1.0000 0.29980  0.10200  0.64640  Biso   1.000  C
  N1       1.0000 0.90520  0.55090  0.12710  Biso   1.000  N
  N2       1.0000 0.41680  0.05090  0.62710  Biso   1.000  N
  O1       1.0000 0.89341  0.48489  0.20989  Biso   1.000  O
  O2       1.0000 0.75908  0.78024  0.78040  Biso   1.000  O
  O3       1.0000 0.75241  0.95857  0.78853  Biso   1.000  O
  O4       1.0000 0.90734  0.45385  0.67165  Biso   1.000  O
  O5       1.0000 0.71847  0.36785  0.35495  Biso   1.000  O
  O6       1.0000 0.83929  0.43517  0.31763  Biso   1.000  O
  O7       1.0000 0.14338  0.28422  0.57262  Biso   1.000  O
  O8       1.0000 0.46456  0.41870  0.39758  Biso   1.000  O
  O9       1.0000 0.93712  0.38898  0.53122  Biso   1.000  O
  O10      1.0000 0.59390  0.01062  0.75318  Biso   1.000  O
  O11      1.0000 0.49797  0.29628  0.37338  Biso   1.000  O
  O12      1.0000 0.61230  0.82013  0.73807  Biso   1.000  O
  O13      1.0000 0.82437  0.27858  0.66142  Biso   1.000  O
  O14      1.0000 0.41181  0.98489  0.70989  Biso   1.000  O
  O15      1.0000 0.68028  0.28024  0.28040  Biso   1.000  O
  O16      1.0000 0.50049  0.45857  0.28853  Biso   1.000  O
  O17      1.0000 0.96716  0.95385  0.17165  Biso   1.000  O
  O18      1.0000 0.55873  0.86785  0.85495  Biso   1.000  O
  O19      1.0000 0.40791  0.93517  0.81763  Biso   1.000  O
  O20      1.0000 0.99978  0.78422  0.07262  Biso   1.000  O
  O21      1.0000 0.71916  0.91870  0.89758  Biso   1.000  O
  O22      1.0000 0.14268  0.88898  0.03122  Biso   1.000  O
  O23      1.0000 0.64230  0.51062  0.25318  Biso   1.000  O
  O24      1.0000 0.83237  0.79628  0.87338  Biso   1.000  O
  O25      1.0000 0.82950  0.32013  0.23807  Biso   1.000  O
  O26      1.0000 0.23563  0.77858  0.16142  Biso   1.000  O
  Zn5      1.0000 0.41245  0.63631  0.67179  Biso   1.000  Zn
  Zn6      1.0000 0.48334  0.06916  0.24378  Biso   1.000  Zn
  Zn7      1.0000 0.27945  0.13631  0.17179  Biso   1.000  Zn
  Zn8      1.0000 0.20372  0.56916  0.74378  Biso   1.000  Zn
  H65      1.0000 0.68920  0.45270  0.73950  Biso   1.000  H
  H66      1.0000 0.81940  0.34210  0.77950  Biso   1.000  H
  H67      1.0000 0.55740  0.24840  0.83540  Biso   1.000  H
  H68      1.0000 0.42940  0.36010  0.79490  Biso   1.000  H
  H69      1.0000 0.93320  0.20910  0.81490  Biso   1.000  H
  H70      1.0000 0.86850  0.27410  0.85610  Biso   1.000  H
  H71      1.0000 0.02770  0.79420  0.81280  Biso   1.000  H
  H72      1.0000 0.94720  0.92140  0.84700  Biso   1.000  H
  H73      1.0000 0.21290  0.99280  0.76600  Biso   1.000  H
  H74      1.0000 0.29220  0.86420  0.73180  Biso   1.000  H
  H75      1.0000 0.01800  0.27520  0.07020  Biso   1.000  H
  H76      1.0000 0.93400  0.29990  0.99990  Biso   1.000  H
  H77      1.0000 0.18660  0.09080  0.94940  Biso   1.000  H
  H78      1.0000 0.26320  0.06610  0.01910  Biso   1.000  H
  H79      1.0000 0.50250  0.15930  0.05810  Biso   1.000  H
  H80      1.0000 0.62570  0.17060  0.98520  Biso   1.000  H
  H81      1.0000 0.90620  0.05700  0.05060  Biso   1.000  H
  H82      1.0000 0.78250  0.04790  0.12390  Biso   1.000  H
  H83      1.0000 0.74820  0.15030  0.92050  Biso   1.000  H
  H84      1.0000 0.78360  0.22340  0.93500  Biso   1.000  H
  H85      1.0000 0.08270  0.15340  0.86800  Biso   1.000  H
  H86      1.0000 0.06270  0.09390  0.91570  Biso   1.000  H
  H87      1.0000 0.86330  0.06610  0.85470  Biso   1.000  H
  H88      1.0000 0.94710  0.02050  0.89350  Biso   1.000  H
  H89      1.0000 0.50160  0.05130  0.34290  Biso   1.000  H
  H90      1.0000 0.63620  0.03300  0.33760  Biso   1.000  H
  H91      1.0000 0.53610  0.02940  0.42540  Biso   1.000  H
  H92      1.0000 0.62590  0.93950  0.43890  Biso   1.000  H
  H93      1.0000 0.49130  0.95160  0.44140  Biso   1.000  H
  H94      1.0000 0.70720  0.89310  0.31910  Biso   1.000  H
  H95      1.0000 0.71820  0.84210  0.37070  Biso   1.000  H
  H96      1.0000 0.75590  0.92350  0.35810  Biso   1.000  H
  H97      1.0000 0.11860  0.95270  0.23950  Biso   1.000  H
  H98      1.0000 0.05900  0.84210  0.27950  Biso   1.000  H
  H99      1.0000 0.35880  0.74840  0.33540  Biso   1.000  H
  H100     1.0000 0.41560  0.86010  0.29490  Biso   1.000  H
  H101     1.0000 0.04280  0.70910  0.31490  Biso   1.000  H
  H102     1.0000 0.00130  0.77410  0.35610  Biso   1.000  H
  H103     1.0000 0.36530  0.29420  0.31280  Biso   1.000  H
  H104     1.0000 0.28440  0.42140  0.34700  Biso   1.000  H
  H105     1.0000 0.02830  0.49280  0.26600  Biso   1.000  H
  H106     1.0000 0.11180  0.36420  0.23180  Biso   1.000  H
  H107     1.0000 0.63660  0.77520  0.57020  Biso   1.000  H
  H108     1.0000 0.76620  0.79990  0.49990  Biso   1.000  H
  H109     1.0000 0.77320  0.59080  0.44940  Biso   1.000  H
  H110     1.0000 0.65160  0.56610  0.51910  Biso   1.000  H
  H111     1.0000 0.28010  0.65930  0.55810  Biso   1.000  H
  H112     1.0000 0.21850  0.67060  0.48520  Biso   1.000  H
  H113     1.0000 0.98620  0.55700  0.55060  Biso   1.000  H
  H114     1.0000 0.04570  0.54790  0.62390  Biso   1.000  H
  H115     1.0000 0.18100  0.65030  0.42050  Biso   1.000  H
  H116     1.0000 0.05800  0.72340  0.43500  Biso   1.000  H
  H117     1.0000 0.89590  0.65340  0.36800  Biso   1.000  H
  H118     1.0000 0.92770  0.59390  0.41570  Biso   1.000  H
  H119     1.0000 0.21590  0.56610  0.35470  Biso   1.000  H
  H120     1.0000 0.13890  0.52050  0.39350  Biso   1.000  H
  H121     1.0000 0.10420  0.55130  0.84290  Biso   1.000  H
  H122     1.0000 0.99320  0.53300  0.83760  Biso   1.000  H
  H123     1.0000 0.00910  0.52940  0.92540  Biso   1.000  H
  H124     1.0000 0.99570  0.43950  0.93890  Biso   1.000  H
  H125     1.0000 0.11570  0.45160  0.94140  Biso   1.000  H
  H126     1.0000 0.08060  0.39310  0.81910  Biso   1.000  H
  H127     1.0000 0.06900  0.34210  0.87070  Biso   1.000  H
  H128     1.0000 0.96250  0.42350  0.85810  Biso   1.000  H
  C73      1.0000 0.46228  0.48796  0.73868  Biso   1.000  C
  C74      1.0000 0.54711  0.41650  0.76308  Biso   1.000  C
  C75      1.0000 0.66260  0.41121  0.75899  Biso   1.000  C
  C76      1.0000 0.74005  0.34612  0.78298  Biso   1.000  C
  C77      1.0000 0.69880  0.28706  0.81214  Biso   1.000  C
  C78      1.0000 0.58389  0.29036  0.81626  Biso   1.000  C
  C79      1.0000 0.50851  0.35637  0.79181  Biso   1.000  C
  C80      1.0000 0.87539  0.22003  0.84539  Biso   1.000  C
  C81      1.0000 0.91264  0.14926  0.88446  Biso   1.000  C
  C82      1.0000 0.22402  0.73277  0.74839  Biso   1.000  C
  C83      1.0000 0.16970  0.81513  0.76947  Biso   1.000  C
  C84      1.0000 0.06574  0.83446  0.80346  Biso   1.000  C
  C85      1.0000 0.01746  0.91000  0.82368  Biso   1.000  C
  C86      1.0000 0.07092  0.96923  0.81013  Biso   1.000  C
  C87      1.0000 0.17542  0.95229  0.77547  Biso   1.000  C
  C88      1.0000 0.22264  0.87565  0.75547  Biso   1.000  C
  C89      1.0000 0.20279  0.14959  0.09703  Biso   1.000  C
  C90      1.0000 0.14741  0.16773  0.05145  Biso   1.000  C
  C91      1.0000 0.05153  0.23695  0.04559  Biso   1.000  C
  C92      1.0000 0.00153  0.25236  0.00358  Biso   1.000  C
  C93      1.0000 0.05315  0.19694  0.96816  Biso   1.000  C
  C94      1.0000 0.15062  0.12853  0.97423  Biso   1.000  C
  C95      1.0000 0.19631  0.11413  0.01545  Biso   1.000  C
  C96      1.0000 0.54930  0.09879  0.14521  Biso   1.000  C
  C97      1.0000 0.58480  0.13854  0.05666  Biso   1.000  C
  C98      1.0000 0.65777  0.14459  0.01327  Biso   1.000  C
  C99      1.0000 0.77815  0.11268  0.01062  Biso   1.000  C
  C100     1.0000 0.82383  0.07763  0.05211  Biso   1.000  C
  C101     1.0000 0.75028  0.07237  0.09567  Biso   1.000  C
  C102     1.0000 0.81337  0.16398  0.92768  Biso   1.000  C
  C103     1.0000 0.02656  0.14773  0.89775  Biso   1.000  C
  C104     1.0000 0.93316  0.06445  0.86663  Biso   1.000  C
  C105     1.0000 0.63044  0.10232  0.09860  Biso   1.000  C
  C106     1.0000 0.57900  0.00820  0.33320  Biso   1.000  C
  C107     1.0000 0.55690  0.96900  0.42400  Biso   1.000  C
  C108     1.0000 0.70020  0.89800  0.35360  Biso   1.000  C
  C109     1.0000 0.31108  0.98796  0.23868  Biso   1.000  C
  C110     1.0000 0.27331  0.91650  0.26308  Biso   1.000  C
  C111     1.0000 0.16720  0.91121  0.25899  Biso   1.000  C
  C112     1.0000 0.13085  0.84612  0.28298  Biso   1.000  C
  C113     1.0000 0.20200  0.78706  0.31214  Biso   1.000  C
  C114     1.0000 0.30949  0.79036  0.31626  Biso   1.000  C
  C115     1.0000 0.34331  0.85637  0.29181  Biso   1.000  C
  C116     1.0000 0.05919  0.72003  0.34539  Biso   1.000  C
  C117     1.0000 0.05364  0.64926  0.38446  Biso   1.000  C
  C118     1.0000 0.29482  0.23277  0.24839  Biso   1.000  C
  C119     1.0000 0.24570  0.31513  0.26947  Biso   1.000  C
  C120     1.0000 0.29634  0.33446  0.30346  Biso   1.000  C
  C121     1.0000 0.24886  0.41000  0.32368  Biso   1.000  C
  C122     1.0000 0.14972  0.46923  0.31013  Biso   1.000  C
  C123     1.0000 0.09682  0.45229  0.27547  Biso   1.000  C
  C124     1.0000 0.14624  0.37565  0.25547  Biso   1.000  C
  C125     1.0000 0.55059  0.64959  0.59703  Biso   1.000  C
  C126     1.0000 0.63341  0.66773  0.55145  Biso   1.000  C
  C127     1.0000 0.66593  0.73695  0.54559  Biso   1.000  C
  C128     1.0000 0.74253  0.75236  0.50358  Biso   1.000  C
  C129     1.0000 0.78175  0.69694  0.46816  Biso   1.000  C
  C130     1.0000 0.74662  0.62853  0.47423  Biso   1.000  C
  C131     1.0000 0.67411  0.61413  0.51545  Biso   1.000  C
  C132     1.0000 0.20670  0.59879  0.64521  Biso   1.000  C
  C133     1.0000 0.22000  0.63854  0.55666  Biso   1.000  C
  C134     1.0000 0.18437  0.64459  0.51327  Biso   1.000  C
  C135     1.0000 0.09855  0.61268  0.51062  Biso   1.000  C
  C136     1.0000 0.04643  0.57763  0.55211  Biso   1.000  C
  C137     1.0000 0.08168  0.57237  0.59567  Biso   1.000  C
  C138     1.0000 0.09497  0.66398  0.42768  Biso   1.000  C
  C139     1.0000 0.92796  0.64773  0.39775  Biso   1.000  C
  C140     1.0000 0.13576  0.56445  0.36663  Biso   1.000  C
  C141     1.0000 0.16864  0.60232  0.59860  Biso   1.000  C
  C142     1.0000 0.07960  0.50820  0.83320  Biso   1.000  C
  C143     1.0000 0.05010  0.46900  0.92400  Biso   1.000  C
  C144     1.0000 0.04820  0.39800  0.85360  Biso   1.000  C
  N3       1.0000 0.58320  0.94910  0.37290  Biso   1.000  N
  N4       1.0000 0.09480  0.44910  0.87290  Biso   1.000  N
  O27      1.0000 0.58819  0.01511  0.29011  Biso   1.000  O
  O28      1.0000 0.31972  0.71976  0.71960  Biso   1.000  O
  O29      1.0000 0.49951  0.54143  0.71147  Biso   1.000  O
  O30      1.0000 0.03284  0.04615  0.82835  Biso   1.000  O
  O31      1.0000 0.44127  0.13215  0.14505  Biso   1.000  O
  O32      1.0000 0.59209  0.06483  0.18237  Biso   1.000  O
  O33      1.0000 0.00022  0.21578  0.92738  Biso   1.000  O
  O34      1.0000 0.28084  0.08130  0.10242  Biso   1.000  O
  O35      1.0000 0.85732  0.11102  0.96878  Biso   1.000  O
  O36      1.0000 0.35770  0.48938  0.74682  Biso   1.000  O
  O37      1.0000 0.16763  0.20372  0.12662  Biso   1.000  O
  O38      1.0000 0.17050  0.67987  0.76193  Biso   1.000  O
  O39      1.0000 0.76437  0.22142  0.83858  Biso   1.000  O
  O40      1.0000 0.10659  0.51511  0.79011  Biso   1.000  O
  O41      1.0000 0.24092  0.21976  0.21960  Biso   1.000  O
  O42      1.0000 0.24759  0.04143  0.21147  Biso   1.000  O
  O43      1.0000 0.09266  0.54615  0.32835  Biso   1.000  O
  O44      1.0000 0.28153  0.63215  0.64505  Biso   1.000  O
  O45      1.0000 0.16071  0.56483  0.68237  Biso   1.000  O
  O46      1.0000 0.85662  0.71578  0.42738  Biso   1.000  O
  O47      1.0000 0.53544  0.58130  0.60242  Biso   1.000  O
  O48      1.0000 0.06288  0.61102  0.46878  Biso   1.000  O
  O49      1.0000 0.40610  0.98938  0.24682  Biso   1.000  O
  O50      1.0000 0.50203  0.70372  0.62662  Biso   1.000  O
  O51      1.0000 0.38770  0.17987  0.26193  Biso   1.000  O
  O52      1.0000 0.17563  0.72142  0.33858  Biso   1.000  O
