data_image0
_cell_length_a       6.9314
_cell_length_b       12.382
_cell_length_c       27.738
_cell_angle_alpha    96.641
_cell_angle_beta     91.231
_cell_angle_gamma    104.221

_symmetry_space_group_name_H-M    P 1
_symmetry_int_tables_number       1

loop_
  _symmetry_equiv_pos_as_xyz
  'x, y, z'

loop_
  _atom_site_label
  _atom_site_occupancy
  _atom_site_fract_x
  _atom_site_fract_y
  _atom_site_fract_z
  _atom_site_thermal_displace_type
  _atom_site_B_iso_or_equiv
  _atom_site_type_symbol
  Zn1      1.0000 0.29653  0.42769  0.49637  Biso   1.000  Zn
  Zn2      1.0000 0.01110  0.63517  0.99101  Biso   1.000  Zn
  Zn3      1.0000 0.70347  0.57231  0.50363  Biso   1.000  Zn
  Zn4      1.0000 0.98890  0.36483  0.00899  Biso   1.000  Zn
  H1       1.0000 0.95390  0.38430  0.60240  Biso   1.000  H
  H2       1.0000 0.04010  0.27570  0.65880  Biso   1.000  H
  H3       1.0000 0.46080  0.10950  0.66020  Biso   1.000  H
  H4       1.0000 0.37760  0.21390  0.60330  Biso   1.000  H
  H5       1.0000 0.09140  0.13990  0.69820  Biso   1.000  H
  H6       1.0000 0.01360  0.21200  0.74200  Biso   1.000  H
  H7       1.0000 0.91050  0.91810  0.69560  Biso   1.000  H
  H8       1.0000 0.97990  0.87540  0.74390  Biso   1.000  H
  H9       1.0000 0.53810  0.93830  0.68000  Biso   1.000  H
  H10      1.0000 0.62280  0.80830  0.62280  Biso   1.000  H
  H11      1.0000 0.04980  0.62910  0.60860  Biso   1.000  H
  H12      1.0000 0.96310  0.76070  0.66450  Biso   1.000  H
  H13      1.0000 0.29630  0.12030  0.77220  Biso   1.000  H
  H14      1.0000 0.19850  0.03080  0.80800  Biso   1.000  H
  H15      1.0000 0.12490  0.35520  0.87730  Biso   1.000  H
  H16      1.0000 0.38240  0.47660  0.92750  Biso   1.000  H
  H17      1.0000 0.74280  0.27140  0.89310  Biso   1.000  H
  H18      1.0000 0.48930  0.15210  0.84080  Biso   1.000  H
  H19      1.0000 0.68530  0.98080  0.75880  Biso   1.000  H
  H20      1.0000 0.77430  0.08670  0.79910  Biso   1.000  H
  H21      1.0000 0.44700  0.93550  0.80750  Biso   1.000  H
  H22      1.0000 0.19750  0.83850  0.85310  Biso   1.000  H
  H23      1.0000 0.60480  0.71420  0.92040  Biso   1.000  H
  H24      1.0000 0.84920  0.80540  0.87280  Biso   1.000  H
  H25      1.0000 0.69870  0.74600  0.00640  Biso   1.000  H
  H26      1.0000 0.95500  0.05560  0.05680  Biso   1.000  H
  H27      1.0000 0.92800  0.98660  0.10260  Biso   1.000  H
  H28      1.0000 0.07360  0.96110  0.06110  Biso   1.000  H
  H29      1.0000 0.48430  0.85490  0.02050  Biso   1.000  H
  H30      1.0000 0.53280  0.93190  0.07180  Biso   1.000  H
  H31      1.0000 0.58310  0.98660  0.02270  Biso   1.000  H
  H32      1.0000 0.04610  0.61570  0.39760  Biso   1.000  H
  H33      1.0000 0.95990  0.72430  0.34120  Biso   1.000  H
  H34      1.0000 0.53920  0.89050  0.33980  Biso   1.000  H
  H35      1.0000 0.62240  0.78610  0.39670  Biso   1.000  H
  H36      1.0000 0.90860  0.86010  0.30180  Biso   1.000  H
  H37      1.0000 0.98640  0.78800  0.25800  Biso   1.000  H
  H38      1.0000 0.08950  0.08190  0.30440  Biso   1.000  H
  H39      1.0000 0.02010  0.12460  0.25610  Biso   1.000  H
  H40      1.0000 0.46190  0.06170  0.32000  Biso   1.000  H
  H41      1.0000 0.37720  0.19170  0.37720  Biso   1.000  H
  H42      1.0000 0.95020  0.37090  0.39140  Biso   1.000  H
  H43      1.0000 0.03690  0.23930  0.33550  Biso   1.000  H
  H44      1.0000 0.70370  0.87970  0.22780  Biso   1.000  H
  H45      1.0000 0.80150  0.96920  0.19200  Biso   1.000  H
  H46      1.0000 0.87510  0.64480  0.12270  Biso   1.000  H
  H47      1.0000 0.61760  0.52340  0.07250  Biso   1.000  H
  H48      1.0000 0.25720  0.72860  0.10690  Biso   1.000  H
  H49      1.0000 0.51070  0.84790  0.15920  Biso   1.000  H
  H50      1.0000 0.31470  0.01920  0.24120  Biso   1.000  H
  H51      1.0000 0.22570  0.91330  0.20090  Biso   1.000  H
  H52      1.0000 0.55300  0.06450  0.19250  Biso   1.000  H
  H53      1.0000 0.80250  0.16150  0.14690  Biso   1.000  H
  H54      1.0000 0.39520  0.28580  0.07960  Biso   1.000  H
  H55      1.0000 0.15080  0.19460  0.12720  Biso   1.000  H
  H56      1.0000 0.30130  0.25400  0.99360  Biso   1.000  H
  H57      1.0000 0.04500  0.94440  0.94320  Biso   1.000  H
  H58      1.0000 0.07200  0.01340  0.89740  Biso   1.000  H
  H59      1.0000 0.92640  0.03890  0.93890  Biso   1.000  H
  H60      1.0000 0.51570  0.14510  0.97950  Biso   1.000  H
  H61      1.0000 0.46720  0.06810  0.92820  Biso   1.000  H
  H62      1.0000 0.41690  0.01340  0.97730  Biso   1.000  H
  C1       1.0000 0.60180  0.37840  0.56060  Biso   1.000  C
  C2       1.0000 0.65690  0.30990  0.59660  Biso   1.000  C
  C3       1.0000 0.85330  0.32750  0.61380  Biso   1.000  C
  C4       1.0000 0.90500  0.26350  0.64770  Biso   1.000  C
  C5       1.0000 0.76000  0.18290  0.66470  Biso   1.000  C
  C6       1.0000 0.56170  0.16510  0.64810  Biso   1.000  C
  C7       1.0000 0.51270  0.22720  0.61460  Biso   1.000  C
  C8       1.0000 0.98670  0.13770  0.72200  Biso   1.000  C
  C9       1.0000 0.98810  0.04730  0.75400  Biso   1.000  C
  C10      1.0000 0.00860  0.93770  0.72370  Biso   1.000  C
  C11      1.0000 0.23950  0.86360  0.67630  Biso   1.000  C
  C12      1.0000 0.43790  0.87620  0.66470  Biso   1.000  C
  C13      1.0000 0.48780  0.79830  0.63110  Biso   1.000  C
  C14      1.0000 0.34760  0.70670  0.60930  Biso   1.000  C
  C15      1.0000 0.14910  0.69300  0.62270  Biso   1.000  C
  C16      1.0000 0.09750  0.77090  0.65580  Biso   1.000  C
  C17      1.0000 0.40220  0.62590  0.57040  Biso   1.000  C
  C18      1.0000 0.17600  0.09160  0.79010  Biso   1.000  C
  C19      1.0000 0.29040  0.24650  0.85280  Biso   1.000  C
  C20      1.0000 0.25220  0.33980  0.87970  Biso   1.000  C
  C21      1.0000 0.40450  0.41020  0.91030  Biso   1.000  C
  C22      1.0000 0.58400  0.38660  0.91610  Biso   1.000  C
  C23      1.0000 0.61770  0.28900  0.88950  Biso   1.000  C
  C24      1.0000 0.46830  0.21860  0.85820  Biso   1.000  C
  C25      1.0000 0.75500  0.46270  0.94730  Biso   1.000  C
  C26      1.0000 0.80080  0.01800  0.78150  Biso   1.000  C
  C27      1.0000 0.67110  0.88440  0.83800  Biso   1.000  C
  C28      1.0000 0.47900  0.89150  0.83090  Biso   1.000  C
  C29      1.0000 0.33110  0.83390  0.85810  Biso   1.000  C
  C30      1.0000 0.37640  0.77000  0.89250  Biso   1.000  C
  C31      1.0000 0.57240  0.75960  0.89770  Biso   1.000  C
  C32      1.0000 0.71760  0.81470  0.87000  Biso   1.000  C
  C33      1.0000 0.22220  0.71850  0.92580  Biso   1.000  C
  C34      1.0000 0.80900  0.79990  0.02300  Biso   1.000  C
  C35      1.0000 0.94900  0.98230  0.06760  Biso   1.000  C
  C36      1.0000 0.57800  0.91980  0.03880  Biso   1.000  C
  C37      1.0000 0.39820  0.62160  0.43940  Biso   1.000  C
  C38      1.0000 0.34310  0.69010  0.40340  Biso   1.000  C
  C39      1.0000 0.14670  0.67250  0.38620  Biso   1.000  C
  C40      1.0000 0.09500  0.73650  0.35230  Biso   1.000  C
  C41      1.0000 0.24000  0.81710  0.33530  Biso   1.000  C
  C42      1.0000 0.43830  0.83490  0.35190  Biso   1.000  C
  C43      1.0000 0.48730  0.77280  0.38540  Biso   1.000  C
  C44      1.0000 0.01330  0.86230  0.27800  Biso   1.000  C
  C45      1.0000 0.01190  0.95270  0.24600  Biso   1.000  C
  C46      1.0000 0.99140  0.06230  0.27630  Biso   1.000  C
  C47      1.0000 0.76050  0.13640  0.32370  Biso   1.000  C
  C48      1.0000 0.56210  0.12380  0.33530  Biso   1.000  C
  C49      1.0000 0.51220  0.20170  0.36890  Biso   1.000  C
  C50      1.0000 0.65240  0.29330  0.39070  Biso   1.000  C
  C51      1.0000 0.85090  0.30700  0.37730  Biso   1.000  C
  C52      1.0000 0.90250  0.22910  0.34420  Biso   1.000  C
  C53      1.0000 0.59780  0.37410  0.42960  Biso   1.000  C
  C54      1.0000 0.82400  0.90840  0.20990  Biso   1.000  C
  C55      1.0000 0.70960  0.75350  0.14720  Biso   1.000  C
  C56      1.0000 0.74780  0.66020  0.12030  Biso   1.000  C
  C57      1.0000 0.59550  0.58980  0.08970  Biso   1.000  C
  C58      1.0000 0.41600  0.61340  0.08390  Biso   1.000  C
  C59      1.0000 0.38230  0.71100  0.11050  Biso   1.000  C
  C60      1.0000 0.53170  0.78140  0.14180  Biso   1.000  C
  C61      1.0000 0.24500  0.53730  0.05270  Biso   1.000  C
  C62      1.0000 0.19920  0.98200  0.21850  Biso   1.000  C
  C63      1.0000 0.32890  0.11560  0.16200  Biso   1.000  C
  C64      1.0000 0.52100  0.10850  0.16910  Biso   1.000  C
  C65      1.0000 0.66890  0.16610  0.14190  Biso   1.000  C
  C66      1.0000 0.62360  0.23000  0.10750  Biso   1.000  C
  C67      1.0000 0.42760  0.24040  0.10230  Biso   1.000  C
  C68      1.0000 0.28240  0.18530  0.13000  Biso   1.000  C
  C69      1.0000 0.77780  0.28150  0.07420  Biso   1.000  C
  C70      1.0000 0.19100  0.20010  0.97700  Biso   1.000  C
  C71      1.0000 0.05100  0.01770  0.93240  Biso   1.000  C
  C72      1.0000 0.42200  0.08020  0.96120  Biso   1.000  C
  N1       1.0000 0.78300  0.89800  0.04130  Biso   1.000  N
  N2       1.0000 0.21700  0.10200  0.95870  Biso   1.000  N
  O1       1.0000 0.01350  0.34400  0.49210  Biso   1.000  O
  O2       1.0000 0.42610  0.35370  0.54440  Biso   1.000  O
  O3       1.0000 0.73260  0.45680  0.54810  Biso   1.000  O
  O4       1.0000 0.79380  0.11270  0.69720  Biso   1.000  O
  O5       1.0000 0.20430  0.95170  0.70680  Biso   1.000  O
  O6       1.0000 0.27200  0.54600  0.55250  Biso   1.000  O
  O7       1.0000 0.58070  0.65000  0.55820  Biso   1.000  O
  O8       1.0000 0.13380  0.18080  0.82320  Biso   1.000  O
  O9       1.0000 0.73170  0.55300  0.96740  Biso   1.000  O
  O10      1.0000 0.91940  0.43330  0.95070  Biso   1.000  O
  O11      1.0000 0.83230  0.94310  0.81540  Biso   1.000  O
  O12      1.0000 0.04570  0.71680  0.91790  Biso   1.000  O
  O13      1.0000 0.27830  0.67720  0.96210  Biso   1.000  O
  O14      1.0000 0.96650  0.77560  0.02660  Biso   1.000  O
  O15      1.0000 0.98650  0.65600  0.50790  Biso   1.000  O
  O16      1.0000 0.57390  0.64630  0.45560  Biso   1.000  O
  O17      1.0000 0.26740  0.54320  0.45190  Biso   1.000  O
  O18      1.0000 0.20620  0.88730  0.30280  Biso   1.000  O
  O19      1.0000 0.79570  0.04830  0.29320  Biso   1.000  O
  O20      1.0000 0.72800  0.45400  0.44750  Biso   1.000  O
  O21      1.0000 0.41930  0.35000  0.44180  Biso   1.000  O
  O22      1.0000 0.86620  0.81920  0.17680  Biso   1.000  O
  O23      1.0000 0.26830  0.44700  0.03260  Biso   1.000  O
  O24      1.0000 0.08060  0.56670  0.04930  Biso   1.000  O
  O25      1.0000 0.16770  0.05690  0.18460  Biso   1.000  O
  O26      1.0000 0.95430  0.28320  0.08210  Biso   1.000  O
  O27      1.0000 0.72170  0.32280  0.03790  Biso   1.000  O
  O28      1.0000 0.03350  0.22440  0.97340  Biso   1.000  O
