data_image0
_cell_length_a       8.94
_cell_length_b       12.48
_cell_length_c       14.02
_cell_angle_alpha    90
_cell_angle_beta     90
_cell_angle_gamma    91.73

_symmetry_space_group_name_H-M    P 1
_symmetry_int_tables_number       1

loop_
  _symmetry_equiv_pos_as_xyz
  'x, y, z'

loop_
  _atom_site_label
  _atom_site_occupancy
  _atom_site_fract_x
  _atom_site_fract_y
  _atom_site_fract_z
  _atom_site_thermal_displace_type
  _atom_site_B_iso_or_equiv
  _atom_site_type_symbol
  Zn1      1.0000 0.75000  0.25000  0.32633  Biso   1.000  Zn
  Zn2      1.0000 0.75000  0.25000  0.83874  Biso   1.000  Zn
  Zn3      1.0000 0.25000  0.75000  0.67367  Biso   1.000  Zn
  Zn4      1.0000 0.25000  0.75000  0.16126  Biso   1.000  Zn
  H1       1.0000 0.44100  0.46460  0.15250  Biso   1.000  H
  H2       1.0000 0.45110  0.35570  0.09390  Biso   1.000  H
  H3       1.0000 0.62220  0.54680  0.05560  Biso   1.000  H
  H4       1.0000 0.02580  0.49760  0.66220  Biso   1.000  H
  H5       1.0000 0.06480  0.38070  0.62470  Biso   1.000  H
  H6       1.0000 0.84910  0.50870  0.53260  Biso   1.000  H
  H7       1.0000 0.05900  0.03540  0.15250  Biso   1.000  H
  H8       1.0000 0.04890  0.14430  0.09390  Biso   1.000  H
  H9       1.0000 0.87780  0.95320  0.05560  Biso   1.000  H
  H10      1.0000 0.47420  0.00240  0.66220  Biso   1.000  H
  H11      1.0000 0.43520  0.11930  0.62470  Biso   1.000  H
  H12      1.0000 0.65090  0.99130  0.53260  Biso   1.000  H
  H13      1.0000 0.55900  0.53540  0.84750  Biso   1.000  H
  H14      1.0000 0.54890  0.64430  0.90610  Biso   1.000  H
  H15      1.0000 0.37780  0.45320  0.94440  Biso   1.000  H
  H16      1.0000 0.97420  0.50240  0.33780  Biso   1.000  H
  H17      1.0000 0.93520  0.61930  0.37530  Biso   1.000  H
  H18      1.0000 0.15090  0.49130  0.46740  Biso   1.000  H
  H19      1.0000 0.94100  0.96460  0.84750  Biso   1.000  H
  H20      1.0000 0.95110  0.85570  0.90610  Biso   1.000  H
  H21      1.0000 0.12220  0.04680  0.94440  Biso   1.000  H
  H22      1.0000 0.52580  0.99760  0.33780  Biso   1.000  H
  H23      1.0000 0.56480  0.88070  0.37530  Biso   1.000  H
  H24      1.0000 0.34910  0.00870  0.46740  Biso   1.000  H
  C1       1.0000 0.62430  0.37830  0.18830  Biso   1.000  C
  C2       1.0000 0.51050  0.41850  0.11750  Biso   1.000  C
  C3       1.0000 0.56820  0.48100  0.03130  Biso   1.000  C
  C4       1.0000 0.68120  0.41680  0.97330  Biso   1.000  C
  C5       1.0000 0.85390  0.38490  0.68720  Biso   1.000  C
  C6       1.0000 0.98460  0.43360  0.62840  Biso   1.000  C
  C7       1.0000 0.94160  0.46580  0.52770  Biso   1.000  C
  C8       1.0000 0.90420  0.37050  0.46720  Biso   1.000  C
  C9       1.0000 0.87570  0.12170  0.18830  Biso   1.000  C
  C10      1.0000 0.98950  0.08150  0.11750  Biso   1.000  C
  C11      1.0000 0.93180  0.01900  0.03130  Biso   1.000  C
  C12      1.0000 0.81880  0.08320  0.97330  Biso   1.000  C
  C13      1.0000 0.64610  0.11510  0.68720  Biso   1.000  C
  C14      1.0000 0.51540  0.06640  0.62840  Biso   1.000  C
  C15      1.0000 0.55840  0.03420  0.52770  Biso   1.000  C
  C16      1.0000 0.59580  0.12950  0.46720  Biso   1.000  C
  C17      1.0000 0.37570  0.62170  0.81170  Biso   1.000  C
  C18      1.0000 0.48950  0.58150  0.88250  Biso   1.000  C
  C19      1.0000 0.43180  0.51900  0.96870  Biso   1.000  C
  C20      1.0000 0.31880  0.58320  0.02670  Biso   1.000  C
  C21      1.0000 0.14610  0.61510  0.31280  Biso   1.000  C
  C22      1.0000 0.01540  0.56640  0.37160  Biso   1.000  C
  C23      1.0000 0.05840  0.53420  0.47230  Biso   1.000  C
  C24      1.0000 0.09580  0.62950  0.53280  Biso   1.000  C
  C25      1.0000 0.12430  0.87830  0.81170  Biso   1.000  C
  C26      1.0000 0.01050  0.91850  0.88250  Biso   1.000  C
  C27      1.0000 0.06820  0.98100  0.96870  Biso   1.000  C
  C28      1.0000 0.18120  0.91680  0.02670  Biso   1.000  C
  C29      1.0000 0.35390  0.88490  0.31280  Biso   1.000  C
  C30      1.0000 0.48460  0.93360  0.37160  Biso   1.000  C
  C31      1.0000 0.44160  0.96580  0.47230  Biso   1.000  C
  C32      1.0000 0.40420  0.87050  0.53280  Biso   1.000  C
  O1       1.0000 0.58480  0.30310  0.24540  Biso   1.000  O
  O2       1.0000 0.81420  0.43940  0.97370  Biso   1.000  O
  O3       1.0000 0.62270  0.33660  0.92230  Biso   1.000  O
  O4       1.0000 0.89960  0.33530  0.76920  Biso   1.000  O
  O5       1.0000 0.72660  0.39320  0.66830  Biso   1.000  O
  O6       1.0000 0.78450  0.37200  0.41460  Biso   1.000  O
  O7       1.0000 0.98880  0.29340  0.46250  Biso   1.000  O
  O8       1.0000 0.75500  0.42520  0.19340  Biso   1.000  O
  O9       1.0000 0.91520  0.19690  0.24540  Biso   1.000  O
  O10      1.0000 0.68580  0.06060  0.97370  Biso   1.000  O
  O11      1.0000 0.87730  0.16340  0.92230  Biso   1.000  O
  O12      1.0000 0.60040  0.16470  0.76920  Biso   1.000  O
  O13      1.0000 0.77340  0.10680  0.66830  Biso   1.000  O
  O14      1.0000 0.71550  0.12800  0.41460  Biso   1.000  O
  O15      1.0000 0.51120  0.20660  0.46250  Biso   1.000  O
  O16      1.0000 0.74500  0.07480  0.19340  Biso   1.000  O
  O17      1.0000 0.41520  0.69690  0.75460  Biso   1.000  O
  O18      1.0000 0.18580  0.56060  0.02630  Biso   1.000  O
  O19      1.0000 0.37730  0.66340  0.07770  Biso   1.000  O
  O20      1.0000 0.10040  0.66470  0.23080  Biso   1.000  O
  O21      1.0000 0.27340  0.60680  0.33170  Biso   1.000  O
  O22      1.0000 0.21550  0.62800  0.58540  Biso   1.000  O
  O23      1.0000 0.01120  0.70660  0.53750  Biso   1.000  O
  O24      1.0000 0.24500  0.57480  0.80660  Biso   1.000  O
  O25      1.0000 0.08480  0.80310  0.75460  Biso   1.000  O
  O26      1.0000 0.31420  0.93940  0.02630  Biso   1.000  O
  O27      1.0000 0.12270  0.83660  0.07770  Biso   1.000  O
  O28      1.0000 0.39960  0.83530  0.23080  Biso   1.000  O
  O29      1.0000 0.22660  0.89320  0.33170  Biso   1.000  O
  O30      1.0000 0.28450  0.87200  0.58540  Biso   1.000  O
  O31      1.0000 0.48880  0.79340  0.53750  Biso   1.000  O
  O32      1.0000 0.25500  0.92520  0.80660  Biso   1.000  O
