data_image0
_cell_length_a       12.463
_cell_length_b       12.463
_cell_length_c       12.463
_cell_angle_alpha    90
_cell_angle_beta     90
_cell_angle_gamma    90

_symmetry_space_group_name_H-M    "P 1"
_symmetry_int_tables_number       1

loop_
  _symmetry_equiv_pos_as_xyz
  'x, y, z'

loop_
  _atom_site_label
  _atom_site_occupancy
  _atom_site_fract_x
  _atom_site_fract_y
  _atom_site_fract_z
  _atom_site_thermal_displace_type
  _atom_site_B_iso_or_equiv
  _atom_site_type_symbol
  C1       1.0000 0.69010  0.31920  0.95070  Biso   1.000  C
  C2       1.0000 0.60230  0.26660  0.90630  Biso   1.000  C
  N1       1.0000 0.56160  0.17500  0.95530  Biso   1.000  N
  C3       1.0000 0.60870  0.13610  0.04860  Biso   1.000  C
  C4       1.0000 0.69650  0.18870  0.09290  Biso   1.000  C
  N2       1.0000 0.28030  0.04400  0.73720  Biso   1.000  N
  C5       1.0000 0.80990  0.68080  0.45070  Biso   1.000  C
  C6       1.0000 0.89770  0.73340  0.40630  Biso   1.000  C
  N3       1.0000 0.93840  0.82500  0.45530  Biso   1.000  N
  C7       1.0000 0.89130  0.86390  0.54860  Biso   1.000  C
  C8       1.0000 0.80350  0.81130  0.59290  Biso   1.000  C
  N4       1.0000 0.21970  0.95600  0.23720  Biso   1.000  N
  C9       1.0000 0.30990  0.81920  0.54930  Biso   1.000  C
  C10      1.0000 0.39770  0.76660  0.59370  Biso   1.000  C
  N5       1.0000 0.43840  0.67500  0.54470  Biso   1.000  N
  C11      1.0000 0.39130  0.63610  0.45140  Biso   1.000  C
  C12      1.0000 0.30350  0.68870  0.40710  Biso   1.000  C
  N6       1.0000 0.71970  0.54400  0.76280  Biso   1.000  N
  C13      1.0000 0.19010  0.18080  0.04930  Biso   1.000  C
  C14      1.0000 0.10230  0.23340  0.09370  Biso   1.000  C
  N7       1.0000 0.06160  0.32500  0.04470  Biso   1.000  N
  C15      1.0000 0.10870  0.36390  0.95140  Biso   1.000  C
  C16      1.0000 0.19650  0.31130  0.90710  Biso   1.000  C
  N8       1.0000 0.78030  0.45600  0.26280  Biso   1.000  N
  C17      1.0000 0.95070  0.69010  0.31920  Biso   1.000  C
  C18      1.0000 0.90630  0.60230  0.26660  Biso   1.000  C
  N9       1.0000 0.95530  0.56160  0.17500  Biso   1.000  N
  C19      1.0000 0.04860  0.60870  0.13610  Biso   1.000  C
  C20      1.0000 0.09290  0.69650  0.18870  Biso   1.000  C
  N10      1.0000 0.73720  0.28030  0.04400  Biso   1.000  N
  C21      1.0000 0.45070  0.80990  0.68080  Biso   1.000  C
  C22      1.0000 0.40630  0.89770  0.73340  Biso   1.000  C
  N11      1.0000 0.45530  0.93840  0.82500  Biso   1.000  N
  C23      1.0000 0.54860  0.89130  0.86390  Biso   1.000  C
  C24      1.0000 0.59290  0.80350  0.81130  Biso   1.000  C
  N12      1.0000 0.23720  0.21970  0.95600  Biso   1.000  N
  C25      1.0000 0.54930  0.30990  0.81920  Biso   1.000  C
  C26      1.0000 0.59370  0.39770  0.76660  Biso   1.000  C
  N13      1.0000 0.54470  0.43840  0.67500  Biso   1.000  N
  C27      1.0000 0.45140  0.39130  0.63610  Biso   1.000  C
  C28      1.0000 0.40710  0.30350  0.68870  Biso   1.000  C
  N14      1.0000 0.76280  0.71970  0.54400  Biso   1.000  N
  C29      1.0000 0.04930  0.19010  0.18080  Biso   1.000  C
  C30      1.0000 0.09370  0.10230  0.23340  Biso   1.000  C
  N15      1.0000 0.04470  0.06160  0.32500  Biso   1.000  N
  C31      1.0000 0.95140  0.10870  0.36390  Biso   1.000  C
  C32      1.0000 0.90710  0.19650  0.31130  Biso   1.000  C
  N16      1.0000 0.26280  0.78030  0.45600  Biso   1.000  N
  C33      1.0000 0.31920  0.95070  0.69010  Biso   1.000  C
  C34      1.0000 0.26660  0.90630  0.60230  Biso   1.000  C
  N17      1.0000 0.17500  0.95530  0.56160  Biso   1.000  N
  C35      1.0000 0.13610  0.04860  0.60870  Biso   1.000  C
  C36      1.0000 0.18870  0.09290  0.69650  Biso   1.000  C
  N18      1.0000 0.04400  0.73720  0.28030  Biso   1.000  N
  C37      1.0000 0.68080  0.45070  0.80990  Biso   1.000  C
  C38      1.0000 0.73340  0.40630  0.89770  Biso   1.000  C
  N19      1.0000 0.82500  0.45530  0.93840  Biso   1.000  N
  C39      1.0000 0.86390  0.54860  0.89130  Biso   1.000  C
  C40      1.0000 0.81130  0.59290  0.80350  Biso   1.000  C
  N20      1.0000 0.95600  0.23720  0.21970  Biso   1.000  N
  C41      1.0000 0.81920  0.54930  0.30990  Biso   1.000  C
  C42      1.0000 0.76660  0.59370  0.39770  Biso   1.000  C
  N21      1.0000 0.67500  0.54470  0.43840  Biso   1.000  N
  C43      1.0000 0.63610  0.45140  0.39130  Biso   1.000  C
  C44      1.0000 0.68870  0.40710  0.30350  Biso   1.000  C
  N22      1.0000 0.54400  0.76280  0.71970  Biso   1.000  N
  C45      1.0000 0.18080  0.04930  0.19010  Biso   1.000  C
  C46      1.0000 0.23340  0.09370  0.10230  Biso   1.000  C
  N23      1.0000 0.32500  0.04470  0.06160  Biso   1.000  N
  C47      1.0000 0.36390  0.95140  0.10870  Biso   1.000  C
  C48      1.0000 0.31130  0.90710  0.19650  Biso   1.000  C
  N24      1.0000 0.45600  0.26280  0.78030  Biso   1.000  N
  Ag1      1.0000 0.38770  0.11230  0.88770  Biso   1.000  Ag
  Ag2      1.0000 0.11230  0.88770  0.38770  Biso   1.000  Ag
  Ag3      1.0000 0.61230  0.61230  0.61230  Biso   1.000  Ag
  Ag4      1.0000 0.88770  0.38770  0.11230  Biso   1.000  Ag
