data_image0
_cell_length_a       15.745
_cell_length_b       16.907
_cell_length_c       18.167
_cell_angle_alpha    90
_cell_angle_beta     90
_cell_angle_gamma    90

_symmetry_space_group_name_H-M    P 1
_symmetry_int_tables_number       1

loop_
  _symmetry_equiv_pos_as_xyz
  'x, y, z'

loop_
  _atom_site_label
  _atom_site_occupancy
  _atom_site_fract_x
  _atom_site_fract_y
  _atom_site_fract_z
  _atom_site_thermal_displace_type
  _atom_site_B_iso_or_equiv
  _atom_site_type_symbol
  Zn1      1.0000 0.43410  0.82310  0.64440  Biso   1.000  Zn
  Zn2      1.0000 0.47930  0.64210  0.58920  Biso   1.000  Zn
  Zn3      1.0000 0.06590  0.17690  0.14440  Biso   1.000  Zn
  Zn4      1.0000 0.02070  0.35790  0.08920  Biso   1.000  Zn
  Zn5      1.0000 0.56590  0.32310  0.85560  Biso   1.000  Zn
  Zn6      1.0000 0.52070  0.14210  0.91080  Biso   1.000  Zn
  Zn7      1.0000 0.93410  0.67690  0.35560  Biso   1.000  Zn
  Zn8      1.0000 0.97930  0.85790  0.41080  Biso   1.000  Zn
  Zn9      1.0000 0.56590  0.17690  0.35560  Biso   1.000  Zn
  Zn10     1.0000 0.52070  0.35790  0.41080  Biso   1.000  Zn
  Zn11     1.0000 0.93410  0.82310  0.85560  Biso   1.000  Zn
  Zn12     1.0000 0.97930  0.64210  0.91080  Biso   1.000  Zn
  Zn13     1.0000 0.43410  0.67690  0.14440  Biso   1.000  Zn
  Zn14     1.0000 0.47930  0.85790  0.08920  Biso   1.000  Zn
  Zn15     1.0000 0.06590  0.32310  0.64440  Biso   1.000  Zn
  Zn16     1.0000 0.02070  0.14210  0.58920  Biso   1.000  Zn
  H1       1.0000 0.46940  0.79520  0.36850  Biso   1.000  H
  H2       1.0000 0.53340  0.72140  0.36540  Biso   1.000  H
  H3       1.0000 0.59500  0.93180  0.26170  Biso   1.000  H
  H4       1.0000 0.50700  0.92340  0.30540  Biso   1.000  H
  H5       1.0000 0.73270  0.93710  0.33330  Biso   1.000  H
  H6       1.0000 0.73210  0.93220  0.42120  Biso   1.000  H
  H7       1.0000 0.67290  0.72770  0.43480  Biso   1.000  H
  H8       1.0000 0.69600  0.80340  0.48390  Biso   1.000  H
  H9       1.0000 0.59190  0.92090  0.49050  Biso   1.000  H
  H10      1.0000 0.50500  0.91680  0.44450  Biso   1.000  H
  H11      1.0000 0.69730  0.81670  0.25880  Biso   1.000  H
  H12      1.0000 0.67390  0.73580  0.30000  Biso   1.000  H
  H13      1.0000 0.37160  0.49370  0.57160  Biso   1.000  H
  H14      1.0000 0.43770  0.42160  0.57320  Biso   1.000  H
  H15      1.0000 0.39880  0.51320  0.70200  Biso   1.000  H
  H16      1.0000 0.35470  0.42990  0.68490  Biso   1.000  H
  H17      1.0000 0.45450  0.43410  0.70100  Biso   1.000  H
  H18      1.0000 0.03060  0.20480  0.86850  Biso   1.000  H
  H19      1.0000 0.96660  0.27860  0.86540  Biso   1.000  H
  H20      1.0000 0.90500  0.06820  0.76170  Biso   1.000  H
  H21      1.0000 0.99300  0.07660  0.80540  Biso   1.000  H
  H22      1.0000 0.76730  0.06290  0.83330  Biso   1.000  H
  H23      1.0000 0.76790  0.06780  0.92120  Biso   1.000  H
  H24      1.0000 0.82710  0.27230  0.93480  Biso   1.000  H
  H25      1.0000 0.80400  0.19660  0.98390  Biso   1.000  H
  H26      1.0000 0.90810  0.07910  0.99050  Biso   1.000  H
  H27      1.0000 0.99500  0.08320  0.94450  Biso   1.000  H
  H28      1.0000 0.80270  0.18330  0.75880  Biso   1.000  H
  H29      1.0000 0.82610  0.26420  0.80000  Biso   1.000  H
  H30      1.0000 0.12840  0.50630  0.07160  Biso   1.000  H
  H31      1.0000 0.06230  0.57840  0.07320  Biso   1.000  H
  H32      1.0000 0.10120  0.48680  0.20200  Biso   1.000  H
  H33      1.0000 0.14530  0.57010  0.18490  Biso   1.000  H
  H34      1.0000 0.04550  0.56590  0.20100  Biso   1.000  H
  H35      1.0000 0.53060  0.29520  0.13150  Biso   1.000  H
  H36      1.0000 0.46660  0.22140  0.13460  Biso   1.000  H
  H37      1.0000 0.40500  0.43180  0.23830  Biso   1.000  H
  H38      1.0000 0.49300  0.42340  0.19460  Biso   1.000  H
  H39      1.0000 0.26730  0.43710  0.16670  Biso   1.000  H
  H40      1.0000 0.26790  0.43220  0.07880  Biso   1.000  H
  H41      1.0000 0.32710  0.22770  0.06520  Biso   1.000  H
  H42      1.0000 0.30400  0.30340  0.01610  Biso   1.000  H
  H43      1.0000 0.40810  0.42090  0.00950  Biso   1.000  H
  H44      1.0000 0.49500  0.41680  0.05550  Biso   1.000  H
  H45      1.0000 0.30270  0.31670  0.24120  Biso   1.000  H
  H46      1.0000 0.32610  0.23580  0.20000  Biso   1.000  H
  H47      1.0000 0.62840  0.99370  0.92840  Biso   1.000  H
  H48      1.0000 0.56230  0.92160  0.92680  Biso   1.000  H
  H49      1.0000 0.60120  0.01320  0.79800  Biso   1.000  H
  H50      1.0000 0.64530  0.92990  0.81510  Biso   1.000  H
  H51      1.0000 0.54550  0.93410  0.79900  Biso   1.000  H
  H52      1.0000 0.96940  0.70480  0.63150  Biso   1.000  H
  H53      1.0000 0.03340  0.77860  0.63460  Biso   1.000  H
  H54      1.0000 0.09500  0.56820  0.73830  Biso   1.000  H
  H55      1.0000 0.00700  0.57660  0.69460  Biso   1.000  H
  H56      1.0000 0.23270  0.56290  0.66670  Biso   1.000  H
  H57      1.0000 0.23210  0.56780  0.57880  Biso   1.000  H
  H58      1.0000 0.17290  0.77230  0.56520  Biso   1.000  H
  H59      1.0000 0.19600  0.69660  0.51610  Biso   1.000  H
  H60      1.0000 0.09190  0.57910  0.50950  Biso   1.000  H
  H61      1.0000 0.00500  0.58320  0.55550  Biso   1.000  H
  H62      1.0000 0.19730  0.68330  0.74120  Biso   1.000  H
  H63      1.0000 0.17390  0.76420  0.70000  Biso   1.000  H
  H64      1.0000 0.87160  0.00630  0.42840  Biso   1.000  H
  H65      1.0000 0.93770  0.07840  0.42680  Biso   1.000  H
  H66      1.0000 0.89880  0.98680  0.29800  Biso   1.000  H
  H67      1.0000 0.85470  0.07010  0.31510  Biso   1.000  H
  H68      1.0000 0.95450  0.06590  0.29900  Biso   1.000  H
  H69      1.0000 0.53060  0.20480  0.63150  Biso   1.000  H
  H70      1.0000 0.46660  0.27860  0.63460  Biso   1.000  H
  H71      1.0000 0.40500  0.06820  0.73830  Biso   1.000  H
  H72      1.0000 0.49300  0.07660  0.69460  Biso   1.000  H
  H73      1.0000 0.26730  0.06290  0.66670  Biso   1.000  H
  H74      1.0000 0.26790  0.06780  0.57880  Biso   1.000  H
  H75      1.0000 0.32710  0.27230  0.56520  Biso   1.000  H
  H76      1.0000 0.30400  0.19660  0.51610  Biso   1.000  H
  H77      1.0000 0.40810  0.07910  0.50950  Biso   1.000  H
  H78      1.0000 0.49500  0.08320  0.55550  Biso   1.000  H
  H79      1.0000 0.30270  0.18330  0.74120  Biso   1.000  H
  H80      1.0000 0.32610  0.26420  0.70000  Biso   1.000  H
  H81      1.0000 0.62840  0.50630  0.42840  Biso   1.000  H
  H82      1.0000 0.56230  0.57840  0.42680  Biso   1.000  H
  H83      1.0000 0.60120  0.48680  0.29800  Biso   1.000  H
  H84      1.0000 0.64530  0.57010  0.31510  Biso   1.000  H
  H85      1.0000 0.54550  0.56590  0.29900  Biso   1.000  H
  H86      1.0000 0.96940  0.79520  0.13150  Biso   1.000  H
  H87      1.0000 0.03340  0.72140  0.13460  Biso   1.000  H
  H88      1.0000 0.09500  0.93180  0.23830  Biso   1.000  H
  H89      1.0000 0.00700  0.92340  0.19460  Biso   1.000  H
  H90      1.0000 0.23270  0.93710  0.16670  Biso   1.000  H
  H91      1.0000 0.23210  0.93220  0.07880  Biso   1.000  H
  H92      1.0000 0.17290  0.72770  0.06520  Biso   1.000  H
  H93      1.0000 0.19600  0.80340  0.01610  Biso   1.000  H
  H94      1.0000 0.09190  0.92090  0.00950  Biso   1.000  H
  H95      1.0000 0.00500  0.91680  0.05550  Biso   1.000  H
  H96      1.0000 0.19730  0.81670  0.24120  Biso   1.000  H
  H97      1.0000 0.17390  0.73580  0.20000  Biso   1.000  H
  H98      1.0000 0.87160  0.49370  0.92840  Biso   1.000  H
  H99      1.0000 0.93770  0.42160  0.92680  Biso   1.000  H
  H100     1.0000 0.89880  0.51320  0.79800  Biso   1.000  H
  H101     1.0000 0.85470  0.42990  0.81510  Biso   1.000  H
  H102     1.0000 0.95450  0.43410  0.79900  Biso   1.000  H
  H103     1.0000 0.46940  0.70480  0.86850  Biso   1.000  H
  H104     1.0000 0.53340  0.77860  0.86540  Biso   1.000  H
  H105     1.0000 0.59500  0.56820  0.76170  Biso   1.000  H
  H106     1.0000 0.50700  0.57660  0.80540  Biso   1.000  H
  H107     1.0000 0.73270  0.56290  0.83330  Biso   1.000  H
  H108     1.0000 0.73210  0.56780  0.92120  Biso   1.000  H
  H109     1.0000 0.67290  0.77230  0.93480  Biso   1.000  H
  H110     1.0000 0.69600  0.69660  0.98390  Biso   1.000  H
  H111     1.0000 0.59190  0.57910  0.99050  Biso   1.000  H
  H112     1.0000 0.50500  0.58320  0.94450  Biso   1.000  H
  H113     1.0000 0.69730  0.68330  0.75880  Biso   1.000  H
  H114     1.0000 0.67390  0.76420  0.80000  Biso   1.000  H
  H115     1.0000 0.37160  0.00630  0.07160  Biso   1.000  H
  H116     1.0000 0.43770  0.07840  0.07320  Biso   1.000  H
  H117     1.0000 0.39880  0.98680  0.20200  Biso   1.000  H
  H118     1.0000 0.35470  0.07010  0.18490  Biso   1.000  H
  H119     1.0000 0.45450  0.06590  0.20100  Biso   1.000  H
  H120     1.0000 0.03060  0.29520  0.36850  Biso   1.000  H
  H121     1.0000 0.96660  0.22140  0.36540  Biso   1.000  H
  H122     1.0000 0.90500  0.43180  0.26170  Biso   1.000  H
  H123     1.0000 0.99300  0.42340  0.30540  Biso   1.000  H
  H124     1.0000 0.76730  0.43710  0.33330  Biso   1.000  H
  H125     1.0000 0.76790  0.43220  0.42120  Biso   1.000  H
  H126     1.0000 0.82710  0.22770  0.43480  Biso   1.000  H
  H127     1.0000 0.80400  0.30340  0.48390  Biso   1.000  H
  H128     1.0000 0.90810  0.42090  0.49050  Biso   1.000  H
  H129     1.0000 0.99500  0.41680  0.44450  Biso   1.000  H
  H130     1.0000 0.80270  0.31670  0.25880  Biso   1.000  H
  H131     1.0000 0.82610  0.23580  0.30000  Biso   1.000  H
  H132     1.0000 0.12840  0.99370  0.57160  Biso   1.000  H
  H133     1.0000 0.06230  0.92160  0.57320  Biso   1.000  H
  H134     1.0000 0.10120  0.01320  0.70200  Biso   1.000  H
  H135     1.0000 0.14530  0.92990  0.68490  Biso   1.000  H
  H136     1.0000 0.04550  0.93410  0.70100  Biso   1.000  H
  C1       1.0000 0.53030  0.77010  0.50590  Biso   1.000  C
  C2       1.0000 0.57360  0.80920  0.44030  Biso   1.000  C
  C3       1.0000 0.53000  0.77980  0.36840  Biso   1.000  C
  C4       1.0000 0.57510  0.81690  0.30150  Biso   1.000  C
  C5       1.0000 0.56760  0.90790  0.30540  Biso   1.000  C
  C6       1.0000 0.61140  0.93900  0.37680  Biso   1.000  C
  C7       1.0000 0.70370  0.91290  0.37600  Biso   1.000  C
  C8       1.0000 0.71280  0.82360  0.37180  Biso   1.000  C
  C9       1.0000 0.66790  0.78600  0.43790  Biso   1.000  C
  C10      1.0000 0.56570  0.90140  0.44440  Biso   1.000  C
  C11      1.0000 0.66880  0.79410  0.30260  Biso   1.000  C
  C12      1.0000 0.53280  0.78990  0.23060  Biso   1.000  C
  C13      1.0000 0.60640  0.02890  0.38180  Biso   1.000  C
  C14      1.0000 0.80610  0.79930  0.37410  Biso   1.000  C
  C15      1.0000 0.42350  0.47320  0.59580  Biso   1.000  C
  C16      1.0000 0.40630  0.46150  0.67840  Biso   1.000  C
  C17      1.0000 0.96970  0.22990  0.00590  Biso   1.000  C
  C18      1.0000 0.92640  0.19080  0.94030  Biso   1.000  C
  C19      1.0000 0.97000  0.22020  0.86840  Biso   1.000  C
  C20      1.0000 0.92490  0.18310  0.80150  Biso   1.000  C
  C21      1.0000 0.93240  0.09210  0.80540  Biso   1.000  C
  C22      1.0000 0.88860  0.06100  0.87680  Biso   1.000  C
  C23      1.0000 0.79630  0.08710  0.87600  Biso   1.000  C
  C24      1.0000 0.78720  0.17640  0.87180  Biso   1.000  C
  C25      1.0000 0.83210  0.21400  0.93790  Biso   1.000  C
  C26      1.0000 0.93430  0.09860  0.94440  Biso   1.000  C
  C27      1.0000 0.83120  0.20590  0.80260  Biso   1.000  C
  C28      1.0000 0.96720  0.21010  0.73060  Biso   1.000  C
  C29      1.0000 0.89360  0.97110  0.88180  Biso   1.000  C
  C30      1.0000 0.69390  0.20070  0.87410  Biso   1.000  C
  C31      1.0000 0.07650  0.52680  0.09580  Biso   1.000  C
  C32      1.0000 0.09370  0.53850  0.17840  Biso   1.000  C
  C33      1.0000 0.46970  0.27010  0.99410  Biso   1.000  C
  C34      1.0000 0.42640  0.30920  0.05970  Biso   1.000  C
  C35      1.0000 0.47000  0.27980  0.13160  Biso   1.000  C
  C36      1.0000 0.42490  0.31690  0.19850  Biso   1.000  C
  C37      1.0000 0.43240  0.40790  0.19460  Biso   1.000  C
  C38      1.0000 0.38860  0.43900  0.12320  Biso   1.000  C
  C39      1.0000 0.29630  0.41290  0.12400  Biso   1.000  C
  C40      1.0000 0.28720  0.32360  0.12820  Biso   1.000  C
  C41      1.0000 0.33210  0.28600  0.06210  Biso   1.000  C
  C42      1.0000 0.43430  0.40140  0.05560  Biso   1.000  C
  C43      1.0000 0.33120  0.29410  0.19740  Biso   1.000  C
  C44      1.0000 0.46720  0.28990  0.26940  Biso   1.000  C
  C45      1.0000 0.39360  0.52890  0.11820  Biso   1.000  C
  C46      1.0000 0.19390  0.29930  0.12590  Biso   1.000  C
  C47      1.0000 0.57650  0.97320  0.90420  Biso   1.000  C
  C48      1.0000 0.59370  0.96150  0.82160  Biso   1.000  C
  C49      1.0000 0.03030  0.72990  0.49410  Biso   1.000  C
  C50      1.0000 0.07360  0.69080  0.55970  Biso   1.000  C
  C51      1.0000 0.03000  0.72020  0.63160  Biso   1.000  C
  C52      1.0000 0.07510  0.68310  0.69850  Biso   1.000  C
  C53      1.0000 0.06760  0.59210  0.69460  Biso   1.000  C
  C54      1.0000 0.11140  0.56100  0.62320  Biso   1.000  C
  C55      1.0000 0.20370  0.58710  0.62400  Biso   1.000  C
  C56      1.0000 0.21280  0.67640  0.62820  Biso   1.000  C
  C57      1.0000 0.16790  0.71400  0.56210  Biso   1.000  C
  C58      1.0000 0.06570  0.59860  0.55560  Biso   1.000  C
  C59      1.0000 0.16880  0.70590  0.69740  Biso   1.000  C
  C60      1.0000 0.03280  0.71010  0.76940  Biso   1.000  C
  C61      1.0000 0.10640  0.47110  0.61820  Biso   1.000  C
  C62      1.0000 0.30610  0.70070  0.62590  Biso   1.000  C
  C63      1.0000 0.92350  0.02680  0.40420  Biso   1.000  C
  C64      1.0000 0.90630  0.03850  0.32160  Biso   1.000  C
  C65      1.0000 0.46970  0.22990  0.49410  Biso   1.000  C
  C66      1.0000 0.42640  0.19080  0.55970  Biso   1.000  C
  C67      1.0000 0.47000  0.22020  0.63160  Biso   1.000  C
  C68      1.0000 0.42490  0.18310  0.69850  Biso   1.000  C
  C69      1.0000 0.43240  0.09210  0.69460  Biso   1.000  C
  C70      1.0000 0.38860  0.06100  0.62320  Biso   1.000  C
  C71      1.0000 0.29630  0.08710  0.62400  Biso   1.000  C
  C72      1.0000 0.28720  0.17640  0.62820  Biso   1.000  C
  C73      1.0000 0.33210  0.21400  0.56210  Biso   1.000  C
  C74      1.0000 0.43430  0.09860  0.55560  Biso   1.000  C
  C75      1.0000 0.33120  0.20590  0.69740  Biso   1.000  C
  C76      1.0000 0.46720  0.21010  0.76940  Biso   1.000  C
  C77      1.0000 0.39360  0.97110  0.61820  Biso   1.000  C
  C78      1.0000 0.19390  0.20070  0.62590  Biso   1.000  C
  C79      1.0000 0.57650  0.52680  0.40420  Biso   1.000  C
  C80      1.0000 0.59370  0.53850  0.32160  Biso   1.000  C
  C81      1.0000 0.03030  0.77010  0.99410  Biso   1.000  C
  C82      1.0000 0.07360  0.80920  0.05970  Biso   1.000  C
  C83      1.0000 0.03000  0.77980  0.13160  Biso   1.000  C
  C84      1.0000 0.07510  0.81690  0.19850  Biso   1.000  C
  C85      1.0000 0.06760  0.90790  0.19460  Biso   1.000  C
  C86      1.0000 0.11140  0.93900  0.12320  Biso   1.000  C
  C87      1.0000 0.20370  0.91290  0.12400  Biso   1.000  C
  C88      1.0000 0.21280  0.82360  0.12820  Biso   1.000  C
  C89      1.0000 0.16790  0.78600  0.06210  Biso   1.000  C
  C90      1.0000 0.06570  0.90140  0.05560  Biso   1.000  C
  C91      1.0000 0.16880  0.79410  0.19740  Biso   1.000  C
  C92      1.0000 0.03280  0.78990  0.26940  Biso   1.000  C
  C93      1.0000 0.10640  0.02890  0.11820  Biso   1.000  C
  C94      1.0000 0.30610  0.79930  0.12590  Biso   1.000  C
  C95      1.0000 0.92350  0.47320  0.90420  Biso   1.000  C
  C96      1.0000 0.90630  0.46150  0.82160  Biso   1.000  C
  C97      1.0000 0.53030  0.72990  0.00590  Biso   1.000  C
  C98      1.0000 0.57360  0.69080  0.94030  Biso   1.000  C
  C99      1.0000 0.53000  0.72020  0.86840  Biso   1.000  C
  C100     1.0000 0.57510  0.68310  0.80150  Biso   1.000  C
  C101     1.0000 0.56760  0.59210  0.80540  Biso   1.000  C
  C102     1.0000 0.61140  0.56100  0.87680  Biso   1.000  C
  C103     1.0000 0.70370  0.58710  0.87600  Biso   1.000  C
  C104     1.0000 0.71280  0.67640  0.87180  Biso   1.000  C
  C105     1.0000 0.66790  0.71400  0.93790  Biso   1.000  C
  C106     1.0000 0.56570  0.59860  0.94440  Biso   1.000  C
  C107     1.0000 0.66880  0.70590  0.80260  Biso   1.000  C
  C108     1.0000 0.53280  0.71010  0.73060  Biso   1.000  C
  C109     1.0000 0.60640  0.47110  0.88180  Biso   1.000  C
  C110     1.0000 0.80610  0.70070  0.87410  Biso   1.000  C
  C111     1.0000 0.42350  0.02680  0.09580  Biso   1.000  C
  C112     1.0000 0.40630  0.03850  0.17840  Biso   1.000  C
  C113     1.0000 0.96970  0.27010  0.50590  Biso   1.000  C
  C114     1.0000 0.92640  0.30920  0.44030  Biso   1.000  C
  C115     1.0000 0.97000  0.27980  0.36840  Biso   1.000  C
  C116     1.0000 0.92490  0.31690  0.30150  Biso   1.000  C
  C117     1.0000 0.93240  0.40790  0.30540  Biso   1.000  C
  C118     1.0000 0.88860  0.43900  0.37680  Biso   1.000  C
  C119     1.0000 0.79630  0.41290  0.37600  Biso   1.000  C
  C120     1.0000 0.78720  0.32360  0.37180  Biso   1.000  C
  C121     1.0000 0.83210  0.28600  0.43790  Biso   1.000  C
  C122     1.0000 0.93430  0.40140  0.44440  Biso   1.000  C
  C123     1.0000 0.83120  0.29410  0.30260  Biso   1.000  C
  C124     1.0000 0.96720  0.28990  0.23060  Biso   1.000  C
  C125     1.0000 0.89360  0.52890  0.38180  Biso   1.000  C
  C126     1.0000 0.69390  0.29930  0.37410  Biso   1.000  C
  C127     1.0000 0.07650  0.97320  0.59580  Biso   1.000  C
  C128     1.0000 0.09370  0.96150  0.67840  Biso   1.000  C
  O1       1.0000 0.50810  0.81380  0.55790  Biso   1.000  O
  O2       1.0000 0.52080  0.69760  0.50400  Biso   1.000  O
  O3       1.0000 0.48980  0.72830  0.23050  Biso   1.000  O
  O4       1.0000 0.54970  0.83040  0.17390  Biso   1.000  O
  O5       1.0000 0.56660  0.06600  0.33010  Biso   1.000  O
  O6       1.0000 0.63680  0.06430  0.43380  Biso   1.000  O
  O7       1.0000 0.85930  0.85020  0.39200  Biso   1.000  O
  O8       1.0000 0.82270  0.72950  0.35820  Biso   1.000  O
  O9       1.0000 0.49140  0.52690  0.58410  Biso   1.000  O
  O10      1.0000 0.99190  0.18620  0.05790  Biso   1.000  O
  O11      1.0000 0.97920  0.30240  0.00400  Biso   1.000  O
  O12      1.0000 0.01020  0.27170  0.73050  Biso   1.000  O
  O13      1.0000 0.95030  0.16960  0.67390  Biso   1.000  O
  O14      1.0000 0.93340  0.93400  0.83010  Biso   1.000  O
  O15      1.0000 0.86320  0.93570  0.93380  Biso   1.000  O
  O16      1.0000 0.64070  0.14980  0.89200  Biso   1.000  O
  O17      1.0000 0.67730  0.27050  0.85820  Biso   1.000  O
  O18      1.0000 0.00860  0.47310  0.08410  Biso   1.000  O
  O19      1.0000 0.49190  0.31380  0.94210  Biso   1.000  O
  O20      1.0000 0.47920  0.19760  0.99600  Biso   1.000  O
  O21      1.0000 0.51020  0.22830  0.26950  Biso   1.000  O
  O22      1.0000 0.45030  0.33040  0.32610  Biso   1.000  O
  O23      1.0000 0.43340  0.56600  0.16990  Biso   1.000  O
  O24      1.0000 0.36320  0.56430  0.06620  Biso   1.000  O
  O25      1.0000 0.14070  0.35020  0.10800  Biso   1.000  O
  O26      1.0000 0.17730  0.22950  0.14180  Biso   1.000  O
  O27      1.0000 0.50860  0.02690  0.91590  Biso   1.000  O
  O28      1.0000 0.00810  0.68620  0.44210  Biso   1.000  O
  O29      1.0000 0.02080  0.80240  0.49600  Biso   1.000  O
  O30      1.0000 0.98980  0.77170  0.76950  Biso   1.000  O
  O31      1.0000 0.04970  0.66960  0.82610  Biso   1.000  O
  O32      1.0000 0.06660  0.43400  0.66990  Biso   1.000  O
  O33      1.0000 0.13680  0.43570  0.56620  Biso   1.000  O
  O34      1.0000 0.35930  0.64980  0.60800  Biso   1.000  O
  O35      1.0000 0.32270  0.77050  0.64180  Biso   1.000  O
  O36      1.0000 0.99140  0.97310  0.41590  Biso   1.000  O
  O37      1.0000 0.49190  0.18620  0.44210  Biso   1.000  O
  O38      1.0000 0.47920  0.30240  0.49600  Biso   1.000  O
  O39      1.0000 0.51020  0.27170  0.76950  Biso   1.000  O
  O40      1.0000 0.45030  0.16960  0.82610  Biso   1.000  O
  O41      1.0000 0.43340  0.93400  0.66990  Biso   1.000  O
  O42      1.0000 0.36320  0.93570  0.56620  Biso   1.000  O
  O43      1.0000 0.14070  0.14980  0.60800  Biso   1.000  O
  O44      1.0000 0.17730  0.27050  0.64180  Biso   1.000  O
  O45      1.0000 0.50860  0.47310  0.41590  Biso   1.000  O
  O46      1.0000 0.00810  0.81380  0.94210  Biso   1.000  O
  O47      1.0000 0.02080  0.69760  0.99600  Biso   1.000  O
  O48      1.0000 0.98980  0.72830  0.26950  Biso   1.000  O
  O49      1.0000 0.04970  0.83040  0.32610  Biso   1.000  O
  O50      1.0000 0.06660  0.06600  0.16990  Biso   1.000  O
  O51      1.0000 0.13680  0.06430  0.06620  Biso   1.000  O
  O52      1.0000 0.35930  0.85020  0.10800  Biso   1.000  O
  O53      1.0000 0.32270  0.72950  0.14180  Biso   1.000  O
  O54      1.0000 0.99140  0.52690  0.91590  Biso   1.000  O
  O55      1.0000 0.50810  0.68620  0.05790  Biso   1.000  O
  O56      1.0000 0.52080  0.80240  0.00400  Biso   1.000  O
  O57      1.0000 0.48980  0.77170  0.73050  Biso   1.000  O
  O58      1.0000 0.54970  0.66960  0.67390  Biso   1.000  O
  O59      1.0000 0.56660  0.43400  0.83010  Biso   1.000  O
  O60      1.0000 0.63680  0.43570  0.93380  Biso   1.000  O
  O61      1.0000 0.85930  0.64980  0.89200  Biso   1.000  O
  O62      1.0000 0.82270  0.77050  0.85820  Biso   1.000  O
  O63      1.0000 0.49140  0.97310  0.08410  Biso   1.000  O
  O64      1.0000 0.99190  0.31380  0.55790  Biso   1.000  O
  O65      1.0000 0.97920  0.19760  0.50400  Biso   1.000  O
  O66      1.0000 0.01020  0.22830  0.23050  Biso   1.000  O
  O67      1.0000 0.95030  0.33040  0.17390  Biso   1.000  O
  O68      1.0000 0.93340  0.56600  0.33010  Biso   1.000  O
  O69      1.0000 0.86320  0.56430  0.43380  Biso   1.000  O
  O70      1.0000 0.64070  0.35020  0.39200  Biso   1.000  O
  O71      1.0000 0.67730  0.22950  0.35820  Biso   1.000  O
  O72      1.0000 0.00860  0.02690  0.58410  Biso   1.000  O
