data_image0
_cell_length_a       10.0656
_cell_length_b       11.1625
_cell_length_c       19.2011
_cell_angle_alpha    90
_cell_angle_beta     90
_cell_angle_gamma    90

_symmetry_space_group_name_H-M    P 1
_symmetry_int_tables_number       1

loop_
  _symmetry_equiv_pos_as_xyz
  'x, y, z'

loop_
  _atom_site_label
  _atom_site_occupancy
  _atom_site_fract_x
  _atom_site_fract_y
  _atom_site_fract_z
  _atom_site_thermal_displace_type
  _atom_site_B_iso_or_equiv
  _atom_site_type_symbol
  Ni1      1.0000 0.96321  0.12971  0.52106  Biso   1.000  Ni
  Ni2      1.0000 0.75162  0.01502  0.39820  Biso   1.000  Ni
  Ni3      1.0000 0.53679  0.87029  0.02106  Biso   1.000  Ni
  Ni4      1.0000 0.74838  0.98498  0.89820  Biso   1.000  Ni
  Ni5      1.0000 0.03679  0.62971  0.97894  Biso   1.000  Ni
  Ni6      1.0000 0.24838  0.51502  0.10180  Biso   1.000  Ni
  Ni7      1.0000 0.46321  0.37029  0.47894  Biso   1.000  Ni
  Ni8      1.0000 0.25162  0.48498  0.60180  Biso   1.000  Ni
  H1       1.0000 0.66380  0.70730  0.52700  Biso   1.000  H
  H2       1.0000 0.57340  0.77670  0.57850  Biso   1.000  H
  H3       1.0000 0.79160  0.52860  0.56860  Biso   1.000  H
  H4       1.0000 0.77720  0.48480  0.64480  Biso   1.000  H
  H5       1.0000 0.97460  0.79170  0.60080  Biso   1.000  H
  H6       1.0000 0.91360  0.71550  0.54130  Biso   1.000  H
  H7       1.0000 0.67410  0.89910  0.67460  Biso   1.000  H
  H8       1.0000 0.82720  0.90170  0.68380  Biso   1.000  H
  H9       1.0000 0.62840  0.59540  0.72770  Biso   1.000  H
  H10      1.0000 0.54890  0.70590  0.70210  Biso   1.000  H
  H11      1.0000 0.94830  0.72340  0.72580  Biso   1.000  H
  H12      1.0000 0.87240  0.60570  0.74200  Biso   1.000  H
  H13      1.0000 0.75050  0.20170  0.48400  Biso   1.000  H
  H14      1.0000 0.82860  0.21500  0.42290  Biso   1.000  H
  H15      1.0000 0.15420  0.99380  0.58310  Biso   1.000  H
  H16      1.0000 0.11000  0.21970  0.41910  Biso   1.000  H
  H17      1.0000 0.03280  0.34580  0.47130  Biso   1.000  H
  H18      1.0000 0.94360  0.33340  0.59680  Biso   1.000  H
  H19      1.0000 0.81760  0.27970  0.60100  Biso   1.000  H
  H20      1.0000 0.17520  0.13620  0.61660  Biso   1.000  H
  H21      1.0000 0.83620  0.29270  0.02700  Biso   1.000  H
  H22      1.0000 0.92660  0.22330  0.07850  Biso   1.000  H
  H23      1.0000 0.70840  0.47140  0.06860  Biso   1.000  H
  H24      1.0000 0.72280  0.51520  0.14480  Biso   1.000  H
  H25      1.0000 0.52540  0.20830  0.10080  Biso   1.000  H
  H26      1.0000 0.58640  0.28450  0.04130  Biso   1.000  H
  H27      1.0000 0.82590  0.10090  0.17460  Biso   1.000  H
  H28      1.0000 0.67280  0.09830  0.18380  Biso   1.000  H
  H29      1.0000 0.87160  0.40460  0.22770  Biso   1.000  H
  H30      1.0000 0.95110  0.29410  0.20210  Biso   1.000  H
  H31      1.0000 0.55170  0.27660  0.22580  Biso   1.000  H
  H32      1.0000 0.62760  0.39430  0.24200  Biso   1.000  H
  H33      1.0000 0.74950  0.79830  0.98400  Biso   1.000  H
  H34      1.0000 0.67140  0.78500  0.92290  Biso   1.000  H
  H35      1.0000 0.34580  0.00620  0.08310  Biso   1.000  H
  H36      1.0000 0.39000  0.78030  0.91910  Biso   1.000  H
  H37      1.0000 0.46720  0.65420  0.97130  Biso   1.000  H
  H38      1.0000 0.55640  0.66660  0.09680  Biso   1.000  H
  H39      1.0000 0.68240  0.72030  0.10100  Biso   1.000  H
  H40      1.0000 0.32480  0.86380  0.11660  Biso   1.000  H
  H41      1.0000 0.33620  0.20730  0.97300  Biso   1.000  H
  H42      1.0000 0.42660  0.27670  0.92150  Biso   1.000  H
  H43      1.0000 0.20840  0.02860  0.93140  Biso   1.000  H
  H44      1.0000 0.22280  0.98480  0.85520  Biso   1.000  H
  H45      1.0000 0.02540  0.29170  0.89920  Biso   1.000  H
  H46      1.0000 0.08640  0.21550  0.95870  Biso   1.000  H
  H47      1.0000 0.32590  0.39910  0.82540  Biso   1.000  H
  H48      1.0000 0.17280  0.40170  0.81620  Biso   1.000  H
  H49      1.0000 0.37160  0.09540  0.77230  Biso   1.000  H
  H50      1.0000 0.45110  0.20590  0.79790  Biso   1.000  H
  H51      1.0000 0.05170  0.22340  0.77420  Biso   1.000  H
  H52      1.0000 0.12760  0.10570  0.75800  Biso   1.000  H
  H53      1.0000 0.24950  0.70170  0.01600  Biso   1.000  H
  H54      1.0000 0.17140  0.71500  0.07710  Biso   1.000  H
  H55      1.0000 0.84580  0.49380  0.91690  Biso   1.000  H
  H56      1.0000 0.89000  0.71970  0.08090  Biso   1.000  H
  H57      1.0000 0.96720  0.84580  0.02870  Biso   1.000  H
  H58      1.0000 0.05640  0.83340  0.90320  Biso   1.000  H
  H59      1.0000 0.18240  0.77970  0.89900  Biso   1.000  H
  H60      1.0000 0.82480  0.63620  0.88340  Biso   1.000  H
  H61      1.0000 0.16380  0.79270  0.47300  Biso   1.000  H
  H62      1.0000 0.07340  0.72330  0.42150  Biso   1.000  H
  H63      1.0000 0.29160  0.97140  0.43140  Biso   1.000  H
  H64      1.0000 0.27720  0.01520  0.35520  Biso   1.000  H
  H65      1.0000 0.47460  0.70830  0.39920  Biso   1.000  H
  H66      1.0000 0.41360  0.78450  0.45870  Biso   1.000  H
  H67      1.0000 0.17410  0.60090  0.32540  Biso   1.000  H
  H68      1.0000 0.32720  0.59830  0.31620  Biso   1.000  H
  H69      1.0000 0.12840  0.90460  0.27230  Biso   1.000  H
  H70      1.0000 0.04890  0.79410  0.29790  Biso   1.000  H
  H71      1.0000 0.44830  0.77660  0.27420  Biso   1.000  H
  H72      1.0000 0.37240  0.89430  0.25800  Biso   1.000  H
  H73      1.0000 0.25050  0.29830  0.51600  Biso   1.000  H
  H74      1.0000 0.32860  0.28500  0.57710  Biso   1.000  H
  H75      1.0000 0.65420  0.50620  0.41690  Biso   1.000  H
  H76      1.0000 0.61000  0.28030  0.58090  Biso   1.000  H
  H77      1.0000 0.53280  0.15420  0.52870  Biso   1.000  H
  H78      1.0000 0.44360  0.16660  0.40320  Biso   1.000  H
  H79      1.0000 0.31760  0.22030  0.39900  Biso   1.000  H
  H80      1.0000 0.67520  0.36380  0.38340  Biso   1.000  H
  C1       1.0000 0.78670  0.92060  0.54390  Biso   1.000  C
  C2       1.0000 0.77110  0.81300  0.59400  Biso   1.000  C
  C3       1.0000 0.65370  0.73270  0.57390  Biso   1.000  C
  C4       1.0000 0.64840  0.62170  0.62190  Biso   1.000  C
  C5       1.0000 0.78020  0.55320  0.61550  Biso   1.000  C
  C6       1.0000 0.89800  0.63160  0.63680  Biso   1.000  C
  C7       1.0000 0.90220  0.74170  0.58800  Biso   1.000  C
  C8       1.0000 0.75350  0.85370  0.67050  Biso   1.000  C
  C9       1.0000 0.74530  0.74470  0.71840  Biso   1.000  C
  C10      1.0000 0.63010  0.66330  0.69790  Biso   1.000  C
  C11      1.0000 0.87630  0.67360  0.71220  Biso   1.000  C
  C12      1.0000 0.53240  0.54360  0.59670  Biso   1.000  C
  C13      1.0000 0.03130  0.57010  0.62740  Biso   1.000  C
  C14      1.0000 0.73210  0.78760  0.79430  Biso   1.000  C
  C15      1.0000 0.71330  0.07940  0.04390  Biso   1.000  C
  C16      1.0000 0.72890  0.18700  0.09400  Biso   1.000  C
  C17      1.0000 0.84630  0.26730  0.07390  Biso   1.000  C
  C18      1.0000 0.85160  0.37830  0.12190  Biso   1.000  C
  C19      1.0000 0.71980  0.44680  0.11550  Biso   1.000  C
  C20      1.0000 0.60200  0.36840  0.13680  Biso   1.000  C
  C21      1.0000 0.59780  0.25830  0.08800  Biso   1.000  C
  C22      1.0000 0.74650  0.14630  0.17050  Biso   1.000  C
  C23      1.0000 0.75470  0.25530  0.21840  Biso   1.000  C
  C24      1.0000 0.86990  0.33670  0.19790  Biso   1.000  C
  C25      1.0000 0.62370  0.32640  0.21220  Biso   1.000  C
  C26      1.0000 0.96760  0.45640  0.09670  Biso   1.000  C
  C27      1.0000 0.46870  0.42990  0.12740  Biso   1.000  C
  C28      1.0000 0.76790  0.21240  0.29430  Biso   1.000  C
  C29      1.0000 0.21330  0.42060  0.95610  Biso   1.000  C
  C30      1.0000 0.22890  0.31300  0.90600  Biso   1.000  C
  C31      1.0000 0.34630  0.23270  0.92610  Biso   1.000  C
  C32      1.0000 0.35160  0.12170  0.87810  Biso   1.000  C
  C33      1.0000 0.21980  0.05320  0.88450  Biso   1.000  C
  C34      1.0000 0.10200  0.13160  0.86320  Biso   1.000  C
  C35      1.0000 0.09780  0.24170  0.91200  Biso   1.000  C
  C36      1.0000 0.24650  0.35370  0.82950  Biso   1.000  C
  C37      1.0000 0.25470  0.24470  0.78160  Biso   1.000  C
  C38      1.0000 0.36990  0.16330  0.80210  Biso   1.000  C
  C39      1.0000 0.12370  0.17360  0.78780  Biso   1.000  C
  C40      1.0000 0.46760  0.04360  0.90330  Biso   1.000  C
  C41      1.0000 0.96870  0.07010  0.87260  Biso   1.000  C
  C42      1.0000 0.26790  0.28760  0.70570  Biso   1.000  C
  C43      1.0000 0.28670  0.57940  0.45610  Biso   1.000  C
  C44      1.0000 0.27110  0.68700  0.40600  Biso   1.000  C
  C45      1.0000 0.15370  0.76730  0.42610  Biso   1.000  C
  C46      1.0000 0.14840  0.87830  0.37810  Biso   1.000  C
  C47      1.0000 0.28020  0.94680  0.38450  Biso   1.000  C
  C48      1.0000 0.39800  0.86840  0.36320  Biso   1.000  C
  C49      1.0000 0.40220  0.75830  0.41200  Biso   1.000  C
  C50      1.0000 0.25350  0.64630  0.32950  Biso   1.000  C
  C51      1.0000 0.24530  0.75530  0.28160  Biso   1.000  C
  C52      1.0000 0.13010  0.83670  0.30210  Biso   1.000  C
  C53      1.0000 0.37630  0.82640  0.28780  Biso   1.000  C
  C54      1.0000 0.03240  0.95640  0.40330  Biso   1.000  C
  C55      1.0000 0.53130  0.92990  0.37260  Biso   1.000  C
  C56      1.0000 0.23210  0.71240  0.20570  Biso   1.000  C
  O1       1.0000 0.83530  0.01560  0.56967  Biso   1.000  O
  O2       1.0000 0.75680  0.90390  0.48158  Biso   1.000  O
  O3       1.0000 0.43050  0.53790  0.63247  Biso   1.000  O
  O4       1.0000 0.54980  0.49480  0.53791  Biso   1.000  O
  O5       1.0000 0.04200  0.47580  0.59120  Biso   1.000  O
  O6       1.0000 0.13470  0.61710  0.65279  Biso   1.000  O
  O7       1.0000 0.68720  0.71240  0.83919  Biso   1.000  O
  O8       1.0000 0.76690  0.88940  0.80863  Biso   1.000  O
  O9       1.0000 0.80660  0.16880  0.45279  Biso   1.000  O
  O10      1.0000 0.10990  0.07660  0.59200  Biso   1.000  O
  O11      1.0000 0.08570  0.25790  0.47203  Biso   1.000  O
  O12      1.0000 0.90360  0.26150  0.58800  Biso   1.000  O
  O13      1.0000 0.66470  0.98440  0.06967  Biso   1.000  O
  O14      1.0000 0.74320  0.09610  0.98158  Biso   1.000  O
  O15      1.0000 0.06950  0.46210  0.13247  Biso   1.000  O
  O16      1.0000 0.95020  0.50520  0.03791  Biso   1.000  O
  O17      1.0000 0.45800  0.52420  0.09120  Biso   1.000  O
  O18      1.0000 0.36530  0.38290  0.15279  Biso   1.000  O
  O19      1.0000 0.81280  0.28760  0.33919  Biso   1.000  O
  O20      1.0000 0.73310  0.11060  0.30863  Biso   1.000  O
  O21      1.0000 0.69340  0.83120  0.95279  Biso   1.000  O
  O22      1.0000 0.39010  0.92340  0.09200  Biso   1.000  O
  O23      1.0000 0.41430  0.74210  0.97203  Biso   1.000  O
  O24      1.0000 0.59640  0.73850  0.08800  Biso   1.000  O
  O25      1.0000 0.16470  0.51560  0.93033  Biso   1.000  O
  O26      1.0000 0.24320  0.40390  0.01842  Biso   1.000  O
  O27      1.0000 0.56950  0.03790  0.86753  Biso   1.000  O
  O28      1.0000 0.45020  0.99480  0.96209  Biso   1.000  O
  O29      1.0000 0.95800  0.97580  0.90880  Biso   1.000  O
  O30      1.0000 0.86530  0.11710  0.84721  Biso   1.000  O
  O31      1.0000 0.31280  0.21240  0.66081  Biso   1.000  O
  O32      1.0000 0.23310  0.38940  0.69137  Biso   1.000  O
  O33      1.0000 0.19340  0.66880  0.04721  Biso   1.000  O
  O34      1.0000 0.89010  0.57660  0.90800  Biso   1.000  O
  O35      1.0000 0.91430  0.75790  0.02797  Biso   1.000  O
  O36      1.0000 0.09640  0.76150  0.91200  Biso   1.000  O
  O37      1.0000 0.33530  0.48440  0.43033  Biso   1.000  O
  O38      1.0000 0.25680  0.59610  0.51842  Biso   1.000  O
  O39      1.0000 0.93050  0.96210  0.36753  Biso   1.000  O
  O40      1.0000 0.04980  0.00520  0.46209  Biso   1.000  O
  O41      1.0000 0.54200  0.02420  0.40880  Biso   1.000  O
  O42      1.0000 0.63470  0.88290  0.34721  Biso   1.000  O
  O43      1.0000 0.18720  0.78760  0.16081  Biso   1.000  O
  O44      1.0000 0.26690  0.61060  0.19137  Biso   1.000  O
  O45      1.0000 0.30660  0.33120  0.54721  Biso   1.000  O
  O46      1.0000 0.60990  0.42340  0.40800  Biso   1.000  O
  O47      1.0000 0.58570  0.24210  0.52797  Biso   1.000  O
  O48      1.0000 0.40360  0.23850  0.41200  Biso   1.000  O
