data_image0
_cell_length_a       9.6615
_cell_length_b       10.49
_cell_length_c       11.9404
_cell_angle_alpha    110.295
_cell_angle_beta     91.875
_cell_angle_gamma    114.86

_symmetry_space_group_name_H-M    "P 1"
_symmetry_int_tables_number       1

loop_
  _symmetry_equiv_pos_as_xyz
  'x, y, z'

loop_
  _atom_site_label
  _atom_site_occupancy
  _atom_site_fract_x
  _atom_site_fract_y
  _atom_site_fract_z
  _atom_site_thermal_displace_type
  _atom_site_B_iso_or_equiv
  _atom_site_type_symbol
  S1       1.0000 0.02389  0.05301  0.24333  Biso   1.000  S
  S2       1.0000 0.50972  0.54185  0.36569  Biso   1.000  S
  Mg1      1.0000 0.52862  0.08436  0.32661  Biso   1.000  Mg
  O1       1.0000 0.45540  0.88410  0.35015  Biso   1.000  O
  O2       1.0000 0.76170  0.10720  0.33026  Biso   1.000  O
  O3       1.0000 0.44050  0.79410  0.49545  Biso   1.000  O
  O4       1.0000 0.59200  0.28500  0.30318  Biso   1.000  O
  O5       1.0000 0.30680  0.01560  0.25045  Biso   1.000  O
  O6       1.0000 0.28480  0.92080  0.04735  Biso   1.000  O
  O7       1.0000 0.59743  0.98560  0.15410  Biso   1.000  O
  O8       1.0000 0.54640  0.22190  0.10122  Biso   1.000  O
  C1       1.0000 0.46270  0.79430  0.39240  Biso   1.000  C
  C2       1.0000 0.56360  0.30660  0.21010  Biso   1.000  C
  C3       1.0000 0.72750  0.02650  0.21720  Biso   1.000  C
  C4       1.0000 0.83810  0.97430  0.16090  Biso   1.000  C
  C5       1.0000 0.07090  0.93840  0.12660  Biso   1.000  C
  C6       1.0000 0.23480  0.95930  0.14170  Biso   1.000  C
  C7       1.0000 0.81460  0.86380  0.04930  Biso   1.000  C
  H1       1.0000 0.72040  0.80770  0.99260  Biso   1.000  H
  C8       1.0000 0.94880  0.84390  0.02890  Biso   1.000  C
  H2       1.0000 0.95330  0.77430  0.95710  Biso   1.000  H
  C9       1.0000 0.54600  0.44740  0.23070  Biso   1.000  C
  C10      1.0000 0.49630  0.66970  0.31280  Biso   1.000  C
  C11      1.0000 0.52030  0.64110  0.19690  Biso   1.000  C
  H3       1.0000 0.51850  0.69950  0.15390  Biso   1.000  H
  C12      1.0000 0.54840  0.51270  0.14910  Biso   1.000  C
  H4       1.0000 0.56640  0.47670  0.07100  Biso   1.000  H
  S3       1.0000 0.97611  0.94699  0.75667  Biso   1.000  S
  S4       1.0000 0.49028  0.45815  0.63431  Biso   1.000  S
  Mg2      1.0000 0.47138  0.91564  0.67339  Biso   1.000  Mg
  O9       1.0000 0.54460  0.11590  0.64985  Biso   1.000  O
  O10      1.0000 0.23830  0.89280  0.66974  Biso   1.000  O
  O11      1.0000 0.55950  0.20590  0.50455  Biso   1.000  O
  O12      1.0000 0.40800  0.71500  0.69682  Biso   1.000  O
  O13      1.0000 0.69320  0.98440  0.74955  Biso   1.000  O
  O14      1.0000 0.71520  0.07920  0.95265  Biso   1.000  O
  O15      1.0000 0.40257  0.01440  0.84590  Biso   1.000  O
  O16      1.0000 0.45360  0.77810  0.89878  Biso   1.000  O
  C13      1.0000 0.53730  0.20570  0.60760  Biso   1.000  C
  C14      1.0000 0.43640  0.69340  0.78990  Biso   1.000  C
  C15      1.0000 0.27250  0.97350  0.78280  Biso   1.000  C
  C16      1.0000 0.16190  0.02570  0.83910  Biso   1.000  C
  C17      1.0000 0.92910  0.06160  0.87340  Biso   1.000  C
  C18      1.0000 0.76520  0.04070  0.85830  Biso   1.000  C
  C19      1.0000 0.18540  0.13620  0.95070  Biso   1.000  C
  H5       1.0000 0.27960  0.19230  0.00740  Biso   1.000  H
  C20      1.0000 0.05120  0.15610  0.97110  Biso   1.000  C
  H6       1.0000 0.04670  0.22570  0.04290  Biso   1.000  H
  C21      1.0000 0.45400  0.55260  0.76930  Biso   1.000  C
  C22      1.0000 0.50370  0.33030  0.68720  Biso   1.000  C
  C23      1.0000 0.47970  0.35890  0.80310  Biso   1.000  C
  H7       1.0000 0.48150  0.30050  0.84610  Biso   1.000  H
  C24      1.0000 0.45160  0.48730  0.85090  Biso   1.000  C
  H8       1.0000 0.43360  0.52330  0.92900  Biso   1.000  H
  Mg3      1.0000 0.50000  0.00000  0.00000  Biso   1.000  Mg
