data_image0
_cell_length_a       34.681
_cell_length_b       15.3678
_cell_length_c       13.7141
_cell_angle_alpha    90
_cell_angle_beta     112.169
_cell_angle_gamma    90

_symmetry_space_group_name_H-M    "P 1"
_symmetry_int_tables_number       1

loop_
  _symmetry_equiv_pos_as_xyz
  'x, y, z'

loop_
  _atom_site_label
  _atom_site_occupancy
  _atom_site_fract_x
  _atom_site_fract_y
  _atom_site_fract_z
  _atom_site_thermal_displace_type
  _atom_site_B_iso_or_equiv
  _atom_site_type_symbol
  Zn1      1.0000 0.11197  0.22069  0.06584  Biso   1.000  Zn
  Zn2      1.0000 0.20146  0.27979  0.14487  Biso   1.000  Zn
  S1       1.0000 0.16737  0.51249  0.34555  Biso   1.000  S
  S2       1.0000 0.14570  0.01795  0.37187  Biso   1.000  S
  O1       1.0000 0.17743  0.36910  0.21490  Biso   1.000  O
  O2       1.0000 0.11071  0.33030  0.14690  Biso   1.000  O
  O3       1.0000 0.18168  0.64410  0.51300  Biso   1.000  O
  O4       1.0000 0.11673  0.69580  0.45260  Biso   1.000  O
  O5       1.0000 0.19776  0.18900  0.25020  Biso   1.000  O
  O6       1.0000 0.13068  0.15250  0.20260  Biso   1.000  O
  O7       1.0000 0.20189  0.82410  0.55370  Biso   1.000  O
  O8       1.0000 0.13676  0.87470  0.50520  Biso   1.000  O
  N1       1.0000 0.26289  0.30850  0.21060  Biso   1.000  N
  N2       1.0000 0.55049  0.30220  0.48980  Biso   1.000  N
  C1       1.0000 0.13990  0.37820  0.20130  Biso   1.000  C
  C2       1.0000 0.12954  0.45220  0.25440  Biso   1.000  C
  C3       1.0000 0.09020  0.48120  0.24220  Biso   1.000  C
  H1       1.0000 0.06560  0.45610  0.19630  Biso   1.000  H
  C4       1.0000 0.09160  0.55320  0.30730  Biso   1.000  C
  H2       1.0000 0.06810  0.58140  0.30840  Biso   1.000  H
  C5       1.0000 0.13150  0.57690  0.36870  Biso   1.000  C
  C6       1.0000 0.14420  0.64470  0.45160  Biso   1.000  C
  C7       1.0000 0.29020  0.26380  0.18260  Biso   1.000  C
  H3       1.0000 0.28010  0.22180  0.13030  Biso   1.000  H
  C8       1.0000 0.33260  0.27710  0.22760  Biso   1.000  C
  H4       1.0000 0.35030  0.24410  0.20560  Biso   1.000  H
  C9       1.0000 0.34870  0.33820  0.30420  Biso   1.000  C
  C10      1.0000 0.32070  0.38570  0.33110  Biso   1.000  C
  H5       1.0000 0.33020  0.42940  0.38150  Biso   1.000  H
  C11      1.0000 0.27870  0.36930  0.28410  Biso   1.000  C
  H6       1.0000 0.26050  0.40210  0.30450  Biso   1.000  H
  C12      1.0000 0.39480  0.35180  0.35870  Biso   1.000  C
  H7       1.0000 0.39970  0.41300  0.37660  Biso   1.000  H
  H8       1.0000 0.40420  0.31930  0.42410  Biso   1.000  H
  C13      1.0000 0.42010  0.32660  0.29960  Biso   1.000  C
  H9       1.0000 0.41590  0.36860  0.24370  Biso   1.000  H
  H10      1.0000 0.41060  0.27050  0.26700  Biso   1.000  H
  C14      1.0000 0.16900  0.14460  0.25800  Biso   1.000  C
  C15      1.0000 0.18140  0.07460  0.33830  Biso   1.000  C
  C16      1.0000 0.17370  0.87720  0.50800  Biso   1.000  C
  C17      1.0000 0.18403  0.95060  0.45230  Biso   1.000  C
  C18      1.0000 0.22060  0.04160  0.38720  Biso   1.000  C
  H11      1.0000 0.24400  0.06400  0.37830  Biso   1.000  H
  C19      1.0000 0.22190  0.97110  0.45140  Biso   1.000  C
  H12      1.0000 0.24620  0.94100  0.48980  Biso   1.000  H
  C20      1.0000 0.53510  0.37340  0.44440  Biso   1.000  C
  H13      1.0000 0.55290  0.42050  0.45300  Biso   1.000  H
  C21      1.0000 0.49360  0.38440  0.38310  Biso   1.000  C
  H14      1.0000 0.48440  0.43830  0.35220  Biso   1.000  H
  C22      1.0000 0.46660  0.32090  0.36700  Biso   1.000  C
  C23      1.0000 0.48350  0.24210  0.41120  Biso   1.000  C
  H15      1.0000 0.46610  0.19410  0.40080  Biso   1.000  H
  C24      1.0000 0.52490  0.23270  0.46970  Biso   1.000  C
  H16      1.0000 0.53560  0.17820  0.49570  Biso   1.000  H
  Zn3      1.0000 0.61197  0.72069  0.06584  Biso   1.000  Zn
  Zn4      1.0000 0.70146  0.77979  0.14487  Biso   1.000  Zn
  S3       1.0000 0.66737  0.01249  0.34555  Biso   1.000  S
  S4       1.0000 0.64570  0.51795  0.37187  Biso   1.000  S
  O9       1.0000 0.67743  0.86910  0.21490  Biso   1.000  O
  O10      1.0000 0.61071  0.83030  0.14690  Biso   1.000  O
  O11      1.0000 0.68168  0.14410  0.51300  Biso   1.000  O
  O12      1.0000 0.61673  0.19580  0.45260  Biso   1.000  O
  O13      1.0000 0.69776  0.68900  0.25020  Biso   1.000  O
  O14      1.0000 0.63068  0.65250  0.20260  Biso   1.000  O
  O15      1.0000 0.70189  0.32410  0.55370  Biso   1.000  O
  O16      1.0000 0.63676  0.37470  0.50520  Biso   1.000  O
  N3       1.0000 0.76289  0.80850  0.21060  Biso   1.000  N
  N4       1.0000 0.05049  0.80220  0.48980  Biso   1.000  N
  C25      1.0000 0.63990  0.87820  0.20130  Biso   1.000  C
  C26      1.0000 0.62954  0.95220  0.25440  Biso   1.000  C
  C27      1.0000 0.59020  0.98120  0.24220  Biso   1.000  C
  H17      1.0000 0.56560  0.95610  0.19630  Biso   1.000  H
  C28      1.0000 0.59160  0.05320  0.30730  Biso   1.000  C
  H18      1.0000 0.56810  0.08140  0.30840  Biso   1.000  H
  C29      1.0000 0.63150  0.07690  0.36870  Biso   1.000  C
  C30      1.0000 0.64420  0.14470  0.45160  Biso   1.000  C
  C31      1.0000 0.79020  0.76380  0.18260  Biso   1.000  C
  H19      1.0000 0.78010  0.72180  0.13030  Biso   1.000  H
  C32      1.0000 0.83260  0.77710  0.22760  Biso   1.000  C
  H20      1.0000 0.85030  0.74410  0.20560  Biso   1.000  H
  C33      1.0000 0.84870  0.83820  0.30420  Biso   1.000  C
  C34      1.0000 0.82070  0.88570  0.33110  Biso   1.000  C
  H21      1.0000 0.83020  0.92940  0.38150  Biso   1.000  H
  C35      1.0000 0.77870  0.86930  0.28410  Biso   1.000  C
  H22      1.0000 0.76050  0.90210  0.30450  Biso   1.000  H
  C36      1.0000 0.89480  0.85180  0.35870  Biso   1.000  C
  H23      1.0000 0.89970  0.91300  0.37660  Biso   1.000  H
  H24      1.0000 0.90420  0.81930  0.42410  Biso   1.000  H
  C37      1.0000 0.92010  0.82660  0.29960  Biso   1.000  C
  H25      1.0000 0.91590  0.86860  0.24370  Biso   1.000  H
  H26      1.0000 0.91060  0.77050  0.26700  Biso   1.000  H
  C38      1.0000 0.66900  0.64460  0.25800  Biso   1.000  C
  C39      1.0000 0.68140  0.57460  0.33830  Biso   1.000  C
  C40      1.0000 0.67370  0.37720  0.50800  Biso   1.000  C
  C41      1.0000 0.68403  0.45060  0.45230  Biso   1.000  C
  C42      1.0000 0.72060  0.54160  0.38720  Biso   1.000  C
  H27      1.0000 0.74400  0.56400  0.37830  Biso   1.000  H
  C43      1.0000 0.72190  0.47110  0.45140  Biso   1.000  C
  H28      1.0000 0.74620  0.44100  0.48980  Biso   1.000  H
  C44      1.0000 0.03510  0.87340  0.44440  Biso   1.000  C
  H29      1.0000 0.05290  0.92050  0.45300  Biso   1.000  H
  C45      1.0000 0.99360  0.88440  0.38310  Biso   1.000  C
  H30      1.0000 0.98440  0.93830  0.35220  Biso   1.000  H
  C46      1.0000 0.96660  0.82090  0.36700  Biso   1.000  C
  C47      1.0000 0.98350  0.74210  0.41120  Biso   1.000  C
  H31      1.0000 0.96610  0.69410  0.40080  Biso   1.000  H
  C48      1.0000 0.02490  0.73270  0.46970  Biso   1.000  C
  H32      1.0000 0.03560  0.67820  0.49570  Biso   1.000  H
  Zn5      1.0000 0.11197  0.77931  0.56584  Biso   1.000  Zn
  Zn6      1.0000 0.20146  0.72021  0.64487  Biso   1.000  Zn
  S5       1.0000 0.16737  0.48751  0.84555  Biso   1.000  S
  S6       1.0000 0.14570  0.98205  0.87187  Biso   1.000  S
  O17      1.0000 0.17743  0.63090  0.71490  Biso   1.000  O
  O18      1.0000 0.11071  0.66970  0.64690  Biso   1.000  O
  O19      1.0000 0.18168  0.35590  0.01300  Biso   1.000  O
  O20      1.0000 0.11673  0.30420  0.95260  Biso   1.000  O
  O21      1.0000 0.19776  0.81100  0.75020  Biso   1.000  O
  O22      1.0000 0.13068  0.84750  0.70260  Biso   1.000  O
  O23      1.0000 0.20189  0.17590  0.05370  Biso   1.000  O
  O24      1.0000 0.13676  0.12530  0.00520  Biso   1.000  O
  N5       1.0000 0.26289  0.69150  0.71060  Biso   1.000  N
  N6       1.0000 0.55049  0.69780  0.98980  Biso   1.000  N
  C49      1.0000 0.13990  0.62180  0.70130  Biso   1.000  C
  C50      1.0000 0.12954  0.54780  0.75440  Biso   1.000  C
  C51      1.0000 0.09020  0.51880  0.74220  Biso   1.000  C
  H33      1.0000 0.06560  0.54390  0.69630  Biso   1.000  H
  C52      1.0000 0.09160  0.44680  0.80730  Biso   1.000  C
  H34      1.0000 0.06810  0.41860  0.80840  Biso   1.000  H
  C53      1.0000 0.13150  0.42310  0.86870  Biso   1.000  C
  C54      1.0000 0.14420  0.35530  0.95160  Biso   1.000  C
  C55      1.0000 0.29020  0.73620  0.68260  Biso   1.000  C
  H35      1.0000 0.28010  0.77820  0.63030  Biso   1.000  H
  C56      1.0000 0.33260  0.72290  0.72760  Biso   1.000  C
  H36      1.0000 0.35030  0.75590  0.70560  Biso   1.000  H
  C57      1.0000 0.34870  0.66180  0.80420  Biso   1.000  C
  C58      1.0000 0.32070  0.61430  0.83110  Biso   1.000  C
  H37      1.0000 0.33020  0.57060  0.88150  Biso   1.000  H
  C59      1.0000 0.27870  0.63070  0.78410  Biso   1.000  C
  H38      1.0000 0.26050  0.59790  0.80450  Biso   1.000  H
  C60      1.0000 0.39480  0.64820  0.85870  Biso   1.000  C
  H39      1.0000 0.39970  0.58700  0.87660  Biso   1.000  H
  H40      1.0000 0.40420  0.68070  0.92410  Biso   1.000  H
  C61      1.0000 0.42010  0.67340  0.79960  Biso   1.000  C
  H41      1.0000 0.41590  0.63140  0.74370  Biso   1.000  H
  H42      1.0000 0.41060  0.72950  0.76700  Biso   1.000  H
  C62      1.0000 0.16900  0.85540  0.75800  Biso   1.000  C
  C63      1.0000 0.18140  0.92540  0.83830  Biso   1.000  C
  C64      1.0000 0.17370  0.12280  0.00800  Biso   1.000  C
  C65      1.0000 0.18403  0.04940  0.95230  Biso   1.000  C
  C66      1.0000 0.22060  0.95840  0.88720  Biso   1.000  C
  H43      1.0000 0.24400  0.93600  0.87830  Biso   1.000  H
  C67      1.0000 0.22190  0.02890  0.95140  Biso   1.000  C
  H44      1.0000 0.24620  0.05900  0.98980  Biso   1.000  H
  C68      1.0000 0.53510  0.62660  0.94440  Biso   1.000  C
  H45      1.0000 0.55290  0.57950  0.95300  Biso   1.000  H
  C69      1.0000 0.49360  0.61560  0.88310  Biso   1.000  C
  H46      1.0000 0.48440  0.56170  0.85220  Biso   1.000  H
  C70      1.0000 0.46660  0.67910  0.86700  Biso   1.000  C
  C71      1.0000 0.48350  0.75790  0.91120  Biso   1.000  C
  H47      1.0000 0.46610  0.80590  0.90080  Biso   1.000  H
  C72      1.0000 0.52490  0.76730  0.96970  Biso   1.000  C
  H48      1.0000 0.53560  0.82180  0.99570  Biso   1.000  H
  Zn7      1.0000 0.61197  0.27931  0.56584  Biso   1.000  Zn
  Zn8      1.0000 0.70146  0.22021  0.64487  Biso   1.000  Zn
  S7       1.0000 0.66737  0.98751  0.84555  Biso   1.000  S
  S8       1.0000 0.64570  0.48205  0.87187  Biso   1.000  S
  O25      1.0000 0.67743  0.13090  0.71490  Biso   1.000  O
  O26      1.0000 0.61071  0.16970  0.64690  Biso   1.000  O
  O27      1.0000 0.68168  0.85590  0.01300  Biso   1.000  O
  O28      1.0000 0.61673  0.80420  0.95260  Biso   1.000  O
  O29      1.0000 0.69776  0.31100  0.75020  Biso   1.000  O
  O30      1.0000 0.63068  0.34750  0.70260  Biso   1.000  O
  O31      1.0000 0.70189  0.67590  0.05370  Biso   1.000  O
  O32      1.0000 0.63676  0.62530  0.00520  Biso   1.000  O
  N7       1.0000 0.76289  0.19150  0.71060  Biso   1.000  N
  N8       1.0000 0.05049  0.19780  0.98980  Biso   1.000  N
  C73      1.0000 0.63990  0.12180  0.70130  Biso   1.000  C
  C74      1.0000 0.62954  0.04780  0.75440  Biso   1.000  C
  C75      1.0000 0.59020  0.01880  0.74220  Biso   1.000  C
  H49      1.0000 0.56560  0.04390  0.69630  Biso   1.000  H
  C76      1.0000 0.59160  0.94680  0.80730  Biso   1.000  C
  H50      1.0000 0.56810  0.91860  0.80840  Biso   1.000  H
  C77      1.0000 0.63150  0.92310  0.86870  Biso   1.000  C
  C78      1.0000 0.64420  0.85530  0.95160  Biso   1.000  C
  C79      1.0000 0.79020  0.23620  0.68260  Biso   1.000  C
  H51      1.0000 0.78010  0.27820  0.63030  Biso   1.000  H
  C80      1.0000 0.83260  0.22290  0.72760  Biso   1.000  C
  H52      1.0000 0.85030  0.25590  0.70560  Biso   1.000  H
  C81      1.0000 0.84870  0.16180  0.80420  Biso   1.000  C
  C82      1.0000 0.82070  0.11430  0.83110  Biso   1.000  C
  H53      1.0000 0.83020  0.07060  0.88150  Biso   1.000  H
  C83      1.0000 0.77870  0.13070  0.78410  Biso   1.000  C
  H54      1.0000 0.76050  0.09790  0.80450  Biso   1.000  H
  C84      1.0000 0.89480  0.14820  0.85870  Biso   1.000  C
  H55      1.0000 0.89970  0.08700  0.87660  Biso   1.000  H
  H56      1.0000 0.90420  0.18070  0.92410  Biso   1.000  H
  C85      1.0000 0.92010  0.17340  0.79960  Biso   1.000  C
  H57      1.0000 0.91590  0.13140  0.74370  Biso   1.000  H
  H58      1.0000 0.91060  0.22950  0.76700  Biso   1.000  H
  C86      1.0000 0.66900  0.35540  0.75800  Biso   1.000  C
  C87      1.0000 0.68140  0.42540  0.83830  Biso   1.000  C
  C88      1.0000 0.67370  0.62280  0.00800  Biso   1.000  C
  C89      1.0000 0.68403  0.54940  0.95230  Biso   1.000  C
  C90      1.0000 0.72060  0.45840  0.88720  Biso   1.000  C
  H59      1.0000 0.74400  0.43600  0.87830  Biso   1.000  H
  C91      1.0000 0.72190  0.52890  0.95140  Biso   1.000  C
  H60      1.0000 0.74620  0.55900  0.98980  Biso   1.000  H
  C92      1.0000 0.03510  0.12660  0.94440  Biso   1.000  C
  H61      1.0000 0.05290  0.07950  0.95300  Biso   1.000  H
  C93      1.0000 0.99360  0.11560  0.88310  Biso   1.000  C
  H62      1.0000 0.98440  0.06170  0.85220  Biso   1.000  H
  C94      1.0000 0.96660  0.17910  0.86700  Biso   1.000  C
  C95      1.0000 0.98350  0.25790  0.91120  Biso   1.000  C
  H63      1.0000 0.96610  0.30590  0.90080  Biso   1.000  H
  C96      1.0000 0.02490  0.26730  0.96970  Biso   1.000  C
  H64      1.0000 0.03560  0.32180  0.99570  Biso   1.000  H
  Zn9      1.0000 0.88803  0.22069  0.43416  Biso   1.000  Zn
  Zn10     1.0000 0.79854  0.27979  0.35513  Biso   1.000  Zn
  S9       1.0000 0.83263  0.51249  0.15445  Biso   1.000  S
  S10      1.0000 0.85430  0.01795  0.12813  Biso   1.000  S
  O33      1.0000 0.82257  0.36910  0.28510  Biso   1.000  O
  O34      1.0000 0.88929  0.33030  0.35310  Biso   1.000  O
  O35      1.0000 0.81832  0.64410  0.98700  Biso   1.000  O
  O36      1.0000 0.88327  0.69580  0.04740  Biso   1.000  O
  O37      1.0000 0.80224  0.18900  0.24980  Biso   1.000  O
  O38      1.0000 0.86932  0.15250  0.29740  Biso   1.000  O
  O39      1.0000 0.79811  0.82410  0.94630  Biso   1.000  O
  O40      1.0000 0.86324  0.87470  0.99480  Biso   1.000  O
  N9       1.0000 0.73711  0.30850  0.28940  Biso   1.000  N
  N10      1.0000 0.44951  0.30220  0.01020  Biso   1.000  N
  C97      1.0000 0.86010  0.37820  0.29870  Biso   1.000  C
  C98      1.0000 0.87046  0.45220  0.24560  Biso   1.000  C
  C99      1.0000 0.90980  0.48120  0.25780  Biso   1.000  C
  H65      1.0000 0.93440  0.45610  0.30370  Biso   1.000  H
  C100     1.0000 0.90840  0.55320  0.19270  Biso   1.000  C
  H66      1.0000 0.93190  0.58140  0.19160  Biso   1.000  H
  C101     1.0000 0.86850  0.57690  0.13130  Biso   1.000  C
  C102     1.0000 0.85580  0.64470  0.04840  Biso   1.000  C
  C103     1.0000 0.70980  0.26380  0.31740  Biso   1.000  C
  H67      1.0000 0.71990  0.22180  0.36970  Biso   1.000  H
  C104     1.0000 0.66740  0.27710  0.27240  Biso   1.000  C
  H68      1.0000 0.64970  0.24410  0.29440  Biso   1.000  H
  C105     1.0000 0.65130  0.33820  0.19580  Biso   1.000  C
  C106     1.0000 0.67930  0.38570  0.16890  Biso   1.000  C
  H69      1.0000 0.66980  0.42940  0.11850  Biso   1.000  H
  C107     1.0000 0.72130  0.36930  0.21590  Biso   1.000  C
  H70      1.0000 0.73950  0.40210  0.19550  Biso   1.000  H
  C108     1.0000 0.60520  0.35180  0.14130  Biso   1.000  C
  H71      1.0000 0.60030  0.41300  0.12340  Biso   1.000  H
  H72      1.0000 0.59580  0.31930  0.07590  Biso   1.000  H
  C109     1.0000 0.57990  0.32660  0.20040  Biso   1.000  C
  H73      1.0000 0.58410  0.36860  0.25630  Biso   1.000  H
  H74      1.0000 0.58940  0.27050  0.23300  Biso   1.000  H
  C110     1.0000 0.83100  0.14460  0.24200  Biso   1.000  C
  C111     1.0000 0.81860  0.07460  0.16170  Biso   1.000  C
  C112     1.0000 0.82630  0.87720  0.99200  Biso   1.000  C
  C113     1.0000 0.81597  0.95060  0.04770  Biso   1.000  C
  C114     1.0000 0.77940  0.04160  0.11280  Biso   1.000  C
  H75      1.0000 0.75600  0.06400  0.12170  Biso   1.000  H
  C115     1.0000 0.77810  0.97110  0.04860  Biso   1.000  C
  H76      1.0000 0.75380  0.94100  0.01020  Biso   1.000  H
  C116     1.0000 0.46490  0.37340  0.05560  Biso   1.000  C
  H77      1.0000 0.44710  0.42050  0.04700  Biso   1.000  H
  C117     1.0000 0.50640  0.38440  0.11690  Biso   1.000  C
  H78      1.0000 0.51560  0.43830  0.14780  Biso   1.000  H
  C118     1.0000 0.53340  0.32090  0.13300  Biso   1.000  C
  C119     1.0000 0.51650  0.24210  0.08880  Biso   1.000  C
  H79      1.0000 0.53390  0.19410  0.09920  Biso   1.000  H
  C120     1.0000 0.47510  0.23270  0.03030  Biso   1.000  C
  H80      1.0000 0.46440  0.17820  0.00430  Biso   1.000  H
  Zn11     1.0000 0.38803  0.72069  0.43416  Biso   1.000  Zn
  Zn12     1.0000 0.29854  0.77979  0.35513  Biso   1.000  Zn
  S11      1.0000 0.33263  0.01249  0.15445  Biso   1.000  S
  S12      1.0000 0.35430  0.51795  0.12813  Biso   1.000  S
  O41      1.0000 0.32257  0.86910  0.28510  Biso   1.000  O
  O42      1.0000 0.38929  0.83030  0.35310  Biso   1.000  O
  O43      1.0000 0.31832  0.14410  0.98700  Biso   1.000  O
  O44      1.0000 0.38327  0.19580  0.04740  Biso   1.000  O
  O45      1.0000 0.30224  0.68900  0.24980  Biso   1.000  O
  O46      1.0000 0.36932  0.65250  0.29740  Biso   1.000  O
  O47      1.0000 0.29811  0.32410  0.94630  Biso   1.000  O
  O48      1.0000 0.36324  0.37470  0.99480  Biso   1.000  O
  N11      1.0000 0.23711  0.80850  0.28940  Biso   1.000  N
  N12      1.0000 0.94951  0.80220  0.01020  Biso   1.000  N
  C121     1.0000 0.36010  0.87820  0.29870  Biso   1.000  C
  C122     1.0000 0.37046  0.95220  0.24560  Biso   1.000  C
  C123     1.0000 0.40980  0.98120  0.25780  Biso   1.000  C
  H81      1.0000 0.43440  0.95610  0.30370  Biso   1.000  H
  C124     1.0000 0.40840  0.05320  0.19270  Biso   1.000  C
  H82      1.0000 0.43190  0.08140  0.19160  Biso   1.000  H
  C125     1.0000 0.36850  0.07690  0.13130  Biso   1.000  C
  C126     1.0000 0.35580  0.14470  0.04840  Biso   1.000  C
  C127     1.0000 0.20980  0.76380  0.31740  Biso   1.000  C
  H83      1.0000 0.21990  0.72180  0.36970  Biso   1.000  H
  C128     1.0000 0.16740  0.77710  0.27240  Biso   1.000  C
  H84      1.0000 0.14970  0.74410  0.29440  Biso   1.000  H
  C129     1.0000 0.15130  0.83820  0.19580  Biso   1.000  C
  C130     1.0000 0.17930  0.88570  0.16890  Biso   1.000  C
  H85      1.0000 0.16980  0.92940  0.11850  Biso   1.000  H
  C131     1.0000 0.22130  0.86930  0.21590  Biso   1.000  C
  H86      1.0000 0.23950  0.90210  0.19550  Biso   1.000  H
  C132     1.0000 0.10520  0.85180  0.14130  Biso   1.000  C
  H87      1.0000 0.10030  0.91300  0.12340  Biso   1.000  H
  H88      1.0000 0.09580  0.81930  0.07590  Biso   1.000  H
  C133     1.0000 0.07990  0.82660  0.20040  Biso   1.000  C
  H89      1.0000 0.08410  0.86860  0.25630  Biso   1.000  H
  H90      1.0000 0.08940  0.77050  0.23300  Biso   1.000  H
  C134     1.0000 0.33100  0.64460  0.24200  Biso   1.000  C
  C135     1.0000 0.31860  0.57460  0.16170  Biso   1.000  C
  C136     1.0000 0.32630  0.37720  0.99200  Biso   1.000  C
  C137     1.0000 0.31597  0.45060  0.04770  Biso   1.000  C
  C138     1.0000 0.27940  0.54160  0.11280  Biso   1.000  C
  H91      1.0000 0.25600  0.56400  0.12170  Biso   1.000  H
  C139     1.0000 0.27810  0.47110  0.04860  Biso   1.000  C
  H92      1.0000 0.25380  0.44100  0.01020  Biso   1.000  H
  C140     1.0000 0.96490  0.87340  0.05560  Biso   1.000  C
  H93      1.0000 0.94710  0.92050  0.04700  Biso   1.000  H
  C141     1.0000 0.00640  0.88440  0.11690  Biso   1.000  C
  H94      1.0000 0.01560  0.93830  0.14780  Biso   1.000  H
  C142     1.0000 0.03340  0.82090  0.13300  Biso   1.000  C
  C143     1.0000 0.01650  0.74210  0.08880  Biso   1.000  C
  H95      1.0000 0.03390  0.69410  0.09920  Biso   1.000  H
  C144     1.0000 0.97510  0.73270  0.03030  Biso   1.000  C
  H96      1.0000 0.96440  0.67820  0.00430  Biso   1.000  H
  Zn13     1.0000 0.88803  0.77931  0.93416  Biso   1.000  Zn
  Zn14     1.0000 0.79854  0.72021  0.85513  Biso   1.000  Zn
  S13      1.0000 0.83263  0.48751  0.65445  Biso   1.000  S
  S14      1.0000 0.85430  0.98205  0.62813  Biso   1.000  S
  O49      1.0000 0.82257  0.63090  0.78510  Biso   1.000  O
  O50      1.0000 0.88929  0.66970  0.85310  Biso   1.000  O
  O51      1.0000 0.81832  0.35590  0.48700  Biso   1.000  O
  O52      1.0000 0.88327  0.30420  0.54740  Biso   1.000  O
  O53      1.0000 0.80224  0.81100  0.74980  Biso   1.000  O
  O54      1.0000 0.86932  0.84750  0.79740  Biso   1.000  O
  O55      1.0000 0.79811  0.17590  0.44630  Biso   1.000  O
  O56      1.0000 0.86324  0.12530  0.49480  Biso   1.000  O
  N13      1.0000 0.73711  0.69150  0.78940  Biso   1.000  N
  N14      1.0000 0.44951  0.69780  0.51020  Biso   1.000  N
  C145     1.0000 0.86010  0.62180  0.79870  Biso   1.000  C
  C146     1.0000 0.87046  0.54780  0.74560  Biso   1.000  C
  C147     1.0000 0.90980  0.51880  0.75780  Biso   1.000  C
  H97      1.0000 0.93440  0.54390  0.80370  Biso   1.000  H
  C148     1.0000 0.90840  0.44680  0.69270  Biso   1.000  C
  H98      1.0000 0.93190  0.41860  0.69160  Biso   1.000  H
  C149     1.0000 0.86850  0.42310  0.63130  Biso   1.000  C
  C150     1.0000 0.85580  0.35530  0.54840  Biso   1.000  C
  C151     1.0000 0.70980  0.73620  0.81740  Biso   1.000  C
  H99      1.0000 0.71990  0.77820  0.86970  Biso   1.000  H
  C152     1.0000 0.66740  0.72290  0.77240  Biso   1.000  C
  H100     1.0000 0.64970  0.75590  0.79440  Biso   1.000  H
  C153     1.0000 0.65130  0.66180  0.69580  Biso   1.000  C
  C154     1.0000 0.67930  0.61430  0.66890  Biso   1.000  C
  H101     1.0000 0.66980  0.57060  0.61850  Biso   1.000  H
  C155     1.0000 0.72130  0.63070  0.71590  Biso   1.000  C
  H102     1.0000 0.73950  0.59790  0.69550  Biso   1.000  H
  C156     1.0000 0.60520  0.64820  0.64130  Biso   1.000  C
  H103     1.0000 0.60030  0.58700  0.62340  Biso   1.000  H
  H104     1.0000 0.59580  0.68070  0.57590  Biso   1.000  H
  C157     1.0000 0.57990  0.67340  0.70040  Biso   1.000  C
  H105     1.0000 0.58410  0.63140  0.75630  Biso   1.000  H
  H106     1.0000 0.58940  0.72950  0.73300  Biso   1.000  H
  C158     1.0000 0.83100  0.85540  0.74200  Biso   1.000  C
  C159     1.0000 0.81860  0.92540  0.66170  Biso   1.000  C
  C160     1.0000 0.82630  0.12280  0.49200  Biso   1.000  C
  C161     1.0000 0.81597  0.04940  0.54770  Biso   1.000  C
  C162     1.0000 0.77940  0.95840  0.61280  Biso   1.000  C
  H107     1.0000 0.75600  0.93600  0.62170  Biso   1.000  H
  C163     1.0000 0.77810  0.02890  0.54860  Biso   1.000  C
  H108     1.0000 0.75380  0.05900  0.51020  Biso   1.000  H
  C164     1.0000 0.46490  0.62660  0.55560  Biso   1.000  C
  H109     1.0000 0.44710  0.57950  0.54700  Biso   1.000  H
  C165     1.0000 0.50640  0.61560  0.61690  Biso   1.000  C
  H110     1.0000 0.51560  0.56170  0.64780  Biso   1.000  H
  C166     1.0000 0.53340  0.67910  0.63300  Biso   1.000  C
  C167     1.0000 0.51650  0.75790  0.58880  Biso   1.000  C
  H111     1.0000 0.53390  0.80590  0.59920  Biso   1.000  H
  C168     1.0000 0.47510  0.76730  0.53030  Biso   1.000  C
  H112     1.0000 0.46440  0.82180  0.50430  Biso   1.000  H
  Zn15     1.0000 0.38803  0.27931  0.93416  Biso   1.000  Zn
  Zn16     1.0000 0.29854  0.22021  0.85513  Biso   1.000  Zn
  S15      1.0000 0.33263  0.98751  0.65445  Biso   1.000  S
  S16      1.0000 0.35430  0.48205  0.62813  Biso   1.000  S
  O57      1.0000 0.32257  0.13090  0.78510  Biso   1.000  O
  O58      1.0000 0.38929  0.16970  0.85310  Biso   1.000  O
  O59      1.0000 0.31832  0.85590  0.48700  Biso   1.000  O
  O60      1.0000 0.38327  0.80420  0.54740  Biso   1.000  O
  O61      1.0000 0.30224  0.31100  0.74980  Biso   1.000  O
  O62      1.0000 0.36932  0.34750  0.79740  Biso   1.000  O
  O63      1.0000 0.29811  0.67590  0.44630  Biso   1.000  O
  O64      1.0000 0.36324  0.62530  0.49480  Biso   1.000  O
  N15      1.0000 0.23711  0.19150  0.78940  Biso   1.000  N
  N16      1.0000 0.94951  0.19780  0.51020  Biso   1.000  N
  C169     1.0000 0.36010  0.12180  0.79870  Biso   1.000  C
  C170     1.0000 0.37046  0.04780  0.74560  Biso   1.000  C
  C171     1.0000 0.40980  0.01880  0.75780  Biso   1.000  C
  H113     1.0000 0.43440  0.04390  0.80370  Biso   1.000  H
  C172     1.0000 0.40840  0.94680  0.69270  Biso   1.000  C
  H114     1.0000 0.43190  0.91860  0.69160  Biso   1.000  H
  C173     1.0000 0.36850  0.92310  0.63130  Biso   1.000  C
  C174     1.0000 0.35580  0.85530  0.54840  Biso   1.000  C
  C175     1.0000 0.20980  0.23620  0.81740  Biso   1.000  C
  H115     1.0000 0.21990  0.27820  0.86970  Biso   1.000  H
  C176     1.0000 0.16740  0.22290  0.77240  Biso   1.000  C
  H116     1.0000 0.14970  0.25590  0.79440  Biso   1.000  H
  C177     1.0000 0.15130  0.16180  0.69580  Biso   1.000  C
  C178     1.0000 0.17930  0.11430  0.66890  Biso   1.000  C
  H117     1.0000 0.16980  0.07060  0.61850  Biso   1.000  H
  C179     1.0000 0.22130  0.13070  0.71590  Biso   1.000  C
  H118     1.0000 0.23950  0.09790  0.69550  Biso   1.000  H
  C180     1.0000 0.10520  0.14820  0.64130  Biso   1.000  C
  H119     1.0000 0.10030  0.08700  0.62340  Biso   1.000  H
  H120     1.0000 0.09580  0.18070  0.57590  Biso   1.000  H
  C181     1.0000 0.07990  0.17340  0.70040  Biso   1.000  C
  H121     1.0000 0.08410  0.13140  0.75630  Biso   1.000  H
  H122     1.0000 0.08940  0.22950  0.73300  Biso   1.000  H
  C182     1.0000 0.33100  0.35540  0.74200  Biso   1.000  C
  C183     1.0000 0.31860  0.42540  0.66170  Biso   1.000  C
  C184     1.0000 0.32630  0.62280  0.49200  Biso   1.000  C
  C185     1.0000 0.31597  0.54940  0.54770  Biso   1.000  C
  C186     1.0000 0.27940  0.45840  0.61280  Biso   1.000  C
  H123     1.0000 0.25600  0.43600  0.62170  Biso   1.000  H
  C187     1.0000 0.27810  0.52890  0.54860  Biso   1.000  C
  H124     1.0000 0.25380  0.55900  0.51020  Biso   1.000  H
  C188     1.0000 0.96490  0.12660  0.55560  Biso   1.000  C
  H125     1.0000 0.94710  0.07950  0.54700  Biso   1.000  H
  C189     1.0000 0.00640  0.11560  0.61690  Biso   1.000  C
  H126     1.0000 0.01560  0.06170  0.64780  Biso   1.000  H
  C190     1.0000 0.03340  0.17910  0.63300  Biso   1.000  C
  C191     1.0000 0.01650  0.25790  0.58880  Biso   1.000  C
  H127     1.0000 0.03390  0.30590  0.59920  Biso   1.000  H
  C192     1.0000 0.97510  0.26730  0.53030  Biso   1.000  C
  H128     1.0000 0.96440  0.32180  0.50430  Biso   1.000  H
