data_image0
_cell_length_a       13.5642
_cell_length_b       13.5642
_cell_length_c       15.6425
_cell_angle_alpha    90
_cell_angle_beta     90
_cell_angle_gamma    90

_symmetry_space_group_name_H-M    "P 1"
_symmetry_int_tables_number       1

loop_
  _symmetry_equiv_pos_as_xyz
  'x, y, z'

loop_
  _atom_site_label
  _atom_site_occupancy
  _atom_site_fract_x
  _atom_site_fract_y
  _atom_site_fract_z
  _atom_site_thermal_displace_type
  _atom_site_B_iso_or_equiv
  _atom_site_type_symbol
  S1       1.0000 0.72360  0.78470  0.89210  Biso   1.000  S
  O1       1.0000 0.62100  0.95130  0.98550  Biso   1.000  O
  O2       1.0000 0.52720  0.99700  0.87860  Biso   1.000  O
  O3       1.0000 0.80740  0.60660  0.70850  Biso   1.000  O
  O4       1.0000 0.85230  0.61430  0.84220  Biso   1.000  O
  C1       1.0000 0.79890  0.64450  0.78240  Biso   1.000  C
  C2       1.0000 0.59380  0.94210  0.91000  Biso   1.000  C
  C3       1.0000 0.63680  0.86480  0.85430  Biso   1.000  C
  C4       1.0000 0.73090  0.72700  0.79490  Biso   1.000  C
  C5       1.0000 0.66780  0.76580  0.73720  Biso   1.000  C
  H1       1.0000 0.65980  0.74210  0.68180  Biso   1.000  H
  C6       1.0000 0.61550  0.84710  0.77130  Biso   1.000  C
  H2       1.0000 0.57090  0.88450  0.73980  Biso   1.000  H
  S2       1.0000 0.27640  0.21530  0.39210  Biso   1.000  S
  O5       1.0000 0.37900  0.04870  0.48550  Biso   1.000  O
  O6       1.0000 0.47280  0.00300  0.37860  Biso   1.000  O
  O7       1.0000 0.19260  0.39340  0.20850  Biso   1.000  O
  O8       1.0000 0.14770  0.38570  0.34220  Biso   1.000  O
  C7       1.0000 0.20110  0.35550  0.28240  Biso   1.000  C
  C8       1.0000 0.40620  0.05790  0.41000  Biso   1.000  C
  C9       1.0000 0.36320  0.13520  0.35430  Biso   1.000  C
  C10      1.0000 0.26910  0.27300  0.29490  Biso   1.000  C
  C11      1.0000 0.33220  0.23420  0.23720  Biso   1.000  C
  H3       1.0000 0.34020  0.25790  0.18180  Biso   1.000  H
  C12      1.0000 0.38450  0.15290  0.27130  Biso   1.000  C
  H4       1.0000 0.42910  0.11550  0.23980  Biso   1.000  H
  S3       1.0000 0.21530  0.72360  0.64210  Biso   1.000  S
  O9       1.0000 0.04870  0.62100  0.73550  Biso   1.000  O
  O10      1.0000 0.00300  0.52720  0.62860  Biso   1.000  O
  O11      1.0000 0.39340  0.80740  0.45850  Biso   1.000  O
  O12      1.0000 0.38570  0.85230  0.59220  Biso   1.000  O
  C13      1.0000 0.35550  0.79890  0.53240  Biso   1.000  C
  C14      1.0000 0.05790  0.59380  0.66000  Biso   1.000  C
  C15      1.0000 0.13520  0.63680  0.60430  Biso   1.000  C
  C16      1.0000 0.27300  0.73090  0.54490  Biso   1.000  C
  C17      1.0000 0.23420  0.66780  0.48720  Biso   1.000  C
  H5       1.0000 0.25790  0.65980  0.43180  Biso   1.000  H
  C18      1.0000 0.15290  0.61550  0.52130  Biso   1.000  C
  H6       1.0000 0.11550  0.57090  0.48980  Biso   1.000  H
  S4       1.0000 0.78470  0.27640  0.14210  Biso   1.000  S
  O13      1.0000 0.95130  0.37900  0.23550  Biso   1.000  O
  O14      1.0000 0.99700  0.47280  0.12860  Biso   1.000  O
  O15      1.0000 0.60660  0.19260  0.95850  Biso   1.000  O
  O16      1.0000 0.61430  0.14770  0.09220  Biso   1.000  O
  C19      1.0000 0.64450  0.20110  0.03240  Biso   1.000  C
  C20      1.0000 0.94210  0.40620  0.16000  Biso   1.000  C
  C21      1.0000 0.86480  0.36320  0.10430  Biso   1.000  C
  C22      1.0000 0.72700  0.26910  0.04490  Biso   1.000  C
  C23      1.0000 0.76580  0.33220  0.98720  Biso   1.000  C
  H7       1.0000 0.74210  0.34020  0.93180  Biso   1.000  H
  C24      1.0000 0.84710  0.38450  0.02130  Biso   1.000  C
  H8       1.0000 0.88450  0.42910  0.98980  Biso   1.000  H
  S5       1.0000 0.27640  0.78470  0.10790  Biso   1.000  S
  O17      1.0000 0.37900  0.95130  0.01450  Biso   1.000  O
  O18      1.0000 0.47280  0.99700  0.12140  Biso   1.000  O
  O19      1.0000 0.19260  0.60660  0.29150  Biso   1.000  O
  O20      1.0000 0.14770  0.61430  0.15780  Biso   1.000  O
  C25      1.0000 0.20110  0.64450  0.21760  Biso   1.000  C
  C26      1.0000 0.40620  0.94210  0.09000  Biso   1.000  C
  C27      1.0000 0.36320  0.86480  0.14570  Biso   1.000  C
  C28      1.0000 0.26910  0.72700  0.20510  Biso   1.000  C
  C29      1.0000 0.33220  0.76580  0.26280  Biso   1.000  C
  H9       1.0000 0.34020  0.74210  0.31820  Biso   1.000  H
  C30      1.0000 0.38450  0.84710  0.22870  Biso   1.000  C
  H10      1.0000 0.42910  0.88450  0.26020  Biso   1.000  H
  S6       1.0000 0.72360  0.21530  0.60790  Biso   1.000  S
  O21      1.0000 0.62100  0.04870  0.51450  Biso   1.000  O
  O22      1.0000 0.52720  0.00300  0.62140  Biso   1.000  O
  O23      1.0000 0.80740  0.39340  0.79150  Biso   1.000  O
  O24      1.0000 0.85230  0.38570  0.65780  Biso   1.000  O
  C31      1.0000 0.79890  0.35550  0.71760  Biso   1.000  C
  C32      1.0000 0.59380  0.05790  0.59000  Biso   1.000  C
  C33      1.0000 0.63680  0.13520  0.64570  Biso   1.000  C
  C34      1.0000 0.73090  0.27300  0.70510  Biso   1.000  C
  C35      1.0000 0.66780  0.23420  0.76280  Biso   1.000  C
  H11      1.0000 0.65980  0.25790  0.81820  Biso   1.000  H
  C36      1.0000 0.61550  0.15290  0.72870  Biso   1.000  C
  H12      1.0000 0.57090  0.11550  0.76020  Biso   1.000  H
  S7       1.0000 0.78470  0.72360  0.35790  Biso   1.000  S
  O25      1.0000 0.95130  0.62100  0.26450  Biso   1.000  O
  O26      1.0000 0.99700  0.52720  0.37140  Biso   1.000  O
  O27      1.0000 0.60660  0.80740  0.54150  Biso   1.000  O
  O28      1.0000 0.61430  0.85230  0.40780  Biso   1.000  O
  C37      1.0000 0.64450  0.79890  0.46760  Biso   1.000  C
  C38      1.0000 0.94210  0.59380  0.34000  Biso   1.000  C
  C39      1.0000 0.86480  0.63680  0.39570  Biso   1.000  C
  C40      1.0000 0.72700  0.73090  0.45510  Biso   1.000  C
  C41      1.0000 0.76580  0.66780  0.51280  Biso   1.000  C
  H13      1.0000 0.74210  0.65980  0.56820  Biso   1.000  H
  C42      1.0000 0.84710  0.61550  0.47870  Biso   1.000  C
  H14      1.0000 0.88450  0.57090  0.51020  Biso   1.000  H
  S8       1.0000 0.21530  0.27640  0.85790  Biso   1.000  S
  O29      1.0000 0.04870  0.37900  0.76450  Biso   1.000  O
  O30      1.0000 0.00300  0.47280  0.87140  Biso   1.000  O
  O31      1.0000 0.39340  0.19260  0.04150  Biso   1.000  O
  O32      1.0000 0.38570  0.14770  0.90780  Biso   1.000  O
  C43      1.0000 0.35550  0.20110  0.96760  Biso   1.000  C
  C44      1.0000 0.05790  0.40620  0.84000  Biso   1.000  C
  C45      1.0000 0.13520  0.36320  0.89570  Biso   1.000  C
  C46      1.0000 0.27300  0.26910  0.95510  Biso   1.000  C
  C47      1.0000 0.23420  0.33220  0.01280  Biso   1.000  C
  H15      1.0000 0.25790  0.34020  0.06820  Biso   1.000  H
  C48      1.0000 0.15290  0.38450  0.97870  Biso   1.000  C
  H16      1.0000 0.11550  0.42910  0.01020  Biso   1.000  H
  In1      1.0000 0.50000  0.07660  0.00000  Biso   1.000  In
  In2      1.0000 0.50000  0.92340  0.50000  Biso   1.000  In
  In3      1.0000 0.92340  0.50000  0.75000  Biso   1.000  In
  In4      1.0000 0.07660  0.50000  0.25000  Biso   1.000  In
