data_image0
_cell_length_a       8.861
_cell_length_b       18.624
_cell_length_c       9.329
_cell_angle_alpha    90
_cell_angle_beta     118.27
_cell_angle_gamma    90

_symmetry_space_group_name_H-M    "P 1"
_symmetry_int_tables_number       1

loop_
  _symmetry_equiv_pos_as_xyz
  'x, y, z'

loop_
  _atom_site_label
  _atom_site_occupancy
  _atom_site_fract_x
  _atom_site_fract_y
  _atom_site_fract_z
  _atom_site_thermal_displace_type
  _atom_site_B_iso_or_equiv
  _atom_site_type_symbol
  Ga1      1.0000 0.49460  0.22010  0.85540  Biso   1.000  Ga
  Ga2      1.0000 0.39970  0.44190  0.87710  Biso   1.000  Ga
  Ga3      1.0000 0.98720  0.17940  0.81610  Biso   1.000  Ga
  P1       1.0000 0.21990  0.09870  0.69960  Biso   1.000  P
  P2       1.0000 0.23900  0.30650  0.95230  Biso   1.000  P
  P3       1.0000 0.88090  0.16280  0.09560  Biso   1.000  P
  F1       1.0000 0.57500  0.51370  0.91410  Biso   1.000  F
  O1       1.0000 0.70390  0.19790  0.02020  Biso   1.000  O
  O2       1.0000 0.15500  0.12320  0.81920  Biso   1.000  O
  O3       1.0000 0.22440  0.37800  0.86780  Biso   1.000  O
  O4       1.0000 0.28440  0.31990  0.13070  Biso   1.000  O
  O5       1.0000 0.88530  0.09330  0.18110  Biso   1.000  O
  O6       1.0000 0.26490  0.01800  0.72440  Biso   1.000  O
  O7       1.0000 0.39070  0.13860  0.74610  Biso   1.000  O
  O8       1.0000 0.09080  0.11800  0.52500  Biso   1.000  O
  O9       1.0000 0.01040  0.21750  0.21370  Biso   1.000  O
  O10      1.0000 0.06210  0.27140  0.86740  Biso   1.000  O
  O11      1.0000 0.93270  0.14350  0.96540  Biso   1.000  O
  O12      1.0000 0.37470  0.25630  0.95200  Biso   1.000  O
  Ga4      1.0000 0.00540  0.72010  0.64460  Biso   1.000  Ga
  Ga5      1.0000 0.10030  0.94190  0.62290  Biso   1.000  Ga
  Ga6      1.0000 0.51280  0.67940  0.68390  Biso   1.000  Ga
  P4       1.0000 0.28010  0.59870  0.80040  Biso   1.000  P
  P5       1.0000 0.26100  0.80650  0.54770  Biso   1.000  P
  P6       1.0000 0.61910  0.66280  0.40440  Biso   1.000  P
  F2       1.0000 0.92500  0.01370  0.58590  Biso   1.000  F
  O13      1.0000 0.79610  0.69790  0.47980  Biso   1.000  O
  O14      1.0000 0.34500  0.62320  0.68080  Biso   1.000  O
  O15      1.0000 0.27560  0.87800  0.63220  Biso   1.000  O
  O16      1.0000 0.21560  0.81990  0.36930  Biso   1.000  O
  O17      1.0000 0.61470  0.59330  0.31890  Biso   1.000  O
  O18      1.0000 0.23510  0.51800  0.77560  Biso   1.000  O
  O19      1.0000 0.10930  0.63860  0.75390  Biso   1.000  O
  O20      1.0000 0.40920  0.61800  0.97500  Biso   1.000  O
  O21      1.0000 0.48960  0.71750  0.28630  Biso   1.000  O
  O22      1.0000 0.43790  0.77140  0.63260  Biso   1.000  O
  O23      1.0000 0.56730  0.64350  0.53460  Biso   1.000  O
  O24      1.0000 0.12530  0.75630  0.54800  Biso   1.000  O
  Ga7      1.0000 0.50540  0.77990  0.14460  Biso   1.000  Ga
  Ga8      1.0000 0.60030  0.55810  0.12290  Biso   1.000  Ga
  Ga9      1.0000 0.01280  0.82060  0.18390  Biso   1.000  Ga
  P7       1.0000 0.78010  0.90130  0.30040  Biso   1.000  P
  P8       1.0000 0.76100  0.69350  0.04770  Biso   1.000  P
  P9       1.0000 0.11910  0.83720  0.90440  Biso   1.000  P
  F3       1.0000 0.42500  0.48630  0.08590  Biso   1.000  F
  O25      1.0000 0.29610  0.80210  0.97980  Biso   1.000  O
  O26      1.0000 0.84500  0.87680  0.18080  Biso   1.000  O
  O27      1.0000 0.77560  0.62200  0.13220  Biso   1.000  O
  O28      1.0000 0.71560  0.68010  0.86930  Biso   1.000  O
  O29      1.0000 0.11470  0.90670  0.81890  Biso   1.000  O
  O30      1.0000 0.73510  0.98200  0.27560  Biso   1.000  O
  O31      1.0000 0.60930  0.86140  0.25390  Biso   1.000  O
  O32      1.0000 0.90920  0.88200  0.47500  Biso   1.000  O
  O33      1.0000 0.98960  0.78250  0.78630  Biso   1.000  O
  O34      1.0000 0.93790  0.72860  0.13260  Biso   1.000  O
  O35      1.0000 0.06730  0.85650  0.03460  Biso   1.000  O
  O36      1.0000 0.62530  0.74370  0.04800  Biso   1.000  O
  Ga10     1.0000 0.99460  0.27990  0.35540  Biso   1.000  Ga
  Ga11     1.0000 0.89970  0.05810  0.37710  Biso   1.000  Ga
  Ga12     1.0000 0.48720  0.32060  0.31610  Biso   1.000  Ga
  P10      1.0000 0.71990  0.40130  0.19960  Biso   1.000  P
  P11      1.0000 0.73900  0.19350  0.45230  Biso   1.000  P
  P12      1.0000 0.38090  0.33720  0.59560  Biso   1.000  P
  F4       1.0000 0.07500  0.98630  0.41410  Biso   1.000  F
  O37      1.0000 0.20390  0.30210  0.52020  Biso   1.000  O
  O38      1.0000 0.65500  0.37680  0.31920  Biso   1.000  O
  O39      1.0000 0.72440  0.12200  0.36780  Biso   1.000  O
  O40      1.0000 0.78440  0.18010  0.63070  Biso   1.000  O
  O41      1.0000 0.38530  0.40670  0.68110  Biso   1.000  O
  O42      1.0000 0.76490  0.48200  0.22440  Biso   1.000  O
  O43      1.0000 0.89070  0.36140  0.24610  Biso   1.000  O
  O44      1.0000 0.59080  0.38200  0.02500  Biso   1.000  O
  O45      1.0000 0.51040  0.28250  0.71370  Biso   1.000  O
  O46      1.0000 0.56210  0.22860  0.36740  Biso   1.000  O
  O47      1.0000 0.43270  0.35650  0.46540  Biso   1.000  O
  O48      1.0000 0.87470  0.24370  0.45200  Biso   1.000  O
