data_image0
_cell_length_a       10.0725
_cell_length_b       10.2297
_cell_length_c       23.5
_cell_angle_alpha    90
_cell_angle_beta     90
_cell_angle_gamma    90

_symmetry_space_group_name_H-M    P 1
_symmetry_int_tables_number       1

loop_
  _symmetry_equiv_pos_as_xyz
  'x, y, z'

loop_
  _atom_site_label
  _atom_site_occupancy
  _atom_site_fract_x
  _atom_site_fract_y
  _atom_site_fract_z
  _atom_site_thermal_displace_type
  _atom_site_B_iso_or_equiv
  _atom_site_type_symbol
  Sn1      1.0000 0.54726  0.67807  0.23539  Biso   1.000  Sn
  Sn2      1.0000 0.32601  0.80032  0.02513  Biso   1.000  Sn
  H1       1.0000 0.31870  0.62650  0.19150  Biso   1.000  H
  H2       1.0000 0.29870  0.73770  0.23660  Biso   1.000  H
  H3       1.0000 0.35410  0.77140  0.17600  Biso   1.000  H
  H4       1.0000 0.54170  0.76870  0.34030  Biso   1.000  H
  H5       1.0000 0.68010  0.70170  0.33140  Biso   1.000  H
  H6       1.0000 0.65510  0.84300  0.30800  Biso   1.000  H
  H7       1.0000 0.69170  0.56230  0.16180  Biso   1.000  H
  H8       1.0000 0.75240  0.53510  0.22210  Biso   1.000  H
  H9       1.0000 0.62860  0.45540  0.20120  Biso   1.000  H
  H10      1.0000 0.61280  0.09280  0.12540  Biso   1.000  H
  H11      1.0000 0.78810  0.88680  0.09430  Biso   1.000  H
  H12      1.0000 0.75980  0.01010  0.05670  Biso   1.000  H
  H13      1.0000 0.87280  0.93210  0.19880  Biso   1.000  H
  H14      1.0000 0.04860  0.04070  0.24010  Biso   1.000  H
  H15      1.0000 0.09940  0.25590  0.21310  Biso   1.000  H
  H16      1.0000 0.93440  0.37830  0.16890  Biso   1.000  H
  H17      1.0000 0.74530  0.27350  0.13530  Biso   1.000  H
  H18      1.0000 0.10880  0.91710  0.05840  Biso   1.000  H
  H19      1.0000 0.16510  0.83950  0.11070  Biso   1.000  H
  H20      1.0000 0.22640  0.97510  0.09410  Biso   1.000  H
  H21      1.0000 0.27670  0.86850  0.92420  Biso   1.000  H
  H22      1.0000 0.37950  0.96750  0.94970  Biso   1.000  H
  H23      1.0000 0.42720  0.83060  0.92790  Biso   1.000  H
  H24      1.0000 0.48730  0.61290  0.06130  Biso   1.000  H
  H25      1.0000 0.34330  0.57510  0.08070  Biso   1.000  H
  H26      1.0000 0.38870  0.54900  0.01790  Biso   1.000  H
  C1       1.0000 0.35350  0.70700  0.20590  Biso   1.000  C
  C2       1.0000 0.61600  0.75900  0.31480  Biso   1.000  C
  C3       1.0000 0.67200  0.53900  0.20050  Biso   1.000  C
  C4       1.0000 0.61600  0.94500  0.18020  Biso   1.000  C
  C5       1.0000 0.67700  0.02600  0.13700  Biso   1.000  C
  C6       1.0000 0.72000  0.94900  0.08360  Biso   1.000  C
  C7       1.0000 0.61000  0.87900  0.05490  Biso   1.000  C
  C8       1.0000 0.79900  0.09270  0.15940  Biso   1.000  C
  C9       1.0000 0.88600  0.02100  0.19240  Biso   1.000  C
  C10      1.0000 0.99200  0.08500  0.21540  Biso   1.000  C
  C11      1.0000 0.01900  0.21800  0.20260  Biso   1.000  C
  C12      1.0000 0.92400  0.28900  0.17420  Biso   1.000  C
  C13      1.0000 0.81200  0.22560  0.15340  Biso   1.000  C
  C14      1.0000 0.18800  0.89600  0.07960  Biso   1.000  C
  C15      1.0000 0.35600  0.87700  0.94630  Biso   1.000  C
  C16      1.0000 0.39600  0.60700  0.04970  Biso   1.000  C
  O1       1.0000 0.53320  0.99000  0.21550  Biso   1.000  O
  O2       1.0000 0.64450  0.81980  0.18000  Biso   1.000  O
  O3       1.0000 0.49110  0.90500  0.06930  Biso   1.000  O
  O4       1.0000 0.63520  0.80420  0.01160  Biso   1.000  O
  Sn3      1.0000 0.67399  0.30032  0.47487  Biso   1.000  Sn
  Sn4      1.0000 0.45274  0.17807  0.26461  Biso   1.000  Sn
  H27      1.0000 0.38720  0.59280  0.37460  Biso   1.000  H
  H28      1.0000 0.21190  0.38680  0.40570  Biso   1.000  H
  H29      1.0000 0.24020  0.51010  0.44330  Biso   1.000  H
  H30      1.0000 0.12720  0.43210  0.30120  Biso   1.000  H
  H31      1.0000 0.95140  0.54070  0.25990  Biso   1.000  H
  H32      1.0000 0.90060  0.75590  0.28690  Biso   1.000  H
  H33      1.0000 0.06560  0.87830  0.33110  Biso   1.000  H
  H34      1.0000 0.25470  0.77350  0.36470  Biso   1.000  H
  H35      1.0000 0.89120  0.41710  0.44160  Biso   1.000  H
  H36      1.0000 0.83490  0.33950  0.38930  Biso   1.000  H
  H37      1.0000 0.77360  0.47510  0.40590  Biso   1.000  H
  H38      1.0000 0.72330  0.36850  0.57580  Biso   1.000  H
  H39      1.0000 0.62050  0.46750  0.55030  Biso   1.000  H
  H40      1.0000 0.57280  0.33060  0.57210  Biso   1.000  H
  H41      1.0000 0.51270  0.11290  0.43870  Biso   1.000  H
  H42      1.0000 0.65670  0.07510  0.41930  Biso   1.000  H
  H43      1.0000 0.61130  0.04900  0.48210  Biso   1.000  H
  H44      1.0000 0.68130  0.12650  0.30850  Biso   1.000  H
  H45      1.0000 0.70130  0.23770  0.26340  Biso   1.000  H
  H46      1.0000 0.64590  0.27140  0.32400  Biso   1.000  H
  H47      1.0000 0.45830  0.26870  0.15970  Biso   1.000  H
  H48      1.0000 0.31990  0.20170  0.16860  Biso   1.000  H
  H49      1.0000 0.34490  0.34300  0.19200  Biso   1.000  H
  H50      1.0000 0.30830  0.06230  0.33820  Biso   1.000  H
  H51      1.0000 0.24760  0.03510  0.27790  Biso   1.000  H
  H52      1.0000 0.37140  0.95540  0.29880  Biso   1.000  H
  C17      1.0000 0.38400  0.44500  0.31980  Biso   1.000  C
  C18      1.0000 0.32300  0.52600  0.36300  Biso   1.000  C
  C19      1.0000 0.28000  0.44900  0.41640  Biso   1.000  C
  C20      1.0000 0.39000  0.37900  0.44510  Biso   1.000  C
  C21      1.0000 0.20100  0.59270  0.34060  Biso   1.000  C
  C22      1.0000 0.11400  0.52100  0.30760  Biso   1.000  C
  C23      1.0000 0.00800  0.58500  0.28460  Biso   1.000  C
  C24      1.0000 0.98100  0.71800  0.29740  Biso   1.000  C
  C25      1.0000 0.07600  0.78900  0.32580  Biso   1.000  C
  C26      1.0000 0.18800  0.72560  0.34660  Biso   1.000  C
  C27      1.0000 0.81200  0.39600  0.42040  Biso   1.000  C
  C28      1.0000 0.64400  0.37700  0.55370  Biso   1.000  C
  C29      1.0000 0.60400  0.10700  0.45030  Biso   1.000  C
  C30      1.0000 0.64650  0.20700  0.29410  Biso   1.000  C
  C31      1.0000 0.38400  0.25900  0.18520  Biso   1.000  C
  C32      1.0000 0.32800  0.03900  0.29950  Biso   1.000  C
  O5       1.0000 0.46680  0.49000  0.28450  Biso   1.000  O
  O6       1.0000 0.35550  0.31980  0.32000  Biso   1.000  O
  O7       1.0000 0.50890  0.40500  0.43070  Biso   1.000  O
  O8       1.0000 0.36480  0.30420  0.48840  Biso   1.000  O
  Sn5      1.0000 0.95274  0.32193  0.73539  Biso   1.000  Sn
  Sn6      1.0000 0.17399  0.19968  0.52513  Biso   1.000  Sn
  H53      1.0000 0.18130  0.37350  0.69150  Biso   1.000  H
  H54      1.0000 0.20130  0.26230  0.73660  Biso   1.000  H
  H55      1.0000 0.14590  0.22860  0.67600  Biso   1.000  H
  H56      1.0000 0.95830  0.23130  0.84030  Biso   1.000  H
  H57      1.0000 0.81990  0.29830  0.83140  Biso   1.000  H
  H58      1.0000 0.84490  0.15700  0.80800  Biso   1.000  H
  H59      1.0000 0.80830  0.43770  0.66180  Biso   1.000  H
  H60      1.0000 0.74760  0.46490  0.72210  Biso   1.000  H
  H61      1.0000 0.87140  0.54460  0.70120  Biso   1.000  H
  H62      1.0000 0.88720  0.90720  0.62540  Biso   1.000  H
  H63      1.0000 0.71190  0.11320  0.59430  Biso   1.000  H
  H64      1.0000 0.74020  0.98990  0.55670  Biso   1.000  H
  H65      1.0000 0.62720  0.06790  0.69880  Biso   1.000  H
  H66      1.0000 0.45140  0.95930  0.74010  Biso   1.000  H
  H67      1.0000 0.40060  0.74410  0.71310  Biso   1.000  H
  H68      1.0000 0.56560  0.62170  0.66890  Biso   1.000  H
  H69      1.0000 0.75470  0.72650  0.63530  Biso   1.000  H
  H70      1.0000 0.39120  0.08290  0.55840  Biso   1.000  H
  H71      1.0000 0.33490  0.16050  0.61070  Biso   1.000  H
  H72      1.0000 0.27360  0.02490  0.59410  Biso   1.000  H
  H73      1.0000 0.22330  0.13150  0.42420  Biso   1.000  H
  H74      1.0000 0.12050  0.03250  0.44970  Biso   1.000  H
  H75      1.0000 0.07280  0.16940  0.42790  Biso   1.000  H
  H76      1.0000 0.01270  0.38710  0.56130  Biso   1.000  H
  H77      1.0000 0.15670  0.42490  0.58070  Biso   1.000  H
  H78      1.0000 0.11130  0.45100  0.51790  Biso   1.000  H
  C33      1.0000 0.14650  0.29300  0.70590  Biso   1.000  C
  C34      1.0000 0.88400  0.24100  0.81480  Biso   1.000  C
  C35      1.0000 0.82800  0.46100  0.70050  Biso   1.000  C
  C36      1.0000 0.88400  0.05500  0.68020  Biso   1.000  C
  C37      1.0000 0.82300  0.97400  0.63700  Biso   1.000  C
  C38      1.0000 0.78000  0.05100  0.58360  Biso   1.000  C
  C39      1.0000 0.89000  0.12100  0.55490  Biso   1.000  C
  C40      1.0000 0.70100  0.90730  0.65940  Biso   1.000  C
  C41      1.0000 0.61400  0.97900  0.69240  Biso   1.000  C
  C42      1.0000 0.50800  0.91500  0.71540  Biso   1.000  C
  C43      1.0000 0.48100  0.78200  0.70260  Biso   1.000  C
  C44      1.0000 0.57600  0.71100  0.67420  Biso   1.000  C
  C45      1.0000 0.68800  0.77440  0.65340  Biso   1.000  C
  C46      1.0000 0.31200  0.10400  0.57960  Biso   1.000  C
  C47      1.0000 0.14400  0.12300  0.44630  Biso   1.000  C
  C48      1.0000 0.10400  0.39300  0.54970  Biso   1.000  C
  O9       1.0000 0.96680  0.01000  0.71550  Biso   1.000  O
  O10      1.0000 0.85550  0.18020  0.68000  Biso   1.000  O
  O11      1.0000 0.00890  0.09500  0.56930  Biso   1.000  O
  O12      1.0000 0.86480  0.19580  0.51160  Biso   1.000  O
  Sn7      1.0000 0.82601  0.69968  0.97487  Biso   1.000  Sn
  Sn8      1.0000 0.04726  0.82193  0.76461  Biso   1.000  Sn
  H79      1.0000 0.11280  0.40720  0.87460  Biso   1.000  H
  H80      1.0000 0.28810  0.61320  0.90570  Biso   1.000  H
  H81      1.0000 0.25980  0.48990  0.94330  Biso   1.000  H
  H82      1.0000 0.37280  0.56790  0.80120  Biso   1.000  H
  H83      1.0000 0.54860  0.45930  0.75990  Biso   1.000  H
  H84      1.0000 0.59940  0.24410  0.78690  Biso   1.000  H
  H85      1.0000 0.43440  0.12170  0.83110  Biso   1.000  H
  H86      1.0000 0.24530  0.22650  0.86470  Biso   1.000  H
  H87      1.0000 0.60880  0.58290  0.94160  Biso   1.000  H
  H88      1.0000 0.66510  0.66050  0.88930  Biso   1.000  H
  H89      1.0000 0.72640  0.52490  0.90590  Biso   1.000  H
  H90      1.0000 0.77670  0.63150  0.07580  Biso   1.000  H
  H91      1.0000 0.87950  0.53250  0.05030  Biso   1.000  H
  H92      1.0000 0.92720  0.66940  0.07210  Biso   1.000  H
  H93      1.0000 0.98730  0.88710  0.93870  Biso   1.000  H
  H94      1.0000 0.84330  0.92490  0.91930  Biso   1.000  H
  H95      1.0000 0.88870  0.95100  0.98210  Biso   1.000  H
  H96      1.0000 0.81870  0.87350  0.80850  Biso   1.000  H
  H97      1.0000 0.79870  0.76230  0.76340  Biso   1.000  H
  H98      1.0000 0.85410  0.72860  0.82400  Biso   1.000  H
  H99      1.0000 0.04170  0.73130  0.65970  Biso   1.000  H
  H100     1.0000 0.18010  0.79830  0.66860  Biso   1.000  H
  H101     1.0000 0.15510  0.65700  0.69200  Biso   1.000  H
  H102     1.0000 0.19170  0.93770  0.83820  Biso   1.000  H
  H103     1.0000 0.25240  0.96490  0.77790  Biso   1.000  H
  H104     1.0000 0.12860  0.04460  0.79880  Biso   1.000  H
  C49      1.0000 0.11600  0.55500  0.81980  Biso   1.000  C
  C50      1.0000 0.17700  0.47400  0.86300  Biso   1.000  C
  C51      1.0000 0.22000  0.55100  0.91640  Biso   1.000  C
  C52      1.0000 0.11000  0.62100  0.94510  Biso   1.000  C
  C53      1.0000 0.29900  0.40730  0.84060  Biso   1.000  C
  C54      1.0000 0.38600  0.47900  0.80760  Biso   1.000  C
  C55      1.0000 0.49200  0.41500  0.78460  Biso   1.000  C
  C56      1.0000 0.51900  0.28200  0.79740  Biso   1.000  C
  C57      1.0000 0.42400  0.21100  0.82580  Biso   1.000  C
  C58      1.0000 0.31200  0.27440  0.84660  Biso   1.000  C
  C59      1.0000 0.68800  0.60400  0.92040  Biso   1.000  C
  C60      1.0000 0.85600  0.62300  0.05370  Biso   1.000  C
  C61      1.0000 0.89600  0.89300  0.95030  Biso   1.000  C
  C62      1.0000 0.85350  0.79300  0.79410  Biso   1.000  C
  C63      1.0000 0.11600  0.74100  0.68520  Biso   1.000  C
  C64      1.0000 0.17200  0.96100  0.79950  Biso   1.000  C
  O13      1.0000 0.03320  0.51000  0.78450  Biso   1.000  O
  O14      1.0000 0.14450  0.68020  0.82000  Biso   1.000  O
  O15      1.0000 0.99110  0.59500  0.93070  Biso   1.000  O
  O16      1.0000 0.13520  0.69580  0.98840  Biso   1.000  O
