data_image0
_cell_length_a       27.722
_cell_length_b       27.722
_cell_length_c       27.722
_cell_angle_alpha    60
_cell_angle_beta     60
_cell_angle_gamma    60

_symmetry_space_group_name_H-M    P 1
_symmetry_int_tables_number       1

loop_
  _symmetry_equiv_pos_as_xyz
  'x, y, z'

loop_
  _atom_site_label
  _atom_site_occupancy
  _atom_site_fract_x
  _atom_site_fract_y
  _atom_site_fract_z
  _atom_site_thermal_displace_type
  _atom_site_B_iso_or_equiv
  _atom_site_type_symbol
  Cd1      1.0000 0.54281  0.08898  0.91102  Biso   1.000  Cd
  Cd2      1.0000 0.08898  0.54281  0.45719  Biso   1.000  Cd
  Cd3      1.0000 0.91102  0.45719  0.54281  Biso   1.000  Cd
  Cd4      1.0000 0.45719  0.91102  0.08898  Biso   1.000  Cd
  Cd5      1.0000 0.54281  0.91102  0.45719  Biso   1.000  Cd
  Cd6      1.0000 0.08898  0.45719  0.91102  Biso   1.000  Cd
  Cd7      1.0000 0.91102  0.54281  0.08898  Biso   1.000  Cd
  Cd8      1.0000 0.45719  0.08898  0.54281  Biso   1.000  Cd
  Cd9      1.0000 0.54281  0.45719  0.08898  Biso   1.000  Cd
  Cd10     1.0000 0.08898  0.91102  0.54281  Biso   1.000  Cd
  Cd11     1.0000 0.91102  0.08898  0.45719  Biso   1.000  Cd
  Cd12     1.0000 0.45719  0.54281  0.91102  Biso   1.000  Cd
  Cd13     1.0000 0.41102  0.95719  0.58898  Biso   1.000  Cd
  Cd14     1.0000 0.95719  0.41102  0.04281  Biso   1.000  Cd
  Cd15     1.0000 0.04281  0.58898  0.95719  Biso   1.000  Cd
  Cd16     1.0000 0.58898  0.04281  0.41102  Biso   1.000  Cd
  Cd17     1.0000 0.58898  0.95719  0.04281  Biso   1.000  Cd
  Cd18     1.0000 0.04281  0.41102  0.58898  Biso   1.000  Cd
  Cd19     1.0000 0.95719  0.58898  0.41102  Biso   1.000  Cd
  Cd20     1.0000 0.41102  0.04281  0.95719  Biso   1.000  Cd
  Cd21     1.0000 0.04281  0.95719  0.41102  Biso   1.000  Cd
  Cd22     1.0000 0.58898  0.41102  0.95719  Biso   1.000  Cd
  Cd23     1.0000 0.41102  0.58898  0.04281  Biso   1.000  Cd
  Cd24     1.0000 0.95719  0.04281  0.58898  Biso   1.000  Cd
  H1       1.0000 0.55570  0.03870  0.11630  Biso   1.000  H
  H2       1.0000 0.03870  0.55570  0.28930  Biso   1.000  H
  H3       1.0000 0.11630  0.28930  0.55570  Biso   1.000  H
  H4       1.0000 0.28930  0.11630  0.03870  Biso   1.000  H
  H5       1.0000 0.55570  0.11630  0.28930  Biso   1.000  H
  H6       1.0000 0.03870  0.28930  0.11630  Biso   1.000  H
  H7       1.0000 0.11630  0.55570  0.03870  Biso   1.000  H
  H8       1.0000 0.28930  0.03870  0.55570  Biso   1.000  H
  H9       1.0000 0.55570  0.28930  0.03870  Biso   1.000  H
  H10      1.0000 0.03870  0.11630  0.55570  Biso   1.000  H
  H11      1.0000 0.11630  0.03870  0.28930  Biso   1.000  H
  H12      1.0000 0.28930  0.55570  0.11630  Biso   1.000  H
  H13      1.0000 0.46130  0.94430  0.38370  Biso   1.000  H
  H14      1.0000 0.94430  0.46130  0.21070  Biso   1.000  H
  H15      1.0000 0.21070  0.38370  0.94430  Biso   1.000  H
  H16      1.0000 0.38370  0.21070  0.46130  Biso   1.000  H
  H17      1.0000 0.38370  0.94430  0.21070  Biso   1.000  H
  H18      1.0000 0.21070  0.46130  0.38370  Biso   1.000  H
  H19      1.0000 0.94430  0.38370  0.46130  Biso   1.000  H
  H20      1.0000 0.46130  0.21070  0.94430  Biso   1.000  H
  H21      1.0000 0.21070  0.94430  0.46130  Biso   1.000  H
  H22      1.0000 0.38370  0.46130  0.94430  Biso   1.000  H
  H23      1.0000 0.46130  0.38370  0.21070  Biso   1.000  H
  H24      1.0000 0.94430  0.21070  0.38370  Biso   1.000  H
  H25      1.0000 0.44430  0.96130  0.88370  Biso   1.000  H
  H26      1.0000 0.96130  0.44430  0.71070  Biso   1.000  H
  H27      1.0000 0.88370  0.71070  0.44430  Biso   1.000  H
  H28      1.0000 0.71070  0.88370  0.96130  Biso   1.000  H
  H29      1.0000 0.44430  0.88370  0.71070  Biso   1.000  H
  H30      1.0000 0.96130  0.71070  0.88370  Biso   1.000  H
  H31      1.0000 0.88370  0.44430  0.96130  Biso   1.000  H
  H32      1.0000 0.71070  0.96130  0.44430  Biso   1.000  H
  H33      1.0000 0.44430  0.71070  0.96130  Biso   1.000  H
  H34      1.0000 0.96130  0.88370  0.44430  Biso   1.000  H
  H35      1.0000 0.88370  0.96130  0.71070  Biso   1.000  H
  H36      1.0000 0.71070  0.44430  0.88370  Biso   1.000  H
  H37      1.0000 0.53870  0.05570  0.61630  Biso   1.000  H
  H38      1.0000 0.05570  0.53870  0.78930  Biso   1.000  H
  H39      1.0000 0.78930  0.61630  0.05570  Biso   1.000  H
  H40      1.0000 0.61630  0.78930  0.53870  Biso   1.000  H
  H41      1.0000 0.61630  0.05570  0.78930  Biso   1.000  H
  H42      1.0000 0.78930  0.53870  0.61630  Biso   1.000  H
  H43      1.0000 0.05570  0.61630  0.53870  Biso   1.000  H
  H44      1.0000 0.53870  0.78930  0.05570  Biso   1.000  H
  H45      1.0000 0.78930  0.05570  0.53870  Biso   1.000  H
  H46      1.0000 0.61630  0.53870  0.05570  Biso   1.000  H
  H47      1.0000 0.53870  0.61630  0.78930  Biso   1.000  H
  H48      1.0000 0.05570  0.78930  0.61630  Biso   1.000  H
  C1       1.0000 0.55241  0.10345  0.99715  Biso   1.000  C
  C2       1.0000 0.55825  0.11551  0.04001  Biso   1.000  C
  C3       1.0000 0.55859  0.07707  0.09795  Biso   1.000  C
  C4       1.0000 0.56438  0.10816  0.12404  Biso   1.000  C
  C5       1.0000 0.56486  0.16556  0.08740  Biso   1.000  C
  C6       1.0000 0.10345  0.55241  0.34699  Biso   1.000  C
  C7       1.0000 0.11551  0.55825  0.28623  Biso   1.000  C
  C8       1.0000 0.07707  0.55859  0.26639  Biso   1.000  C
  C9       1.0000 0.10816  0.56438  0.20342  Biso   1.000  C
  C10      1.0000 0.16556  0.56486  0.18218  Biso   1.000  C
  C11      1.0000 0.99715  0.34699  0.55241  Biso   1.000  C
  C12      1.0000 0.04001  0.28623  0.55825  Biso   1.000  C
  C13      1.0000 0.09795  0.26639  0.55859  Biso   1.000  C
  C14      1.0000 0.12404  0.20342  0.56438  Biso   1.000  C
  C15      1.0000 0.08740  0.18218  0.56486  Biso   1.000  C
  C16      1.0000 0.34699  0.99715  0.10345  Biso   1.000  C
  C17      1.0000 0.28623  0.04001  0.11551  Biso   1.000  C
  C18      1.0000 0.26639  0.09795  0.07707  Biso   1.000  C
  C19      1.0000 0.20342  0.12404  0.10816  Biso   1.000  C
  C20      1.0000 0.18218  0.08740  0.16556  Biso   1.000  C
  C21      1.0000 0.55241  0.99715  0.34699  Biso   1.000  C
  C22      1.0000 0.55825  0.04001  0.28623  Biso   1.000  C
  C23      1.0000 0.55859  0.09795  0.26639  Biso   1.000  C
  C24      1.0000 0.56438  0.12404  0.20342  Biso   1.000  C
  C25      1.0000 0.56486  0.08740  0.18218  Biso   1.000  C
  C26      1.0000 0.10345  0.34699  0.99715  Biso   1.000  C
  C27      1.0000 0.11551  0.28623  0.04001  Biso   1.000  C
  C28      1.0000 0.07707  0.26639  0.09795  Biso   1.000  C
  C29      1.0000 0.10816  0.20342  0.12404  Biso   1.000  C
  C30      1.0000 0.16556  0.18218  0.08740  Biso   1.000  C
  C31      1.0000 0.99715  0.55241  0.10345  Biso   1.000  C
  C32      1.0000 0.04001  0.55825  0.11551  Biso   1.000  C
  C33      1.0000 0.09795  0.55859  0.07707  Biso   1.000  C
  C34      1.0000 0.12404  0.56438  0.10816  Biso   1.000  C
  C35      1.0000 0.08740  0.56486  0.16556  Biso   1.000  C
  C36      1.0000 0.34699  0.10345  0.55241  Biso   1.000  C
  C37      1.0000 0.28623  0.11551  0.55825  Biso   1.000  C
  C38      1.0000 0.26639  0.07707  0.55859  Biso   1.000  C
  C39      1.0000 0.20342  0.10816  0.56438  Biso   1.000  C
  C40      1.0000 0.18218  0.16556  0.56486  Biso   1.000  C
  C41      1.0000 0.55241  0.34699  0.10345  Biso   1.000  C
  C42      1.0000 0.55825  0.28623  0.11551  Biso   1.000  C
  C43      1.0000 0.55859  0.26639  0.07707  Biso   1.000  C
  C44      1.0000 0.56438  0.20342  0.10816  Biso   1.000  C
  C45      1.0000 0.56486  0.18218  0.16556  Biso   1.000  C
  C46      1.0000 0.10345  0.99715  0.55241  Biso   1.000  C
  C47      1.0000 0.11551  0.04001  0.55825  Biso   1.000  C
  C48      1.0000 0.07707  0.09795  0.55859  Biso   1.000  C
  C49      1.0000 0.10816  0.12404  0.56438  Biso   1.000  C
  C50      1.0000 0.16556  0.08740  0.56486  Biso   1.000  C
  C51      1.0000 0.99715  0.10345  0.34699  Biso   1.000  C
  C52      1.0000 0.04001  0.11551  0.28623  Biso   1.000  C
  C53      1.0000 0.09795  0.07707  0.26639  Biso   1.000  C
  C54      1.0000 0.12404  0.10816  0.20342  Biso   1.000  C
  C55      1.0000 0.08740  0.16556  0.18218  Biso   1.000  C
  C56      1.0000 0.34699  0.55241  0.99715  Biso   1.000  C
  C57      1.0000 0.28623  0.55825  0.04001  Biso   1.000  C
  C58      1.0000 0.26639  0.55859  0.09795  Biso   1.000  C
  C59      1.0000 0.20342  0.56438  0.12404  Biso   1.000  C
  C60      1.0000 0.18218  0.56486  0.08740  Biso   1.000  C
  C61      1.0000 0.39655  0.94759  0.50285  Biso   1.000  C
  C62      1.0000 0.38449  0.94175  0.45999  Biso   1.000  C
  C63      1.0000 0.42293  0.94141  0.40205  Biso   1.000  C
  C64      1.0000 0.39184  0.93562  0.37596  Biso   1.000  C
  C65      1.0000 0.33444  0.93514  0.41260  Biso   1.000  C
  C66      1.0000 0.94759  0.39655  0.15301  Biso   1.000  C
  C67      1.0000 0.94175  0.38449  0.21377  Biso   1.000  C
  C68      1.0000 0.94141  0.42293  0.23361  Biso   1.000  C
  C69      1.0000 0.93562  0.39184  0.29658  Biso   1.000  C
  C70      1.0000 0.93514  0.33444  0.31782  Biso   1.000  C
  C71      1.0000 0.15301  0.50285  0.94759  Biso   1.000  C
  C72      1.0000 0.21377  0.45999  0.94175  Biso   1.000  C
  C73      1.0000 0.23361  0.40205  0.94141  Biso   1.000  C
  C74      1.0000 0.29658  0.37596  0.93562  Biso   1.000  C
  C75      1.0000 0.31782  0.41260  0.93514  Biso   1.000  C
  C76      1.0000 0.50285  0.15301  0.39655  Biso   1.000  C
  C77      1.0000 0.45999  0.21377  0.38449  Biso   1.000  C
  C78      1.0000 0.40205  0.23361  0.42293  Biso   1.000  C
  C79      1.0000 0.37596  0.29658  0.39184  Biso   1.000  C
  C80      1.0000 0.41260  0.31782  0.33444  Biso   1.000  C
  C81      1.0000 0.50285  0.94759  0.15301  Biso   1.000  C
  C82      1.0000 0.45999  0.94175  0.21377  Biso   1.000  C
  C83      1.0000 0.40205  0.94141  0.23361  Biso   1.000  C
  C84      1.0000 0.37596  0.93562  0.29658  Biso   1.000  C
  C85      1.0000 0.41260  0.93514  0.31782  Biso   1.000  C
  C86      1.0000 0.15301  0.39655  0.50285  Biso   1.000  C
  C87      1.0000 0.21377  0.38449  0.45999  Biso   1.000  C
  C88      1.0000 0.23361  0.42293  0.40205  Biso   1.000  C
  C89      1.0000 0.29658  0.39184  0.37596  Biso   1.000  C
  C90      1.0000 0.31782  0.33444  0.41260  Biso   1.000  C
  C91      1.0000 0.94759  0.50285  0.39655  Biso   1.000  C
  C92      1.0000 0.94175  0.45999  0.38449  Biso   1.000  C
  C93      1.0000 0.94141  0.40205  0.42293  Biso   1.000  C
  C94      1.0000 0.93562  0.37596  0.39184  Biso   1.000  C
  C95      1.0000 0.93514  0.41260  0.33444  Biso   1.000  C
  C96      1.0000 0.39655  0.15301  0.94759  Biso   1.000  C
  C97      1.0000 0.38449  0.21377  0.94175  Biso   1.000  C
  C98      1.0000 0.42293  0.23361  0.94141  Biso   1.000  C
  C99      1.0000 0.39184  0.29658  0.93562  Biso   1.000  C
  C100     1.0000 0.33444  0.31782  0.93514  Biso   1.000  C
  C101     1.0000 0.15301  0.94759  0.39655  Biso   1.000  C
  C102     1.0000 0.21377  0.94175  0.38449  Biso   1.000  C
  C103     1.0000 0.23361  0.94141  0.42293  Biso   1.000  C
  C104     1.0000 0.29658  0.93562  0.39184  Biso   1.000  C
  C105     1.0000 0.31782  0.93514  0.33444  Biso   1.000  C
  C106     1.0000 0.50285  0.39655  0.94759  Biso   1.000  C
  C107     1.0000 0.45999  0.38449  0.94175  Biso   1.000  C
  C108     1.0000 0.40205  0.42293  0.94141  Biso   1.000  C
  C109     1.0000 0.37596  0.39184  0.93562  Biso   1.000  C
  C110     1.0000 0.41260  0.33444  0.93514  Biso   1.000  C
  C111     1.0000 0.39655  0.50285  0.15301  Biso   1.000  C
  C112     1.0000 0.38449  0.45999  0.21377  Biso   1.000  C
  C113     1.0000 0.42293  0.40205  0.23361  Biso   1.000  C
  C114     1.0000 0.39184  0.37596  0.29658  Biso   1.000  C
  C115     1.0000 0.33444  0.41260  0.31782  Biso   1.000  C
  C116     1.0000 0.94759  0.15301  0.50285  Biso   1.000  C
  C117     1.0000 0.94175  0.21377  0.45999  Biso   1.000  C
  C118     1.0000 0.94141  0.23361  0.40205  Biso   1.000  C
  C119     1.0000 0.93562  0.29658  0.37596  Biso   1.000  C
  C120     1.0000 0.93514  0.31782  0.41260  Biso   1.000  C
  C121     1.0000 0.44759  0.89655  0.00285  Biso   1.000  C
  C122     1.0000 0.44175  0.88449  0.95999  Biso   1.000  C
  C123     1.0000 0.44141  0.92293  0.90205  Biso   1.000  C
  C124     1.0000 0.43562  0.89184  0.87596  Biso   1.000  C
  C125     1.0000 0.43514  0.83444  0.91260  Biso   1.000  C
  C126     1.0000 0.89655  0.44759  0.65301  Biso   1.000  C
  C127     1.0000 0.88449  0.44175  0.71377  Biso   1.000  C
  C128     1.0000 0.92293  0.44141  0.73361  Biso   1.000  C
  C129     1.0000 0.89184  0.43562  0.79658  Biso   1.000  C
  C130     1.0000 0.83444  0.43514  0.81782  Biso   1.000  C
  C131     1.0000 0.00285  0.65301  0.44759  Biso   1.000  C
  C132     1.0000 0.95999  0.71377  0.44175  Biso   1.000  C
  C133     1.0000 0.90205  0.73361  0.44141  Biso   1.000  C
  C134     1.0000 0.87596  0.79658  0.43562  Biso   1.000  C
  C135     1.0000 0.91260  0.81782  0.43514  Biso   1.000  C
  C136     1.0000 0.65301  0.00285  0.89655  Biso   1.000  C
  C137     1.0000 0.71377  0.95999  0.88449  Biso   1.000  C
  C138     1.0000 0.73361  0.90205  0.92293  Biso   1.000  C
  C139     1.0000 0.79658  0.87596  0.89184  Biso   1.000  C
  C140     1.0000 0.81782  0.91260  0.83444  Biso   1.000  C
  C141     1.0000 0.44759  0.00285  0.65301  Biso   1.000  C
  C142     1.0000 0.44175  0.95999  0.71377  Biso   1.000  C
  C143     1.0000 0.44141  0.90205  0.73361  Biso   1.000  C
  C144     1.0000 0.43562  0.87596  0.79658  Biso   1.000  C
  C145     1.0000 0.43514  0.91260  0.81782  Biso   1.000  C
  C146     1.0000 0.89655  0.65301  0.00285  Biso   1.000  C
  C147     1.0000 0.88449  0.71377  0.95999  Biso   1.000  C
  C148     1.0000 0.92293  0.73361  0.90205  Biso   1.000  C
  C149     1.0000 0.89184  0.79658  0.87596  Biso   1.000  C
  C150     1.0000 0.83444  0.81782  0.91260  Biso   1.000  C
  C151     1.0000 0.00285  0.44759  0.89655  Biso   1.000  C
  C152     1.0000 0.95999  0.44175  0.88449  Biso   1.000  C
  C153     1.0000 0.90205  0.44141  0.92293  Biso   1.000  C
  C154     1.0000 0.87596  0.43562  0.89184  Biso   1.000  C
  C155     1.0000 0.91260  0.43514  0.83444  Biso   1.000  C
  C156     1.0000 0.65301  0.89655  0.44759  Biso   1.000  C
  C157     1.0000 0.71377  0.88449  0.44175  Biso   1.000  C
  C158     1.0000 0.73361  0.92293  0.44141  Biso   1.000  C
  C159     1.0000 0.79658  0.89184  0.43562  Biso   1.000  C
  C160     1.0000 0.81782  0.83444  0.43514  Biso   1.000  C
  C161     1.0000 0.44759  0.65301  0.89655  Biso   1.000  C
  C162     1.0000 0.44175  0.71377  0.88449  Biso   1.000  C
  C163     1.0000 0.44141  0.73361  0.92293  Biso   1.000  C
  C164     1.0000 0.43562  0.79658  0.89184  Biso   1.000  C
  C165     1.0000 0.43514  0.81782  0.83444  Biso   1.000  C
  C166     1.0000 0.89655  0.00285  0.44759  Biso   1.000  C
  C167     1.0000 0.88449  0.95999  0.44175  Biso   1.000  C
  C168     1.0000 0.92293  0.90205  0.44141  Biso   1.000  C
  C169     1.0000 0.89184  0.87596  0.43562  Biso   1.000  C
  C170     1.0000 0.83444  0.91260  0.43514  Biso   1.000  C
  C171     1.0000 0.00285  0.89655  0.65301  Biso   1.000  C
  C172     1.0000 0.95999  0.88449  0.71377  Biso   1.000  C
  C173     1.0000 0.90205  0.92293  0.73361  Biso   1.000  C
  C174     1.0000 0.87596  0.89184  0.79658  Biso   1.000  C
  C175     1.0000 0.91260  0.83444  0.81782  Biso   1.000  C
  C176     1.0000 0.65301  0.44759  0.00285  Biso   1.000  C
  C177     1.0000 0.71377  0.44175  0.95999  Biso   1.000  C
  C178     1.0000 0.73361  0.44141  0.90205  Biso   1.000  C
  C179     1.0000 0.79658  0.43562  0.87596  Biso   1.000  C
  C180     1.0000 0.81782  0.43514  0.91260  Biso   1.000  C
  C181     1.0000 0.60345  0.05241  0.49715  Biso   1.000  C
  C182     1.0000 0.61551  0.05825  0.54001  Biso   1.000  C
  C183     1.0000 0.57707  0.05859  0.59795  Biso   1.000  C
  C184     1.0000 0.60816  0.06438  0.62404  Biso   1.000  C
  C185     1.0000 0.66556  0.06486  0.58740  Biso   1.000  C
  C186     1.0000 0.05241  0.60345  0.84699  Biso   1.000  C
  C187     1.0000 0.05825  0.61551  0.78623  Biso   1.000  C
  C188     1.0000 0.05859  0.57707  0.76639  Biso   1.000  C
  C189     1.0000 0.06438  0.60816  0.70342  Biso   1.000  C
  C190     1.0000 0.06486  0.66556  0.68218  Biso   1.000  C
  C191     1.0000 0.84699  0.49715  0.05241  Biso   1.000  C
  C192     1.0000 0.78623  0.54001  0.05825  Biso   1.000  C
  C193     1.0000 0.76639  0.59795  0.05859  Biso   1.000  C
  C194     1.0000 0.70342  0.62404  0.06438  Biso   1.000  C
  C195     1.0000 0.68218  0.58740  0.06486  Biso   1.000  C
  C196     1.0000 0.49715  0.84699  0.60345  Biso   1.000  C
  C197     1.0000 0.54001  0.78623  0.61551  Biso   1.000  C
  C198     1.0000 0.59795  0.76639  0.57707  Biso   1.000  C
  C199     1.0000 0.62404  0.70342  0.60816  Biso   1.000  C
  C200     1.0000 0.58740  0.68218  0.66556  Biso   1.000  C
  C201     1.0000 0.49715  0.05241  0.84699  Biso   1.000  C
  C202     1.0000 0.54001  0.05825  0.78623  Biso   1.000  C
  C203     1.0000 0.59795  0.05859  0.76639  Biso   1.000  C
  C204     1.0000 0.62404  0.06438  0.70342  Biso   1.000  C
  C205     1.0000 0.58740  0.06486  0.68218  Biso   1.000  C
  C206     1.0000 0.84699  0.60345  0.49715  Biso   1.000  C
  C207     1.0000 0.78623  0.61551  0.54001  Biso   1.000  C
  C208     1.0000 0.76639  0.57707  0.59795  Biso   1.000  C
  C209     1.0000 0.70342  0.60816  0.62404  Biso   1.000  C
  C210     1.0000 0.68218  0.66556  0.58740  Biso   1.000  C
  C211     1.0000 0.05241  0.49715  0.60345  Biso   1.000  C
  C212     1.0000 0.05825  0.54001  0.61551  Biso   1.000  C
  C213     1.0000 0.05859  0.59795  0.57707  Biso   1.000  C
  C214     1.0000 0.06438  0.62404  0.60816  Biso   1.000  C
  C215     1.0000 0.06486  0.58740  0.66556  Biso   1.000  C
  C216     1.0000 0.60345  0.84699  0.05241  Biso   1.000  C
  C217     1.0000 0.61551  0.78623  0.05825  Biso   1.000  C
  C218     1.0000 0.57707  0.76639  0.05859  Biso   1.000  C
  C219     1.0000 0.60816  0.70342  0.06438  Biso   1.000  C
  C220     1.0000 0.66556  0.68218  0.06486  Biso   1.000  C
  C221     1.0000 0.84699  0.05241  0.60345  Biso   1.000  C
  C222     1.0000 0.78623  0.05825  0.61551  Biso   1.000  C
  C223     1.0000 0.76639  0.05859  0.57707  Biso   1.000  C
  C224     1.0000 0.70342  0.06438  0.60816  Biso   1.000  C
  C225     1.0000 0.68218  0.06486  0.66556  Biso   1.000  C
  C226     1.0000 0.49715  0.60345  0.05241  Biso   1.000  C
  C227     1.0000 0.54001  0.61551  0.05825  Biso   1.000  C
  C228     1.0000 0.59795  0.57707  0.05859  Biso   1.000  C
  C229     1.0000 0.62404  0.60816  0.06438  Biso   1.000  C
  C230     1.0000 0.58740  0.66556  0.06486  Biso   1.000  C
  C231     1.0000 0.60345  0.49715  0.84699  Biso   1.000  C
  C232     1.0000 0.61551  0.54001  0.78623  Biso   1.000  C
  C233     1.0000 0.57707  0.59795  0.76639  Biso   1.000  C
  C234     1.0000 0.60816  0.62404  0.70342  Biso   1.000  C
  C235     1.0000 0.66556  0.58740  0.68218  Biso   1.000  C
  C236     1.0000 0.05241  0.84699  0.49715  Biso   1.000  C
  C237     1.0000 0.05825  0.78623  0.54001  Biso   1.000  C
  C238     1.0000 0.05859  0.76639  0.59795  Biso   1.000  C
  C239     1.0000 0.06438  0.70342  0.62404  Biso   1.000  C
  C240     1.0000 0.06486  0.68218  0.58740  Biso   1.000  C
  S1       1.0000 0.56326  0.18376  0.01920  Biso   1.000  S
  S2       1.0000 0.18376  0.56326  0.23378  Biso   1.000  S
  S3       1.0000 0.01920  0.23378  0.56326  Biso   1.000  S
  S4       1.0000 0.23378  0.01920  0.18376  Biso   1.000  S
  S5       1.0000 0.56326  0.01920  0.23378  Biso   1.000  S
  S6       1.0000 0.18376  0.23378  0.01920  Biso   1.000  S
  S7       1.0000 0.01920  0.56326  0.18376  Biso   1.000  S
  S8       1.0000 0.23378  0.18376  0.56326  Biso   1.000  S
  S9       1.0000 0.56326  0.23378  0.18376  Biso   1.000  S
  S10      1.0000 0.18376  0.01920  0.56326  Biso   1.000  S
  S11      1.0000 0.01920  0.18376  0.23378  Biso   1.000  S
  S12      1.0000 0.23378  0.56326  0.01920  Biso   1.000  S
  S13      1.0000 0.31624  0.93674  0.48080  Biso   1.000  S
  S14      1.0000 0.93674  0.31624  0.26622  Biso   1.000  S
  S15      1.0000 0.26622  0.48080  0.93674  Biso   1.000  S
  S16      1.0000 0.48080  0.26622  0.31624  Biso   1.000  S
  S17      1.0000 0.48080  0.93674  0.26622  Biso   1.000  S
  S18      1.0000 0.26622  0.31624  0.48080  Biso   1.000  S
  S19      1.0000 0.93674  0.48080  0.31624  Biso   1.000  S
  S20      1.0000 0.31624  0.26622  0.93674  Biso   1.000  S
  S21      1.0000 0.26622  0.93674  0.31624  Biso   1.000  S
  S22      1.0000 0.48080  0.31624  0.93674  Biso   1.000  S
  S23      1.0000 0.31624  0.48080  0.26622  Biso   1.000  S
  S24      1.0000 0.93674  0.26622  0.48080  Biso   1.000  S
  S25      1.0000 0.43674  0.81624  0.98080  Biso   1.000  S
  S26      1.0000 0.81624  0.43674  0.76622  Biso   1.000  S
  S27      1.0000 0.98080  0.76622  0.43674  Biso   1.000  S
  S28      1.0000 0.76622  0.98080  0.81624  Biso   1.000  S
  S29      1.0000 0.43674  0.98080  0.76622  Biso   1.000  S
  S30      1.0000 0.81624  0.76622  0.98080  Biso   1.000  S
  S31      1.0000 0.98080  0.43674  0.81624  Biso   1.000  S
  S32      1.0000 0.76622  0.81624  0.43674  Biso   1.000  S
  S33      1.0000 0.43674  0.76622  0.81624  Biso   1.000  S
  S34      1.0000 0.81624  0.98080  0.43674  Biso   1.000  S
  S35      1.0000 0.98080  0.81624  0.76622  Biso   1.000  S
  S36      1.0000 0.76622  0.43674  0.98080  Biso   1.000  S
  S37      1.0000 0.68376  0.06326  0.51920  Biso   1.000  S
  S38      1.0000 0.06326  0.68376  0.73378  Biso   1.000  S
  S39      1.0000 0.73378  0.51920  0.06326  Biso   1.000  S
  S40      1.0000 0.51920  0.73378  0.68376  Biso   1.000  S
  S41      1.0000 0.51920  0.06326  0.73378  Biso   1.000  S
  S42      1.0000 0.73378  0.68376  0.51920  Biso   1.000  S
  S43      1.0000 0.06326  0.51920  0.68376  Biso   1.000  S
  S44      1.0000 0.68376  0.73378  0.06326  Biso   1.000  S
  S45      1.0000 0.73378  0.06326  0.68376  Biso   1.000  S
  S46      1.0000 0.51920  0.68376  0.06326  Biso   1.000  S
  S47      1.0000 0.68376  0.51920  0.73378  Biso   1.000  S
  S48      1.0000 0.06326  0.73378  0.51920  Biso   1.000  S
  O1       1.0000 0.54054  0.05716  0.01448  Biso   1.000  O
  O2       1.0000 0.55636  0.14044  0.94602  Biso   1.000  O
  O3       1.0000 0.05716  0.54054  0.38782  Biso   1.000  O
  O4       1.0000 0.14044  0.55636  0.35718  Biso   1.000  O
  O5       1.0000 0.01448  0.38782  0.54054  Biso   1.000  O
  O6       1.0000 0.94602  0.35718  0.55636  Biso   1.000  O
  O7       1.0000 0.38782  0.01448  0.05716  Biso   1.000  O
  O8       1.0000 0.35718  0.94602  0.14044  Biso   1.000  O
  O9       1.0000 0.54054  0.01448  0.38782  Biso   1.000  O
  O10      1.0000 0.55636  0.94602  0.35718  Biso   1.000  O
  O11      1.0000 0.05716  0.38782  0.01448  Biso   1.000  O
  O12      1.0000 0.14044  0.35718  0.94602  Biso   1.000  O
  O13      1.0000 0.01448  0.54054  0.05716  Biso   1.000  O
  O14      1.0000 0.94602  0.55636  0.14044  Biso   1.000  O
  O15      1.0000 0.38782  0.05716  0.54054  Biso   1.000  O
  O16      1.0000 0.35718  0.14044  0.55636  Biso   1.000  O
  O17      1.0000 0.54054  0.38782  0.05716  Biso   1.000  O
  O18      1.0000 0.55636  0.35718  0.14044  Biso   1.000  O
  O19      1.0000 0.05716  0.01448  0.54054  Biso   1.000  O
  O20      1.0000 0.14044  0.94602  0.55636  Biso   1.000  O
  O21      1.0000 0.01448  0.05716  0.38782  Biso   1.000  O
  O22      1.0000 0.94602  0.14044  0.35718  Biso   1.000  O
  O23      1.0000 0.38782  0.54054  0.01448  Biso   1.000  O
  O24      1.0000 0.35718  0.55636  0.94602  Biso   1.000  O
  O25      1.0000 0.44284  0.95946  0.48552  Biso   1.000  O
  O26      1.0000 0.35956  0.94364  0.55398  Biso   1.000  O
  O27      1.0000 0.95946  0.44284  0.11218  Biso   1.000  O
  O28      1.0000 0.94364  0.35956  0.14282  Biso   1.000  O
  O29      1.0000 0.11218  0.48552  0.95946  Biso   1.000  O
  O30      1.0000 0.14282  0.55398  0.94364  Biso   1.000  O
  O31      1.0000 0.48552  0.11218  0.44284  Biso   1.000  O
  O32      1.0000 0.55398  0.14282  0.35956  Biso   1.000  O
  O33      1.0000 0.48552  0.95946  0.11218  Biso   1.000  O
  O34      1.0000 0.55398  0.94364  0.14282  Biso   1.000  O
  O35      1.0000 0.11218  0.44284  0.48552  Biso   1.000  O
  O36      1.0000 0.14282  0.35956  0.55398  Biso   1.000  O
  O37      1.0000 0.95946  0.48552  0.44284  Biso   1.000  O
  O38      1.0000 0.94364  0.55398  0.35956  Biso   1.000  O
  O39      1.0000 0.44284  0.11218  0.95946  Biso   1.000  O
  O40      1.0000 0.35956  0.14282  0.94364  Biso   1.000  O
  O41      1.0000 0.11218  0.95946  0.44284  Biso   1.000  O
  O42      1.0000 0.14282  0.94364  0.35956  Biso   1.000  O
  O43      1.0000 0.48552  0.44284  0.95946  Biso   1.000  O
  O44      1.0000 0.55398  0.35956  0.94364  Biso   1.000  O
  O45      1.0000 0.44284  0.48552  0.11218  Biso   1.000  O
  O46      1.0000 0.35956  0.55398  0.14282  Biso   1.000  O
  O47      1.0000 0.95946  0.11218  0.48552  Biso   1.000  O
  O48      1.0000 0.94364  0.14282  0.55398  Biso   1.000  O
  O49      1.0000 0.45946  0.94284  0.98552  Biso   1.000  O
  O50      1.0000 0.44364  0.85956  0.05398  Biso   1.000  O
  O51      1.0000 0.94284  0.45946  0.61218  Biso   1.000  O
  O52      1.0000 0.85956  0.44364  0.64282  Biso   1.000  O
  O53      1.0000 0.98552  0.61218  0.45946  Biso   1.000  O
  O54      1.0000 0.05398  0.64282  0.44364  Biso   1.000  O
  O55      1.0000 0.61218  0.98552  0.94284  Biso   1.000  O
  O56      1.0000 0.64282  0.05398  0.85956  Biso   1.000  O
  O57      1.0000 0.45946  0.98552  0.61218  Biso   1.000  O
  O58      1.0000 0.44364  0.05398  0.64282  Biso   1.000  O
  O59      1.0000 0.94284  0.61218  0.98552  Biso   1.000  O
  O60      1.0000 0.85956  0.64282  0.05398  Biso   1.000  O
  O61      1.0000 0.98552  0.45946  0.94284  Biso   1.000  O
  O62      1.0000 0.05398  0.44364  0.85956  Biso   1.000  O
  O63      1.0000 0.61218  0.94284  0.45946  Biso   1.000  O
  O64      1.0000 0.64282  0.85956  0.44364  Biso   1.000  O
  O65      1.0000 0.45946  0.61218  0.94284  Biso   1.000  O
  O66      1.0000 0.44364  0.64282  0.85956  Biso   1.000  O
  O67      1.0000 0.94284  0.98552  0.45946  Biso   1.000  O
  O68      1.0000 0.85956  0.05398  0.44364  Biso   1.000  O
  O69      1.0000 0.98552  0.94284  0.61218  Biso   1.000  O
  O70      1.0000 0.05398  0.85956  0.64282  Biso   1.000  O
  O71      1.0000 0.61218  0.45946  0.98552  Biso   1.000  O
  O72      1.0000 0.64282  0.44364  0.05398  Biso   1.000  O
  O73      1.0000 0.55716  0.04054  0.51448  Biso   1.000  O
  O74      1.0000 0.64044  0.05636  0.44602  Biso   1.000  O
  O75      1.0000 0.04054  0.55716  0.88782  Biso   1.000  O
  O76      1.0000 0.05636  0.64044  0.85718  Biso   1.000  O
  O77      1.0000 0.88782  0.51448  0.04054  Biso   1.000  O
  O78      1.0000 0.85718  0.44602  0.05636  Biso   1.000  O
  O79      1.0000 0.51448  0.88782  0.55716  Biso   1.000  O
  O80      1.0000 0.44602  0.85718  0.64044  Biso   1.000  O
  O81      1.0000 0.51448  0.04054  0.88782  Biso   1.000  O
  O82      1.0000 0.44602  0.05636  0.85718  Biso   1.000  O
  O83      1.0000 0.88782  0.55716  0.51448  Biso   1.000  O
  O84      1.0000 0.85718  0.64044  0.44602  Biso   1.000  O
  O85      1.0000 0.04054  0.51448  0.55716  Biso   1.000  O
  O86      1.0000 0.05636  0.44602  0.64044  Biso   1.000  O
  O87      1.0000 0.55716  0.88782  0.04054  Biso   1.000  O
  O88      1.0000 0.64044  0.85718  0.05636  Biso   1.000  O
  O89      1.0000 0.88782  0.04054  0.55716  Biso   1.000  O
  O90      1.0000 0.85718  0.05636  0.64044  Biso   1.000  O
  O91      1.0000 0.51448  0.55716  0.04054  Biso   1.000  O
  O92      1.0000 0.44602  0.64044  0.05636  Biso   1.000  O
  O93      1.0000 0.55716  0.51448  0.88782  Biso   1.000  O
  O94      1.0000 0.64044  0.44602  0.85718  Biso   1.000  O
  O95      1.0000 0.04054  0.88782  0.51448  Biso   1.000  O
  O96      1.0000 0.05636  0.85718  0.44602  Biso   1.000  O
  O97      1.0000 0.52000  0.16820  0.83180  Biso   1.000  O
  O98      1.0000 0.16820  0.52000  0.48000  Biso   1.000  O
  O99      1.0000 0.83180  0.48000  0.52000  Biso   1.000  O
  O100     1.0000 0.48000  0.83180  0.16820  Biso   1.000  O
  O101     1.0000 0.52000  0.83180  0.48000  Biso   1.000  O
  O102     1.0000 0.16820  0.48000  0.83180  Biso   1.000  O
  O103     1.0000 0.83180  0.52000  0.16820  Biso   1.000  O
  O104     1.0000 0.48000  0.16820  0.52000  Biso   1.000  O
  O105     1.0000 0.52000  0.48000  0.16820  Biso   1.000  O
  O106     1.0000 0.16820  0.83180  0.52000  Biso   1.000  O
  O107     1.0000 0.83180  0.16820  0.48000  Biso   1.000  O
  O108     1.0000 0.48000  0.52000  0.83180  Biso   1.000  O
  O109     1.0000 0.33180  0.98000  0.66820  Biso   1.000  O
  O110     1.0000 0.98000  0.33180  0.02000  Biso   1.000  O
  O111     1.0000 0.02000  0.66820  0.98000  Biso   1.000  O
  O112     1.0000 0.66820  0.02000  0.33180  Biso   1.000  O
  O113     1.0000 0.66820  0.98000  0.02000  Biso   1.000  O
  O114     1.0000 0.02000  0.33180  0.66820  Biso   1.000  O
  O115     1.0000 0.98000  0.66820  0.33180  Biso   1.000  O
  O116     1.0000 0.33180  0.02000  0.98000  Biso   1.000  O
  O117     1.0000 0.02000  0.98000  0.33180  Biso   1.000  O
  O118     1.0000 0.66820  0.33180  0.98000  Biso   1.000  O
  O119     1.0000 0.33180  0.66820  0.02000  Biso   1.000  O
  O120     1.0000 0.98000  0.02000  0.66820  Biso   1.000  O
