data_image0
_cell_length_a       7.3695
_cell_length_b       13.099
_cell_length_c       13.448
_cell_angle_alpha    80.353
_cell_angle_beta     84.93
_cell_angle_gamma    82.795

_symmetry_space_group_name_H-M    "P 1"
_symmetry_int_tables_number       1

loop_
  _symmetry_equiv_pos_as_xyz
  'x, y, z'

loop_
  _atom_site_label
  _atom_site_occupancy
  _atom_site_fract_x
  _atom_site_fract_y
  _atom_site_fract_z
  _atom_site_thermal_displace_type
  _atom_site_B_iso_or_equiv
  _atom_site_type_symbol
  Cu1      1.0000 0.79566  0.30929  0.79313  Biso   1.000  Cu
  N1       1.0000 0.98650  0.38450  0.70130  Biso   1.000  N
  C1       1.0000 0.13290  0.32700  0.66500  Biso   1.000  C
  H1       1.0000 0.13860  0.25330  0.68210  Biso   1.000  H
  C2       1.0000 0.27510  0.36740  0.60470  Biso   1.000  C
  H2       1.0000 0.37420  0.32220  0.58060  Biso   1.000  H
  C3       1.0000 0.27330  0.47510  0.57900  Biso   1.000  C
  C4       1.0000 0.12000  0.53490  0.61440  Biso   1.000  C
  H3       1.0000 0.11060  0.60870  0.59810  Biso   1.000  H
  C5       1.0000 0.98190  0.48790  0.67290  Biso   1.000  C
  H4       1.0000 0.87740  0.53100  0.69440  Biso   1.000  H
  C6       1.0000 0.42550  0.52450  0.52060  Biso   1.000  C
  H5       1.0000 0.41660  0.59840  0.51150  Biso   1.000  H
  N2       1.0000 0.68190  0.22220  0.70430  Biso   1.000  N
  C7       1.0000 0.54510  0.16560  0.74340  Biso   1.000  C
  H6       1.0000 0.49430  0.17230  0.80980  Biso   1.000  H
  C8       1.0000 0.47510  0.09860  0.69240  Biso   1.000  C
  H7       1.0000 0.37920  0.05980  0.72410  Biso   1.000  H
  C9       1.0000 0.54320  0.08710  0.59520  Biso   1.000  C
  C10      1.0000 0.68370  0.14640  0.55350  Biso   1.000  C
  H8       1.0000 0.73470  0.14210  0.48670  Biso   1.000  H
  C11      1.0000 0.74860  0.21150  0.60980  Biso   1.000  C
  H9       1.0000 0.84530  0.25060  0.58030  Biso   1.000  H
  C12      1.0000 0.46730  0.01350  0.54390  Biso   1.000  C
  H10      1.0000 0.36290  0.98280  0.57620  Biso   1.000  H
  N3       1.0000 0.58850  0.38120  0.87116  Biso   1.000  N
  C13      1.0000 0.55150  0.35010  0.97010  Biso   1.000  C
  H11      1.0000 0.64130  0.30430  0.00700  Biso   1.000  H
  C14      1.0000 0.38780  0.38180  0.02120  Biso   1.000  C
  H12      1.0000 0.36830  0.35840  0.09170  Biso   1.000  H
  C15      1.0000 0.25210  0.44780  0.96960  Biso   1.000  C
  C16      1.0000 0.29460  0.48360  0.86730  Biso   1.000  C
  H13      1.0000 0.20940  0.53160  0.82920  Biso   1.000  H
  C17      1.0000 0.46090  0.44870  0.82210  Biso   1.000  C
  H14      1.0000 0.48680  0.47380  0.75240  Biso   1.000  H
  C18      1.0000 0.07460  0.47640  0.02200  Biso   1.000  C
  H15      1.0000 0.06560  0.45980  0.09360  Biso   1.000  H
  N4       1.0000 0.95330  0.18990  0.88450  Biso   1.000  N
  C19      1.0000 0.99550  0.09510  0.85710  Biso   1.000  C
  H16      1.0000 0.91900  0.07430  0.81260  Biso   1.000  H
  C20      1.0000 0.14390  0.02640  0.89000  Biso   1.000  C
  H17      1.0000 0.16580  0.95980  0.86930  Biso   1.000  H
  C21      1.0000 0.26120  0.05470  0.95350  Biso   1.000  C
  C22      1.0000 0.21240  0.15080  0.98630  Biso   1.000  C
  H18      1.0000 0.28360  0.17240  0.03290  Biso   1.000  H
  C23      1.0000 0.06080  0.21400  0.95070  Biso   1.000  C
  H19      1.0000 0.03020  0.27870  0.97450  Biso   1.000  H
  C24      1.0000 0.42870  0.98610  0.98030  Biso   1.000  C
  H20      1.0000 0.43620  0.91620  0.96850  Biso   1.000  H
  Cu2      1.0000 0.20434  0.69071  0.20687  Biso   1.000  Cu
  N5       1.0000 0.01350  0.61550  0.29870  Biso   1.000  N
  C25      1.0000 0.86710  0.67300  0.33500  Biso   1.000  C
  H21      1.0000 0.86140  0.74670  0.31790  Biso   1.000  H
  C26      1.0000 0.72490  0.63260  0.39530  Biso   1.000  C
  H22      1.0000 0.62580  0.67780  0.41940  Biso   1.000  H
  C27      1.0000 0.72670  0.52490  0.42100  Biso   1.000  C
  C28      1.0000 0.88000  0.46510  0.38560  Biso   1.000  C
  H23      1.0000 0.88940  0.39130  0.40190  Biso   1.000  H
  C29      1.0000 0.01810  0.51210  0.32710  Biso   1.000  C
  H24      1.0000 0.12260  0.46900  0.30560  Biso   1.000  H
  C30      1.0000 0.57450  0.47550  0.47940  Biso   1.000  C
  H25      1.0000 0.58340  0.40160  0.48850  Biso   1.000  H
  N6       1.0000 0.31810  0.77780  0.29570  Biso   1.000  N
  C31      1.0000 0.45490  0.83440  0.25660  Biso   1.000  C
  H26      1.0000 0.50570  0.82770  0.19020  Biso   1.000  H
  C32      1.0000 0.52490  0.90140  0.30760  Biso   1.000  C
  H27      1.0000 0.62080  0.94020  0.27590  Biso   1.000  H
  C33      1.0000 0.45680  0.91290  0.40480  Biso   1.000  C
  C34      1.0000 0.31630  0.85360  0.44650  Biso   1.000  C
  H28      1.0000 0.26530  0.85790  0.51330  Biso   1.000  H
  C35      1.0000 0.25140  0.78850  0.39020  Biso   1.000  C
  H29      1.0000 0.15470  0.74940  0.41970  Biso   1.000  H
  C36      1.0000 0.53270  0.98650  0.45610  Biso   1.000  C
  H30      1.0000 0.63710  0.01720  0.42380  Biso   1.000  H
  N7       1.0000 0.41150  0.61880  0.12884  Biso   1.000  N
  C37      1.0000 0.44850  0.64990  0.02990  Biso   1.000  C
  H31      1.0000 0.35870  0.69570  0.99300  Biso   1.000  H
  C38      1.0000 0.61220  0.61820  0.97880  Biso   1.000  C
  H32      1.0000 0.63170  0.64160  0.90830  Biso   1.000  H
  C39      1.0000 0.74790  0.55220  0.03040  Biso   1.000  C
  C40      1.0000 0.70540  0.51640  0.13270  Biso   1.000  C
  H33      1.0000 0.79060  0.46840  0.17080  Biso   1.000  H
  C41      1.0000 0.53910  0.55130  0.17790  Biso   1.000  C
  H34      1.0000 0.51320  0.52620  0.24760  Biso   1.000  H
  C42      1.0000 0.92540  0.52360  0.97800  Biso   1.000  C
  H35      1.0000 0.93440  0.54020  0.90640  Biso   1.000  H
  N8       1.0000 0.04670  0.81010  0.11550  Biso   1.000  N
  C43      1.0000 0.00450  0.90490  0.14290  Biso   1.000  C
  H36      1.0000 0.08100  0.92570  0.18740  Biso   1.000  H
  C44      1.0000 0.85610  0.97360  0.11000  Biso   1.000  C
  H37      1.0000 0.83420  0.04020  0.13070  Biso   1.000  H
  C45      1.0000 0.73880  0.94530  0.04650  Biso   1.000  C
  C46      1.0000 0.78760  0.84920  0.01370  Biso   1.000  C
  H38      1.0000 0.71640  0.82760  0.96710  Biso   1.000  H
  C47      1.0000 0.93920  0.78600  0.04930  Biso   1.000  C
  H39      1.0000 0.96980  0.72130  0.02550  Biso   1.000  H
  C48      1.0000 0.57130  0.01390  0.01970  Biso   1.000  C
  H40      1.0000 0.56380  0.08380  0.03150  Biso   1.000  H
