data_image0
_cell_length_a       10.043
_cell_length_b       15.989
_cell_length_c       18.308
_cell_angle_alpha    90
_cell_angle_beta     90
_cell_angle_gamma    90

_symmetry_space_group_name_H-M    "P 1"
_symmetry_int_tables_number       1

loop_
  _symmetry_equiv_pos_as_xyz
  'x, y, z'

loop_
  _atom_site_label
  _atom_site_occupancy
  _atom_site_fract_x
  _atom_site_fract_y
  _atom_site_fract_z
  _atom_site_thermal_displace_type
  _atom_site_B_iso_or_equiv
  _atom_site_type_symbol
  Ga1      1.0000 0.34755  0.99491  0.40569  Biso   1.000  Ga
  Ga2      1.0000 0.31552  0.96521  0.21765  Biso   1.000  Ga
  Ga3      1.0000 0.16442  0.14742  0.17452  Biso   1.000  Ga
  P1       1.0000 0.11577  0.06658  0.31906  Biso   1.000  P
  P2       1.0000 0.33959  0.81904  0.33169  Biso   1.000  P
  P3       1.0000 0.36221  0.98475  0.57580  Biso   1.000  P
  O1       1.0000 0.14700  0.99120  0.27100  Biso   1.000  O
  O2       1.0000 0.97000  0.06350  0.34340  Biso   1.000  O
  O3       1.0000 0.20320  0.06810  0.38850  Biso   1.000  O
  O4       1.0000 0.14170  0.14900  0.27700  Biso   1.000  O
  O5       1.0000 0.30250  0.84900  0.25520  Biso   1.000  O
  O6       1.0000 0.25670  0.74210  0.35260  Biso   1.000  O
  O7       1.0000 0.48840  0.79580  0.33610  Biso   1.000  O
  O8       1.0000 0.30340  0.88340  0.39180  Biso   1.000  O
  O9       1.0000 0.28100  0.98020  0.50520  Biso   1.000  O
  O10      1.0000 0.29250  0.93320  0.63580  Biso   1.000  O
  O11      1.0000 0.38320  0.07680  0.59840  Biso   1.000  O
  O12      1.0000 0.50150  0.94620  0.56340  Biso   1.000  O
  O13      1.0000 0.32930  0.08190  0.18390  Biso   1.000  O
  O14      1.0000 0.41150  0.99720  0.30470  Biso   1.000  O
  Ga4      1.0000 0.65245  0.50509  0.90569  Biso   1.000  Ga
  Ga5      1.0000 0.68448  0.53479  0.71765  Biso   1.000  Ga
  Ga6      1.0000 0.83558  0.35258  0.67452  Biso   1.000  Ga
  P4       1.0000 0.88423  0.43342  0.81906  Biso   1.000  P
  P5       1.0000 0.66041  0.68096  0.83169  Biso   1.000  P
  P6       1.0000 0.63779  0.51525  0.07580  Biso   1.000  P
  O15      1.0000 0.85300  0.50880  0.77100  Biso   1.000  O
  O16      1.0000 0.03000  0.43650  0.84340  Biso   1.000  O
  O17      1.0000 0.79680  0.43190  0.88850  Biso   1.000  O
  O18      1.0000 0.85830  0.35100  0.77700  Biso   1.000  O
  O19      1.0000 0.69750  0.65100  0.75520  Biso   1.000  O
  O20      1.0000 0.74330  0.75790  0.85260  Biso   1.000  O
  O21      1.0000 0.51160  0.70420  0.83610  Biso   1.000  O
  O22      1.0000 0.69660  0.61660  0.89180  Biso   1.000  O
  O23      1.0000 0.71900  0.51980  0.00520  Biso   1.000  O
  O24      1.0000 0.70750  0.56680  0.13580  Biso   1.000  O
  O25      1.0000 0.61680  0.42320  0.09840  Biso   1.000  O
  O26      1.0000 0.49850  0.55380  0.06340  Biso   1.000  O
  O27      1.0000 0.67070  0.41810  0.68390  Biso   1.000  O
  O28      1.0000 0.58850  0.50280  0.80470  Biso   1.000  O
  Ga7      1.0000 0.84755  0.00509  0.09431  Biso   1.000  Ga
  Ga8      1.0000 0.81552  0.03479  0.28235  Biso   1.000  Ga
  Ga9      1.0000 0.66442  0.85258  0.32548  Biso   1.000  Ga
  P7       1.0000 0.61577  0.93342  0.18094  Biso   1.000  P
  P8       1.0000 0.83959  0.18096  0.16831  Biso   1.000  P
  P9       1.0000 0.86221  0.01525  0.92420  Biso   1.000  P
  O29      1.0000 0.64700  0.00880  0.22900  Biso   1.000  O
  O30      1.0000 0.47000  0.93650  0.15660  Biso   1.000  O
  O31      1.0000 0.70320  0.93190  0.11150  Biso   1.000  O
  O32      1.0000 0.64170  0.85100  0.22300  Biso   1.000  O
  O33      1.0000 0.80250  0.15100  0.24480  Biso   1.000  O
  O34      1.0000 0.75670  0.25790  0.14740  Biso   1.000  O
  O35      1.0000 0.98840  0.20420  0.16390  Biso   1.000  O
  O36      1.0000 0.80340  0.11660  0.10820  Biso   1.000  O
  O37      1.0000 0.78100  0.01980  0.99480  Biso   1.000  O
  O38      1.0000 0.79250  0.06680  0.86420  Biso   1.000  O
  O39      1.0000 0.88320  0.92320  0.90160  Biso   1.000  O
  O40      1.0000 0.00150  0.05380  0.93660  Biso   1.000  O
  O41      1.0000 0.82930  0.91810  0.31610  Biso   1.000  O
  O42      1.0000 0.91150  0.00280  0.19530  Biso   1.000  O
  Ga10     1.0000 0.15245  0.49491  0.59431  Biso   1.000  Ga
  Ga11     1.0000 0.18448  0.46521  0.78235  Biso   1.000  Ga
  Ga12     1.0000 0.33558  0.64742  0.82548  Biso   1.000  Ga
  P10      1.0000 0.38423  0.56658  0.68094  Biso   1.000  P
  P11      1.0000 0.16041  0.31904  0.66831  Biso   1.000  P
  P12      1.0000 0.13779  0.48475  0.42420  Biso   1.000  P
  O43      1.0000 0.35300  0.49120  0.72900  Biso   1.000  O
  O44      1.0000 0.53000  0.56350  0.65660  Biso   1.000  O
  O45      1.0000 0.29680  0.56810  0.61150  Biso   1.000  O
  O46      1.0000 0.35830  0.64900  0.72300  Biso   1.000  O
  O47      1.0000 0.19750  0.34900  0.74480  Biso   1.000  O
  O48      1.0000 0.24330  0.24210  0.64740  Biso   1.000  O
  O49      1.0000 0.01160  0.29580  0.66390  Biso   1.000  O
  O50      1.0000 0.19660  0.38340  0.60820  Biso   1.000  O
  O51      1.0000 0.21900  0.48020  0.49480  Biso   1.000  O
  O52      1.0000 0.20750  0.43320  0.36420  Biso   1.000  O
  O53      1.0000 0.11680  0.57680  0.40160  Biso   1.000  O
  O54      1.0000 0.99850  0.44620  0.43660  Biso   1.000  O
  O55      1.0000 0.17070  0.58190  0.81610  Biso   1.000  O
  O56      1.0000 0.08850  0.49720  0.69530  Biso   1.000  O
  Ga13     1.0000 0.65245  0.00509  0.59431  Biso   1.000  Ga
  Ga14     1.0000 0.68448  0.03479  0.78235  Biso   1.000  Ga
  Ga15     1.0000 0.83558  0.85258  0.82548  Biso   1.000  Ga
  P13      1.0000 0.88423  0.93342  0.68094  Biso   1.000  P
  P14      1.0000 0.66041  0.18096  0.66831  Biso   1.000  P
  P15      1.0000 0.63779  0.01525  0.42420  Biso   1.000  P
  O57      1.0000 0.85300  0.00880  0.72900  Biso   1.000  O
  O58      1.0000 0.03000  0.93650  0.65660  Biso   1.000  O
  O59      1.0000 0.79680  0.93190  0.61150  Biso   1.000  O
  O60      1.0000 0.85830  0.85100  0.72300  Biso   1.000  O
  O61      1.0000 0.69750  0.15100  0.74480  Biso   1.000  O
  O62      1.0000 0.74330  0.25790  0.64740  Biso   1.000  O
  O63      1.0000 0.51160  0.20420  0.66390  Biso   1.000  O
  O64      1.0000 0.69660  0.11660  0.60820  Biso   1.000  O
  O65      1.0000 0.71900  0.01980  0.49480  Biso   1.000  O
  O66      1.0000 0.70750  0.06680  0.36420  Biso   1.000  O
  O67      1.0000 0.61680  0.92320  0.40160  Biso   1.000  O
  O68      1.0000 0.49850  0.05380  0.43660  Biso   1.000  O
  O69      1.0000 0.67070  0.91810  0.81610  Biso   1.000  O
  O70      1.0000 0.58850  0.00280  0.69530  Biso   1.000  O
  Ga16     1.0000 0.34755  0.49491  0.09431  Biso   1.000  Ga
  Ga17     1.0000 0.31552  0.46521  0.28235  Biso   1.000  Ga
  Ga18     1.0000 0.16442  0.64742  0.32548  Biso   1.000  Ga
  P16      1.0000 0.11577  0.56658  0.18094  Biso   1.000  P
  P17      1.0000 0.33959  0.31904  0.16831  Biso   1.000  P
  P18      1.0000 0.36221  0.48475  0.92420  Biso   1.000  P
  O71      1.0000 0.14700  0.49120  0.22900  Biso   1.000  O
  O72      1.0000 0.97000  0.56350  0.15660  Biso   1.000  O
  O73      1.0000 0.20320  0.56810  0.11150  Biso   1.000  O
  O74      1.0000 0.14170  0.64900  0.22300  Biso   1.000  O
  O75      1.0000 0.30250  0.34900  0.24480  Biso   1.000  O
  O76      1.0000 0.25670  0.24210  0.14740  Biso   1.000  O
  O77      1.0000 0.48840  0.29580  0.16390  Biso   1.000  O
  O78      1.0000 0.30340  0.38340  0.10820  Biso   1.000  O
  O79      1.0000 0.28100  0.48020  0.99480  Biso   1.000  O
  O80      1.0000 0.29250  0.43320  0.86420  Biso   1.000  O
  O81      1.0000 0.38320  0.57680  0.90160  Biso   1.000  O
  O82      1.0000 0.50150  0.44620  0.93660  Biso   1.000  O
  O83      1.0000 0.32930  0.58190  0.31610  Biso   1.000  O
  O84      1.0000 0.41150  0.49720  0.19530  Biso   1.000  O
  Ga19     1.0000 0.15245  0.99491  0.90569  Biso   1.000  Ga
  Ga20     1.0000 0.18448  0.96521  0.71765  Biso   1.000  Ga
  Ga21     1.0000 0.33558  0.14742  0.67452  Biso   1.000  Ga
  P19      1.0000 0.38423  0.06658  0.81906  Biso   1.000  P
  P20      1.0000 0.16041  0.81904  0.83169  Biso   1.000  P
  P21      1.0000 0.13779  0.98475  0.07580  Biso   1.000  P
  O85      1.0000 0.35300  0.99120  0.77100  Biso   1.000  O
  O86      1.0000 0.53000  0.06350  0.84340  Biso   1.000  O
  O87      1.0000 0.29680  0.06810  0.88850  Biso   1.000  O
  O88      1.0000 0.35830  0.14900  0.77700  Biso   1.000  O
  O89      1.0000 0.19750  0.84900  0.75520  Biso   1.000  O
  O90      1.0000 0.24330  0.74210  0.85260  Biso   1.000  O
  O91      1.0000 0.01160  0.79580  0.83610  Biso   1.000  O
  O92      1.0000 0.19660  0.88340  0.89180  Biso   1.000  O
  O93      1.0000 0.21900  0.98020  0.00520  Biso   1.000  O
  O94      1.0000 0.20750  0.93320  0.13580  Biso   1.000  O
  O95      1.0000 0.11680  0.07680  0.09840  Biso   1.000  O
  O96      1.0000 0.99850  0.94620  0.06340  Biso   1.000  O
  O97      1.0000 0.17070  0.08190  0.68390  Biso   1.000  O
  O98      1.0000 0.08850  0.99720  0.80470  Biso   1.000  O
  Ga22     1.0000 0.84755  0.50509  0.40569  Biso   1.000  Ga
  Ga23     1.0000 0.81552  0.53479  0.21765  Biso   1.000  Ga
  Ga24     1.0000 0.66442  0.35258  0.17452  Biso   1.000  Ga
  P22      1.0000 0.61577  0.43342  0.31906  Biso   1.000  P
  P23      1.0000 0.83959  0.68096  0.33169  Biso   1.000  P
  P24      1.0000 0.86221  0.51525  0.57580  Biso   1.000  P
  O99      1.0000 0.64700  0.50880  0.27100  Biso   1.000  O
  O100     1.0000 0.47000  0.43650  0.34340  Biso   1.000  O
  O101     1.0000 0.70320  0.43190  0.38850  Biso   1.000  O
  O102     1.0000 0.64170  0.35100  0.27700  Biso   1.000  O
  O103     1.0000 0.80250  0.65100  0.25520  Biso   1.000  O
  O104     1.0000 0.75670  0.75790  0.35260  Biso   1.000  O
  O105     1.0000 0.98840  0.70420  0.33610  Biso   1.000  O
  O106     1.0000 0.80340  0.61660  0.39180  Biso   1.000  O
  O107     1.0000 0.78100  0.51980  0.50520  Biso   1.000  O
  O108     1.0000 0.79250  0.56680  0.63580  Biso   1.000  O
  O109     1.0000 0.88320  0.42320  0.59840  Biso   1.000  O
  O110     1.0000 0.00150  0.55380  0.56340  Biso   1.000  O
  O111     1.0000 0.82930  0.41810  0.18390  Biso   1.000  O
  O112     1.0000 0.91150  0.50280  0.30470  Biso   1.000  O
