data_QAPQAA_charged
_audit_creation_date              2014-07-02
_audit_creation_method            'Materials Studio'
_symmetry_space_group_name_H-M    'P1'
_symmetry_Int_Tables_number       1
_symmetry_cell_setting            triclinic
loop_
_symmetry_equiv_pos_as_xyz
  x,y,z
_cell_length_a                    10.7898
_cell_length_b                    10.7898
_cell_length_c                    15.9983
_cell_angle_alpha                 106.0800
_cell_angle_beta                  106.0800
_cell_angle_gamma                 97.8787
loop_
_atom_site_label
_atom_site_type_symbol
_atom_site_fract_x
_atom_site_fract_y
_atom_site_fract_z
_atom_site_U_iso_or_equiv
_atom_site_adp_type
_atom_site_occupancy
Ag1    Ag    0.25694   0.60350   0.60804   0.01267  Uiso   1.00
Ag2    Ag    0.39650   0.74306   0.89196   0.01267  Uiso   1.00
Ag3    Ag    0.74306   0.39650   0.39196   0.01267  Uiso   1.00
Ag4    Ag    0.60350   0.25694   0.10804   0.01267  Uiso   1.00
H1     H     0.27750   0.39970   0.40400   0.01267  Uiso   1.00
H2     H     0.57370   0.21470   0.47070   0.01267  Uiso   1.00
H3     H     0.58130   0.29410   0.62520   0.01267  Uiso   1.00
H4     H     0.43690   0.42290   0.66240   0.01267  Uiso   1.00
H5     H     0.43520   0.96660   0.07850   0.01267  Uiso   1.00
H6     H     0.13320   0.15360   0.05510   0.01267  Uiso   1.00
H7     H     0.03950   0.01470   0.90020   0.01267  Uiso   1.00
H8     H     0.14410   0.85430   0.84160   0.01267  Uiso   1.00
H9     H     0.18890   0.08910   0.27500   0.01267  Uiso   1.00
H10    H     0.15200   0.19800   0.25650   0.01267  Uiso   1.00
H11    H     0.60030   0.72250   0.09600   0.01267  Uiso   1.00
H12    H     0.78530   0.42630   0.02930   0.01267  Uiso   1.00
H13    H     0.70590   0.41870   0.87480   0.01267  Uiso   1.00
H14    H     0.57710   0.56310   0.83760   0.01267  Uiso   1.00
H15    H     0.03340   0.56480   0.42150   0.01267  Uiso   1.00
H16    H     0.84640   0.86680   0.44490   0.01267  Uiso   1.00
H17    H     0.98530   0.96050   0.59980   0.01267  Uiso   1.00
H18    H     0.14570   0.85590   0.65840   0.01267  Uiso   1.00
H19    H     0.91090   0.81110   0.22500   0.01267  Uiso   1.00
H20    H     0.80200   0.84800   0.24350   0.01267  Uiso   1.00
H21    H     0.72250   0.60030   0.59600   0.01267  Uiso   1.00
H22    H     0.42630   0.78530   0.52930   0.01267  Uiso   1.00
H23    H     0.41870   0.70590   0.37480   0.01267  Uiso   1.00
H24    H     0.56310   0.57710   0.33760   0.01267  Uiso   1.00
H25    H     0.56480   0.03340   0.92150   0.01267  Uiso   1.00
H26    H     0.86680   0.84640   0.94490   0.01267  Uiso   1.00
H27    H     0.96050   0.98530   0.09980   0.01267  Uiso   1.00
H28    H     0.85590   0.14570   0.15840   0.01267  Uiso   1.00
H29    H     0.81110   0.91090   0.72500   0.01267  Uiso   1.00
H30    H     0.84800   0.80200   0.74350   0.01267  Uiso   1.00
H31    H     0.39970   0.27750   0.90400   0.01267  Uiso   1.00
H32    H     0.21470   0.57370   0.97070   0.01267  Uiso   1.00
H33    H     0.29410   0.58130   0.12520   0.01267  Uiso   1.00
H34    H     0.42290   0.43690   0.16240   0.01267  Uiso   1.00
H35    H     0.96660   0.43520   0.57850   0.01267  Uiso   1.00
H36    H     0.15360   0.13320   0.55510   0.01267  Uiso   1.00
H37    H     0.01470   0.03950   0.40020   0.01267  Uiso   1.00
H38    H     0.85430   0.14410   0.34160   0.01267  Uiso   1.00
H39    H     0.08910   0.18890   0.77500   0.01267  Uiso   1.00
H40    H     0.19800   0.15200   0.75650   0.01267  Uiso   1.00
C1     C     0.34030   0.37806   0.44923   0.01267  Uiso   1.00
C2     C     0.42348   0.29940   0.42163   0.01267  Uiso   1.00
C3     C     0.51528   0.26758   0.48760   0.01267  Uiso   1.00
C4     C     0.51990   0.31452   0.57852   0.01267  Uiso   1.00
C5     C     0.43359   0.39157   0.60001   0.01267  Uiso   1.00
C6     C     0.42342   0.25474   0.32587   0.01267  Uiso   1.00
C7     C     0.36623   0.15601   0.17816   0.01267  Uiso   1.00
C8     C     0.35326   0.97608   0.04223   0.01267  Uiso   1.00
C9     C     0.29431   0.07239   0.08262   0.01267  Uiso   1.00
C10    C     0.17543   0.08831   0.02970   0.01267  Uiso   1.00
C11    C     0.12030   0.00592   0.93852   0.01267  Uiso   1.00
C12    C     0.18382   0.91114   0.90380   0.01267  Uiso   1.00
C13    C     0.62194   0.65970   0.05077   0.01267  Uiso   1.00
C14    C     0.70060   0.57652   0.07837   0.01267  Uiso   1.00
C15    C     0.73242   0.48472   0.01240   0.01267  Uiso   1.00
C16    C     0.68548   0.48010   0.92148   0.01267  Uiso   1.00
C17    C     0.60843   0.56641   0.89999   0.01267  Uiso   1.00
C18    C     0.74526   0.57658   0.17413   0.01267  Uiso   1.00
C19    C     0.84399   0.63377   0.32184   0.01267  Uiso   1.00
C20    C     0.02392   0.64674   0.45777   0.01267  Uiso   1.00
C21    C     0.92761   0.70569   0.41738   0.01267  Uiso   1.00
C22    C     0.91169   0.82457   0.47030   0.01267  Uiso   1.00
C23    C     0.99408   0.87970   0.56148   0.01267  Uiso   1.00
C24    C     0.08886   0.81618   0.59620   0.01267  Uiso   1.00
C25    C     0.65970   0.62194   0.55077   0.01267  Uiso   1.00
C26    C     0.57652   0.70060   0.57837   0.01267  Uiso   1.00
C27    C     0.48472   0.73242   0.51240   0.01267  Uiso   1.00
C28    C     0.48010   0.68548   0.42148   0.01267  Uiso   1.00
C29    C     0.56641   0.60843   0.39999   0.01267  Uiso   1.00
C30    C     0.57658   0.74526   0.67413   0.01267  Uiso   1.00
C31    C     0.63377   0.84399   0.82184   0.01267  Uiso   1.00
C32    C     0.64674   0.02392   0.95777   0.01267  Uiso   1.00
C33    C     0.70569   0.92761   0.91738   0.01267  Uiso   1.00
C34    C     0.82457   0.91169   0.97030   0.01267  Uiso   1.00
C35    C     0.87970   0.99408   0.06148   0.01267  Uiso   1.00
C36    C     0.81618   0.08886   0.09620   0.01267  Uiso   1.00
C37    C     0.37806   0.34030   0.94923   0.01267  Uiso   1.00
C38    C     0.29940   0.42348   0.92163   0.01267  Uiso   1.00
C39    C     0.26758   0.51528   0.98760   0.01267  Uiso   1.00
C40    C     0.31452   0.51990   0.07852   0.01267  Uiso   1.00
C41    C     0.39157   0.43359   0.10001   0.01267  Uiso   1.00
C42    C     0.25474   0.42342   0.82587   0.01267  Uiso   1.00
C43    C     0.15601   0.36623   0.67816   0.01267  Uiso   1.00
C44    C     0.97608   0.35326   0.54223   0.01267  Uiso   1.00
C45    C     0.07239   0.29431   0.58262   0.01267  Uiso   1.00
C46    C     0.08831   0.17543   0.52970   0.01267  Uiso   1.00
C47    C     0.00592   0.12030   0.43852   0.01267  Uiso   1.00
C48    C     0.91114   0.18382   0.40380   0.01267  Uiso   1.00
N1     N     0.34554   0.42442   0.53751   0.01267  Uiso   1.00
N2     N     0.52942   0.27482   0.30235   0.01267  Uiso   1.00
N3     N     0.49311   0.21217   0.20819   0.01267  Uiso   1.00
N4     N     0.31777   0.18197   0.24955   0.01267  Uiso   1.00
N5     N     0.18624   0.13344   0.24210   0.01267  Uiso   1.00
N6     N     0.29919   0.89617   0.95436   0.01267  Uiso   1.00
N7     N     0.57558   0.65446   0.96249   0.01267  Uiso   1.00
N8     N     0.72518   0.47058   0.19765   0.01267  Uiso   1.00
N9     N     0.78783   0.50689   0.29181   0.01267  Uiso   1.00
N10    N     0.81803   0.68223   0.25045   0.01267  Uiso   1.00
N11    N     0.86656   0.81376   0.25790   0.01267  Uiso   1.00
N12    N     0.10383   0.70081   0.54564   0.01267  Uiso   1.00
N13    N     0.65446   0.57558   0.46249   0.01267  Uiso   1.00
N14    N     0.47058   0.72518   0.69765   0.01267  Uiso   1.00
N15    N     0.50689   0.78783   0.79181   0.01267  Uiso   1.00
N16    N     0.68223   0.81803   0.75045   0.01267  Uiso   1.00
N17    N     0.81376   0.86656   0.75790   0.01267  Uiso   1.00
N18    N     0.70081   0.10383   0.04564   0.01267  Uiso   1.00
N19    N     0.42442   0.34554   0.03751   0.01267  Uiso   1.00
N20    N     0.27482   0.52942   0.80235   0.01267  Uiso   1.00
N21    N     0.21217   0.49311   0.70819   0.01267  Uiso   1.00
N22    N     0.18197   0.31777   0.74955   0.01267  Uiso   1.00
N23    N     0.13344   0.18624   0.74210   0.01267  Uiso   1.00
N24    N     0.89617   0.29919   0.45436   0.01267  Uiso   1.00
Cl1    Cl    0.55733   0.90443   0.27021   0.01267  Uiso   1.00
O1     O     0.63102   0.95532   0.21938   0.01267  Uiso   1.00
O2     O     0.42450   0.91150   0.23780   0.01267  Uiso   1.00
O3     O     0.56800   0.77280   0.26060   0.01267  Uiso   1.00
O4     O     0.61790   0.98670   0.36560   0.01267  Uiso   1.00
Cl2    Cl    0.09557   0.44267   0.22979   0.01267  Uiso   1.00
O5     O     0.04468   0.36898   0.28062   0.01267  Uiso   1.00
O6     O     0.08850   0.57550   0.26220   0.01267  Uiso   1.00
O7     O     0.22720   0.43200   0.23940   0.01267  Uiso   1.00
O8     O     0.01330   0.38210   0.13440   0.01267  Uiso   1.00
Cl3    Cl    0.44267   0.09557   0.72979   0.01267  Uiso   1.00
O9     O     0.36898   0.04468   0.78062   0.01267  Uiso   1.00
O10    O     0.57550   0.08850   0.76220   0.01267  Uiso   1.00
O11    O     0.43200   0.22720   0.73940   0.01267  Uiso   1.00
O12    O     0.38210   0.01330   0.63440   0.01267  Uiso   1.00
Cl4    Cl    0.90443   0.55733   0.77021   0.01267  Uiso   1.00
O13    O     0.95532   0.63102   0.71938   0.01267  Uiso   1.00
O14    O     0.91150   0.42450   0.73780   0.01267  Uiso   1.00
O15    O     0.77280   0.56800   0.76060   0.01267  Uiso   1.00
O16    O     0.98670   0.61790   0.86560   0.01267  Uiso   1.00
