data_image0
_cell_length_a       11.7436
_cell_length_b       11.7436
_cell_length_c       20.979
_cell_angle_alpha    97.3327
_cell_angle_beta     97.3327
_cell_angle_gamma    100.333

_symmetry_space_group_name_H-M    P 1
_symmetry_int_tables_number       1

loop_
  _symmetry_equiv_pos_as_xyz
  'x, y, z'

loop_
  _atom_site_label
  _atom_site_occupancy
  _atom_site_fract_x
  _atom_site_fract_y
  _atom_site_fract_z
  _atom_site_thermal_displace_type
  _atom_site_B_iso_or_equiv
  _atom_site_type_symbol
  Mg1      1.0000 0.04988  0.54042  0.30768  Biso   1.000  Mg
  Mg2      1.0000 0.45958  0.95012  0.19232  Biso   1.000  Mg
  Mg3      1.0000 0.95012  0.45958  0.69232  Biso   1.000  Mg
  Mg4      1.0000 0.54042  0.04988  0.80768  Biso   1.000  Mg
  Mg5      1.0000 0.24815  0.75185  0.25000  Biso   1.000  Mg
  Mg6      1.0000 0.75185  0.24815  0.75000  Biso   1.000  Mg
  H1       1.0000 0.12440  0.02300  0.36100  Biso   1.000  H
  H2       1.0000 0.07970  0.16650  0.43370  Biso   1.000  H
  H3       1.0000 0.99950  0.77610  0.46330  Biso   1.000  H
  H4       1.0000 0.50180  0.73080  0.41430  Biso   1.000  H
  H5       1.0000 0.63540  0.70600  0.49930  Biso   1.000  H
  H6       1.0000 0.30420  0.41480  0.41780  Biso   1.000  H
  H7       1.0000 0.03390  0.31070  0.11000  Biso   1.000  H
  H8       1.0000 0.98990  0.27170  0.99840  Biso   1.000  H
  H9       1.0000 0.05390  0.65690  0.10870  Biso   1.000  H
  H10      1.0000 0.92900  0.68700  0.22020  Biso   1.000  H
  H11      1.0000 0.80580  0.79960  0.17170  Biso   1.000  H
  H12      1.0000 0.69120  0.81800  0.20240  Biso   1.000  H
  H13      1.0000 0.83270  0.98970  0.22650  Biso   1.000  H
  H14      1.0000 0.80900  0.94040  0.29220  Biso   1.000  H
  H15      1.0000 0.92350  0.92190  0.26150  Biso   1.000  H
  H16      1.0000 0.67330  0.76150  0.31870  Biso   1.000  H
  H17      1.0000 0.74860  0.66780  0.34160  Biso   1.000  H
  H18      1.0000 0.56300  0.58200  0.30320  Biso   1.000  H
  H19      1.0000 0.57640  0.62880  0.23560  Biso   1.000  H
  H20      1.0000 0.65110  0.53590  0.25850  Biso   1.000  H
  H21      1.0000 0.97700  0.87560  0.13900  Biso   1.000  H
  H22      1.0000 0.83350  0.92030  0.06630  Biso   1.000  H
  H23      1.0000 0.22390  0.00050  0.03670  Biso   1.000  H
  H24      1.0000 0.26920  0.49820  0.08570  Biso   1.000  H
  H25      1.0000 0.29400  0.36460  0.00070  Biso   1.000  H
  H26      1.0000 0.58520  0.69580  0.08220  Biso   1.000  H
  H27      1.0000 0.68930  0.96610  0.39000  Biso   1.000  H
  H28      1.0000 0.72830  0.01010  0.50160  Biso   1.000  H
  H29      1.0000 0.34310  0.94610  0.39130  Biso   1.000  H
  H30      1.0000 0.31300  0.07100  0.27980  Biso   1.000  H
  H31      1.0000 0.20040  0.19420  0.32830  Biso   1.000  H
  H32      1.0000 0.18200  0.30880  0.29760  Biso   1.000  H
  H33      1.0000 0.01030  0.16730  0.27350  Biso   1.000  H
  H34      1.0000 0.05960  0.19100  0.20780  Biso   1.000  H
  H35      1.0000 0.07810  0.07650  0.23850  Biso   1.000  H
  H36      1.0000 0.23850  0.32670  0.18130  Biso   1.000  H
  H37      1.0000 0.33220  0.25140  0.15840  Biso   1.000  H
  H38      1.0000 0.41800  0.43700  0.19680  Biso   1.000  H
  H39      1.0000 0.37120  0.42360  0.26440  Biso   1.000  H
  H40      1.0000 0.46410  0.34890  0.24150  Biso   1.000  H
  H41      1.0000 0.87560  0.97700  0.63900  Biso   1.000  H
  H42      1.0000 0.92030  0.83350  0.56630  Biso   1.000  H
  H43      1.0000 0.00050  0.22390  0.53670  Biso   1.000  H
  H44      1.0000 0.49820  0.26920  0.58570  Biso   1.000  H
  H45      1.0000 0.36460  0.29400  0.50070  Biso   1.000  H
  H46      1.0000 0.69580  0.58520  0.58220  Biso   1.000  H
  H47      1.0000 0.96610  0.68930  0.89000  Biso   1.000  H
  H48      1.0000 0.01010  0.72830  0.00160  Biso   1.000  H
  H49      1.0000 0.94610  0.34310  0.89130  Biso   1.000  H
  H50      1.0000 0.07100  0.31300  0.77980  Biso   1.000  H
  H51      1.0000 0.19420  0.20040  0.82830  Biso   1.000  H
  H52      1.0000 0.30880  0.18200  0.79760  Biso   1.000  H
  H53      1.0000 0.16730  0.01030  0.77350  Biso   1.000  H
  H54      1.0000 0.19100  0.05960  0.70780  Biso   1.000  H
  H55      1.0000 0.07650  0.07810  0.73850  Biso   1.000  H
  H56      1.0000 0.32670  0.23850  0.68130  Biso   1.000  H
  H57      1.0000 0.25140  0.33220  0.65840  Biso   1.000  H
  H58      1.0000 0.43700  0.41800  0.69680  Biso   1.000  H
  H59      1.0000 0.42360  0.37120  0.76440  Biso   1.000  H
  H60      1.0000 0.34890  0.46410  0.74150  Biso   1.000  H
  H61      1.0000 0.02300  0.12440  0.86100  Biso   1.000  H
  H62      1.0000 0.16650  0.07970  0.93370  Biso   1.000  H
  H63      1.0000 0.77610  0.99950  0.96330  Biso   1.000  H
  H64      1.0000 0.73080  0.50180  0.91430  Biso   1.000  H
  H65      1.0000 0.70600  0.63540  0.99930  Biso   1.000  H
  H66      1.0000 0.41480  0.30420  0.91780  Biso   1.000  H
  H67      1.0000 0.31070  0.03390  0.61000  Biso   1.000  H
  H68      1.0000 0.27170  0.98990  0.49840  Biso   1.000  H
  H69      1.0000 0.65690  0.05390  0.60870  Biso   1.000  H
  H70      1.0000 0.68700  0.92900  0.72020  Biso   1.000  H
  H71      1.0000 0.79960  0.80580  0.67170  Biso   1.000  H
  H72      1.0000 0.81800  0.69120  0.70240  Biso   1.000  H
  H73      1.0000 0.98970  0.83270  0.72650  Biso   1.000  H
  H74      1.0000 0.94040  0.80900  0.79220  Biso   1.000  H
  H75      1.0000 0.92190  0.92350  0.76150  Biso   1.000  H
  H76      1.0000 0.76150  0.67330  0.81870  Biso   1.000  H
  H77      1.0000 0.66780  0.74860  0.84160  Biso   1.000  H
  H78      1.0000 0.58200  0.56300  0.80320  Biso   1.000  H
  H79      1.0000 0.62880  0.57640  0.73560  Biso   1.000  H
  H80      1.0000 0.53590  0.65110  0.75850  Biso   1.000  H
  C1       1.0000 0.10240  0.79520  0.35980  Biso   1.000  C
  C2       1.0000 0.06880  0.88660  0.40630  Biso   1.000  C
  C3       1.0000 0.09020  0.00200  0.39760  Biso   1.000  C
  C4       1.0000 0.06340  0.08720  0.44070  Biso   1.000  C
  C5       1.0000 0.01210  0.05890  0.49530  Biso   1.000  C
  C6       1.0000 0.01670  0.85630  0.45820  Biso   1.000  C
  C7       1.0000 0.30190  0.59050  0.35180  Biso   1.000  C
  C8       1.0000 0.39000  0.57400  0.40680  Biso   1.000  C
  C9       1.0000 0.48890  0.66050  0.43260  Biso   1.000  C
  C10      1.0000 0.56760  0.64660  0.48350  Biso   1.000  C
  C11      1.0000 0.54910  0.54470  0.51270  Biso   1.000  C
  C12      1.0000 0.37180  0.47360  0.43460  Biso   1.000  C
  C13      1.0000 0.06660  0.50920  0.19130  Biso   1.000  C
  C14      1.0000 0.04700  0.48820  0.11920  Biso   1.000  C
  C15      1.0000 0.02800  0.37340  0.08600  Biso   1.000  C
  C16      1.0000 0.00110  0.35010  0.01990  Biso   1.000  C
  C17      1.0000 0.98950  0.44090  0.98310  Biso   1.000  C
  C18      1.0000 0.03960  0.57920  0.08580  Biso   1.000  C
  C19      1.0000 0.87170  0.66010  0.24600  Biso   1.000  C
  C20      1.0000 0.77480  0.81340  0.21300  Biso   1.000  C
  C21      1.0000 0.84050  0.92590  0.25160  Biso   1.000  C
  C22      1.0000 0.70420  0.69140  0.30380  Biso   1.000  C
  C23      1.0000 0.61790  0.60370  0.27320  Biso   1.000  C
  C24      1.0000 0.88510  0.35410  0.35380  Biso   1.000  C
  C25      1.0000 0.20480  0.89760  0.14020  Biso   1.000  C
  C26      1.0000 0.11340  0.93120  0.09370  Biso   1.000  C
  C27      1.0000 0.99800  0.90980  0.10240  Biso   1.000  C
  C28      1.0000 0.91280  0.93660  0.05930  Biso   1.000  C
  C29      1.0000 0.94110  0.98790  0.00470  Biso   1.000  C
  C30      1.0000 0.14370  0.98330  0.04180  Biso   1.000  C
  C31      1.0000 0.40950  0.69810  0.14820  Biso   1.000  C
  C32      1.0000 0.42600  0.61000  0.09320  Biso   1.000  C
  C33      1.0000 0.33950  0.51110  0.06740  Biso   1.000  C
  C34      1.0000 0.35340  0.43240  0.01650  Biso   1.000  C
  C35      1.0000 0.45530  0.45090  0.98730  Biso   1.000  C
  C36      1.0000 0.52640  0.62820  0.06540  Biso   1.000  C
  C37      1.0000 0.49080  0.93340  0.30870  Biso   1.000  C
  C38      1.0000 0.51180  0.95300  0.38080  Biso   1.000  C
  C39      1.0000 0.62660  0.97200  0.41400  Biso   1.000  C
  C40      1.0000 0.64990  0.99890  0.48010  Biso   1.000  C
  C41      1.0000 0.55910  0.01050  0.51690  Biso   1.000  C
  C42      1.0000 0.42080  0.96040  0.41420  Biso   1.000  C
  C43      1.0000 0.33990  0.12830  0.25400  Biso   1.000  C
  C44      1.0000 0.18660  0.22520  0.28700  Biso   1.000  C
  C45      1.0000 0.07410  0.15950  0.24840  Biso   1.000  C
  C46      1.0000 0.30860  0.29580  0.19620  Biso   1.000  C
  C47      1.0000 0.39630  0.38210  0.22680  Biso   1.000  C
  C48      1.0000 0.64590  0.11490  0.14620  Biso   1.000  C
  C49      1.0000 0.89760  0.20480  0.64020  Biso   1.000  C
  C50      1.0000 0.93120  0.11340  0.59370  Biso   1.000  C
  C51      1.0000 0.90980  0.99800  0.60240  Biso   1.000  C
  C52      1.0000 0.93660  0.91280  0.55930  Biso   1.000  C
  C53      1.0000 0.98790  0.94110  0.50470  Biso   1.000  C
  C54      1.0000 0.98330  0.14370  0.54180  Biso   1.000  C
  C55      1.0000 0.69810  0.40950  0.64820  Biso   1.000  C
  C56      1.0000 0.61000  0.42600  0.59320  Biso   1.000  C
  C57      1.0000 0.51110  0.33950  0.56740  Biso   1.000  C
  C58      1.0000 0.43240  0.35340  0.51650  Biso   1.000  C
  C59      1.0000 0.45090  0.45530  0.48730  Biso   1.000  C
  C60      1.0000 0.62820  0.52640  0.56540  Biso   1.000  C
  C61      1.0000 0.93340  0.49080  0.80870  Biso   1.000  C
  C62      1.0000 0.95300  0.51180  0.88080  Biso   1.000  C
  C63      1.0000 0.97200  0.62660  0.91400  Biso   1.000  C
  C64      1.0000 0.99890  0.64990  0.98010  Biso   1.000  C
  C65      1.0000 0.01050  0.55910  0.01690  Biso   1.000  C
  C66      1.0000 0.96040  0.42080  0.91420  Biso   1.000  C
  C67      1.0000 0.12830  0.33990  0.75400  Biso   1.000  C
  C68      1.0000 0.22520  0.18660  0.78700  Biso   1.000  C
  C69      1.0000 0.15950  0.07410  0.74840  Biso   1.000  C
  C70      1.0000 0.29580  0.30860  0.69620  Biso   1.000  C
  C71      1.0000 0.38210  0.39630  0.72680  Biso   1.000  C
  C72      1.0000 0.11490  0.64590  0.64620  Biso   1.000  C
  C73      1.0000 0.79520  0.10240  0.85980  Biso   1.000  C
  C74      1.0000 0.88660  0.06880  0.90630  Biso   1.000  C
  C75      1.0000 0.00200  0.09020  0.89760  Biso   1.000  C
  C76      1.0000 0.08720  0.06340  0.94070  Biso   1.000  C
  C77      1.0000 0.05890  0.01210  0.99530  Biso   1.000  C
  C78      1.0000 0.85630  0.01670  0.95820  Biso   1.000  C
  C79      1.0000 0.59050  0.30190  0.85180  Biso   1.000  C
  C80      1.0000 0.57400  0.39000  0.90680  Biso   1.000  C
  C81      1.0000 0.66050  0.48890  0.93260  Biso   1.000  C
  C82      1.0000 0.64660  0.56760  0.98350  Biso   1.000  C
  C83      1.0000 0.54470  0.54910  0.01270  Biso   1.000  C
  C84      1.0000 0.47360  0.37180  0.93460  Biso   1.000  C
  C85      1.0000 0.50920  0.06660  0.69130  Biso   1.000  C
  C86      1.0000 0.48820  0.04700  0.61920  Biso   1.000  C
  C87      1.0000 0.37340  0.02800  0.58600  Biso   1.000  C
  C88      1.0000 0.35010  0.00110  0.51990  Biso   1.000  C
  C89      1.0000 0.44090  0.98950  0.48310  Biso   1.000  C
  C90      1.0000 0.57920  0.03960  0.58580  Biso   1.000  C
  C91      1.0000 0.66010  0.87170  0.74600  Biso   1.000  C
  C92      1.0000 0.81340  0.77480  0.71300  Biso   1.000  C
  C93      1.0000 0.92590  0.84050  0.75160  Biso   1.000  C
  C94      1.0000 0.69140  0.70420  0.80380  Biso   1.000  C
  C95      1.0000 0.60370  0.61790  0.77320  Biso   1.000  C
  C96      1.0000 0.35410  0.88510  0.85380  Biso   1.000  C
  N1       1.0000 0.78400  0.71520  0.24880  Biso   1.000  N
  N2       1.0000 0.28480  0.21600  0.25120  Biso   1.000  N
  N3       1.0000 0.21600  0.28480  0.75120  Biso   1.000  N
  N4       1.0000 0.71520  0.78400  0.74880  Biso   1.000  N
  O1       1.0000 0.07370  0.68990  0.36920  Biso   1.000  O
  O2       1.0000 0.15530  0.82890  0.31544  Biso   1.000  O
  O3       1.0000 0.32910  0.67470  0.32234  Biso   1.000  O
  O4       1.0000 0.20810  0.51490  0.33983  Biso   1.000  O
  O5       1.0000 0.10500  0.61140  0.22307  Biso   1.000  O
  O6       1.0000 0.03530  0.42330  0.21984  Biso   1.000  O
  O7       1.0000 0.88570  0.57590  0.27430  Biso   1.000  O
  O8       1.0000 0.95740  0.43200  0.35500  Biso   1.000  O
  O9       1.0000 0.31010  0.92630  0.13080  Biso   1.000  O
  O10      1.0000 0.17110  0.84470  0.18456  Biso   1.000  O
  O11      1.0000 0.32530  0.67090  0.17766  Biso   1.000  O
  O12      1.0000 0.48510  0.79190  0.16017  Biso   1.000  O
  O13      1.0000 0.38860  0.89500  0.27693  Biso   1.000  O
  O14      1.0000 0.57670  0.96470  0.28016  Biso   1.000  O
  O15      1.0000 0.42410  0.11430  0.22570  Biso   1.000  O
  O16      1.0000 0.56800  0.04260  0.14500  Biso   1.000  O
  O17      1.0000 0.92630  0.31010  0.63080  Biso   1.000  O
  O18      1.0000 0.84470  0.17110  0.68456  Biso   1.000  O
  O19      1.0000 0.67090  0.32530  0.67766  Biso   1.000  O
  O20      1.0000 0.79190  0.48510  0.66017  Biso   1.000  O
  O21      1.0000 0.89500  0.38860  0.77693  Biso   1.000  O
  O22      1.0000 0.96470  0.57670  0.78016  Biso   1.000  O
  O23      1.0000 0.11430  0.42410  0.72570  Biso   1.000  O
  O24      1.0000 0.04260  0.56800  0.64500  Biso   1.000  O
  O25      1.0000 0.68990  0.07370  0.86920  Biso   1.000  O
  O26      1.0000 0.82890  0.15530  0.81544  Biso   1.000  O
  O27      1.0000 0.67470  0.32910  0.82234  Biso   1.000  O
  O28      1.0000 0.51490  0.20810  0.83983  Biso   1.000  O
  O29      1.0000 0.61140  0.10500  0.72307  Biso   1.000  O
  O30      1.0000 0.42330  0.03530  0.71984  Biso   1.000  O
  O31      1.0000 0.57590  0.88570  0.77430  Biso   1.000  O
  O32      1.0000 0.43200  0.95740  0.85500  Biso   1.000  O
