data_image0
_cell_length_a       10.327
_cell_length_b       11.067
_cell_length_c       11.692
_cell_angle_alpha    112.33
_cell_angle_beta     97.31
_cell_angle_gamma    106.79

_symmetry_space_group_name_H-M    P 1
_symmetry_int_tables_number       1

loop_
  _symmetry_equiv_pos_as_xyz
  'x, y, z'

loop_
  _atom_site_label
  _atom_site_occupancy
  _atom_site_fract_x
  _atom_site_fract_y
  _atom_site_fract_z
  _atom_site_thermal_displace_type
  _atom_site_B_iso_or_equiv
  _atom_site_type_symbol
  Zn1      1.0000 0.83336  0.16711  0.86002  Biso   1.000  Zn
  Zn2      1.0000 0.16664  0.83289  0.13998  Biso   1.000  Zn
  Zn3      1.0000 0.00000  0.00000  0.00000  Biso   1.000  Zn
  H1       1.0000 0.09520  0.33090  0.33600  Biso   1.000  H
  H2       1.0000 0.22810  0.45370  0.56800  Biso   1.000  H
  H3       1.0000 0.74930  0.39890  0.22380  Biso   1.000  H
  H4       1.0000 0.67750  0.66020  0.82000  Biso   1.000  H
  H5       1.0000 0.55810  0.42730  0.68550  Biso   1.000  H
  H6       1.0000 0.57510  0.76360  0.53490  Biso   1.000  H
  H7       1.0000 0.35250  0.14600  0.91420  Biso   1.000  H
  H8       1.0000 0.58400  0.29060  0.98310  Biso   1.000  H
  H9       1.0000 0.23320  0.46910  0.94010  Biso   1.000  H
  H10      1.0000 0.80690  0.38790  0.68900  Biso   1.000  H
  H11      1.0000 0.83210  0.47630  0.83650  Biso   1.000  H
  H12      1.0000 0.93590  0.40250  0.78680  Biso   1.000  H
  H13      1.0000 0.90480  0.66910  0.66400  Biso   1.000  H
  H14      1.0000 0.77190  0.54630  0.43200  Biso   1.000  H
  H15      1.0000 0.25070  0.60110  0.77620  Biso   1.000  H
  H16      1.0000 0.32250  0.33980  0.18000  Biso   1.000  H
  H17      1.0000 0.44190  0.57270  0.31450  Biso   1.000  H
  H18      1.0000 0.42490  0.23640  0.46510  Biso   1.000  H
  H19      1.0000 0.64750  0.85400  0.08580  Biso   1.000  H
  H20      1.0000 0.41600  0.70940  0.01690  Biso   1.000  H
  H21      1.0000 0.76680  0.53090  0.05990  Biso   1.000  H
  H22      1.0000 0.19310  0.61210  0.31100  Biso   1.000  H
  H23      1.0000 0.16790  0.52370  0.16350  Biso   1.000  H
  H24      1.0000 0.06410  0.59750  0.21320  Biso   1.000  H
  C1       1.0000 0.91050  0.25530  0.12470  Biso   1.000  C
  C2       1.0000 0.92180  0.35040  0.26040  Biso   1.000  C
  C3       1.0000 0.03170  0.37530  0.35630  Biso   1.000  C
  C4       1.0000 0.05030  0.46760  0.48600  Biso   1.000  C
  C5       1.0000 0.16260  0.49570  0.58640  Biso   1.000  C
  C6       1.0000 0.82340  0.41580  0.28920  Biso   1.000  C
  C7       1.0000 0.72080  0.88790  0.77830  Biso   1.000  C
  C8       1.0000 0.63920  0.73580  0.68890  Biso   1.000  C
  C9       1.0000 0.63340  0.63270  0.73490  Biso   1.000  C
  C10      1.0000 0.56310  0.49370  0.65420  Biso   1.000  C
  C11      1.0000 0.57330  0.69550  0.56350  Biso   1.000  C
  C12      1.0000 0.49760  0.44890  0.52330  Biso   1.000  C
  C13      1.0000 0.11740  0.20050  0.88520  Biso   1.000  C
  C14      1.0000 0.26850  0.29460  0.92200  Biso   1.000  C
  C15      1.0000 0.37620  0.24070  0.93430  Biso   1.000  C
  C16      1.0000 0.51460  0.32730  0.97530  Biso   1.000  C
  C17      1.0000 0.55370  0.47270  0.00640  Biso   1.000  C
  C18      1.0000 0.30400  0.43460  0.95000  Biso   1.000  C
  C19      1.0000 0.83970  0.39480  0.77260  Biso   1.000  C
  C20      1.0000 0.08950  0.74470  0.87530  Biso   1.000  C
  C21      1.0000 0.07820  0.64960  0.73960  Biso   1.000  C
  C22      1.0000 0.96830  0.62470  0.64370  Biso   1.000  C
  C23      1.0000 0.94970  0.53240  0.51400  Biso   1.000  C
  C24      1.0000 0.83740  0.50430  0.41360  Biso   1.000  C
  C25      1.0000 0.17660  0.58420  0.71080  Biso   1.000  C
  C26      1.0000 0.27920  0.11210  0.22170  Biso   1.000  C
  C27      1.0000 0.36080  0.26420  0.31110  Biso   1.000  C
  C28      1.0000 0.36660  0.36730  0.26510  Biso   1.000  C
  C29      1.0000 0.43690  0.50630  0.34580  Biso   1.000  C
  C30      1.0000 0.42670  0.30450  0.43650  Biso   1.000  C
  C31      1.0000 0.50240  0.55110  0.47670  Biso   1.000  C
  C32      1.0000 0.88260  0.79950  0.11480  Biso   1.000  C
  C33      1.0000 0.73150  0.70540  0.07800  Biso   1.000  C
  C34      1.0000 0.62380  0.75930  0.06570  Biso   1.000  C
  C35      1.0000 0.48540  0.67270  0.02470  Biso   1.000  C
  C36      1.0000 0.44630  0.52730  0.99360  Biso   1.000  C
  C37      1.0000 0.69600  0.56540  0.05000  Biso   1.000  C
  C38      1.0000 0.16030  0.60520  0.22740  Biso   1.000  C
  O1       1.0000 0.99350  0.19155  0.10729  Biso   1.000  O
  O2       1.0000 0.81900  0.24940  0.03622  Biso   1.000  O
  O3       1.0000 0.71360  0.97787  0.73584  Biso   1.000  O
  O4       1.0000 0.79130  0.92181  0.88808  Biso   1.000  O
  O5       1.0000 0.08630  0.07771  0.87559  Biso   1.000  O
  O6       1.0000 0.02710  0.25320  0.86540  Biso   1.000  O
  O7       1.0000 0.75620  0.27200  0.78090  Biso   1.000  O
  O8       1.0000 0.00650  0.80845  0.89271  Biso   1.000  O
  O9       1.0000 0.18100  0.75060  0.96378  Biso   1.000  O
  O10      1.0000 0.28640  0.02213  0.26416  Biso   1.000  O
  O11      1.0000 0.20870  0.07819  0.11192  Biso   1.000  O
  O12      1.0000 0.91370  0.92229  0.12441  Biso   1.000  O
  O13      1.0000 0.97290  0.74680  0.13460  Biso   1.000  O
  O14      1.0000 0.24380  0.72800  0.21910  Biso   1.000  O
