data_image0
_cell_length_a       13.551
_cell_length_b       16.181
_cell_length_c       16.54
_cell_angle_alpha    109.46
_cell_angle_beta     101.21
_cell_angle_gamma    109.75

_symmetry_space_group_name_H-M    P 1
_symmetry_int_tables_number       1

loop_
  _symmetry_equiv_pos_as_xyz
  'x, y, z'

loop_
  _atom_site_label
  _atom_site_occupancy
  _atom_site_fract_x
  _atom_site_fract_y
  _atom_site_fract_z
  _atom_site_thermal_displace_type
  _atom_site_B_iso_or_equiv
  _atom_site_type_symbol
  Zn1      1.0000 0.50457  0.42315  0.82476  Biso   1.000  Zn
  Zn2      1.0000 0.82959  0.54317  0.42653  Biso   1.000  Zn
  Zn3      1.0000 0.41081  0.79647  0.48912  Biso   1.000  Zn
  Zn4      1.0000 0.49543  0.57685  0.17524  Biso   1.000  Zn
  Zn5      1.0000 0.17041  0.45683  0.57347  Biso   1.000  Zn
  Zn6      1.0000 0.58919  0.20353  0.51088  Biso   1.000  Zn
  H1       1.0000 0.87590  0.67960  0.87850  Biso   1.000  H
  H2       1.0000 0.84120  0.67100  0.73100  Biso   1.000  H
  H3       1.0000 0.65800  0.58390  0.62890  Biso   1.000  H
  H4       1.0000 0.52390  0.49190  0.66790  Biso   1.000  H
  H5       1.0000 0.02950  0.73230  0.11080  Biso   1.000  H
  H6       1.0000 0.16830  0.87490  0.13280  Biso   1.000  H
  H7       1.0000 0.11900  0.98850  0.10110  Biso   1.000  H
  H8       1.0000 0.93500  0.94900  0.03270  Biso   1.000  H
  H9       1.0000 0.00410  0.88550  0.67840  Biso   1.000  H
  H10      1.0000 0.83850  0.89800  0.68230  Biso   1.000  H
  H11      1.0000 0.66900  0.76770  0.58530  Biso   1.000  H
  H12      1.0000 0.66790  0.62910  0.48840  Biso   1.000  H
  H13      1.0000 0.12550  0.81820  0.78680  Biso   1.000  H
  H14      1.0000 0.21300  0.96070  0.92200  Biso   1.000  H
  H15      1.0000 0.31720  0.10420  0.91690  Biso   1.000  H
  H16      1.0000 0.34180  0.09970  0.78330  Biso   1.000  H
  H17      1.0000 0.04440  0.75570  0.28990  Biso   1.000  H
  H18      1.0000 0.98820  0.60060  0.17990  Biso   1.000  H
  H19      1.0000 0.09330  0.51780  0.19350  Biso   1.000  H
  H20      1.0000 0.25050  0.59050  0.32040  Biso   1.000  H
  H21      1.0000 0.09580  0.95970  0.31990  Biso   1.000  H
  H22      1.0000 0.90920  0.90830  0.24200  Biso   1.000  H
  H23      1.0000 0.77640  0.82450  0.29030  Biso   1.000  H
  H24      1.0000 0.83130  0.79170  0.40910  Biso   1.000  H
  H25      1.0000 0.12410  0.32040  0.12150  Biso   1.000  H
  H26      1.0000 0.15880  0.32900  0.26900  Biso   1.000  H
  H27      1.0000 0.34200  0.41610  0.37110  Biso   1.000  H
  H28      1.0000 0.47610  0.50810  0.33210  Biso   1.000  H
  H29      1.0000 0.97050  0.26770  0.88920  Biso   1.000  H
  H30      1.0000 0.83170  0.12510  0.86720  Biso   1.000  H
  H31      1.0000 0.88100  0.01150  0.89890  Biso   1.000  H
  H32      1.0000 0.06500  0.05100  0.96730  Biso   1.000  H
  H33      1.0000 0.99590  0.11450  0.32160  Biso   1.000  H
  H34      1.0000 0.16150  0.10200  0.31770  Biso   1.000  H
  H35      1.0000 0.33100  0.23230  0.41470  Biso   1.000  H
  H36      1.0000 0.33210  0.37090  0.51160  Biso   1.000  H
  H37      1.0000 0.87450  0.18180  0.21320  Biso   1.000  H
  H38      1.0000 0.78700  0.03930  0.07800  Biso   1.000  H
  H39      1.0000 0.68280  0.89580  0.08310  Biso   1.000  H
  H40      1.0000 0.65820  0.90030  0.21670  Biso   1.000  H
  H41      1.0000 0.95560  0.24430  0.71010  Biso   1.000  H
  H42      1.0000 0.01180  0.39940  0.82010  Biso   1.000  H
  H43      1.0000 0.90670  0.48220  0.80650  Biso   1.000  H
  H44      1.0000 0.74950  0.40950  0.67960  Biso   1.000  H
  H45      1.0000 0.90420  0.04030  0.68010  Biso   1.000  H
  H46      1.0000 0.09080  0.09170  0.75800  Biso   1.000  H
  H47      1.0000 0.22360  0.17550  0.70970  Biso   1.000  H
  H48      1.0000 0.16870  0.20830  0.59090  Biso   1.000  H
  C1       1.0000 0.54680  0.41210  0.00050  Biso   1.000  C
  C2       1.0000 0.72260  0.56190  0.18910  Biso   1.000  C
  C3       1.0000 0.64540  0.49930  0.01920  Biso   1.000  C
  C4       1.0000 0.72950  0.56760  0.10290  Biso   1.000  C
  C5       1.0000 0.81530  0.65590  0.03150  Biso   1.000  C
  C6       1.0000 0.73100  0.58850  0.94690  Biso   1.000  C
  C7       1.0000 0.71820  0.59070  0.85620  Biso   1.000  C
  C8       1.0000 0.80450  0.64230  0.83500  Biso   1.000  C
  C9       1.0000 0.78380  0.63810  0.74750  Biso   1.000  C
  C10      1.0000 0.67590  0.58400  0.68620  Biso   1.000  C
  C11      1.0000 0.59580  0.53080  0.71050  Biso   1.000  C
  C12      1.0000 0.90550  0.75060  0.04860  Biso   1.000  C
  C13      1.0000 0.01140  0.77480  0.09170  Biso   1.000  C
  C14      1.0000 0.09360  0.86080  0.10810  Biso   1.000  C
  C15      1.0000 0.06410  0.92770  0.08720  Biso   1.000  C
  C16      1.0000 0.95370  0.90360  0.04610  Biso   1.000  C
  C17      1.0000 0.02990  0.51440  0.40850  Biso   1.000  C
  C18      1.0000 0.27960  0.63730  0.53710  Biso   1.000  C
  C19      1.0000 0.07750  0.61140  0.48510  Biso   1.000  C
  C20      1.0000 0.19010  0.67020  0.54140  Biso   1.000  C
  C21      1.0000 0.14310  0.78720  0.62530  Biso   1.000  C
  C22      1.0000 0.02870  0.72860  0.57150  Biso   1.000  C
  C23      1.0000 0.92870  0.74730  0.58030  Biso   1.000  C
  C24      1.0000 0.93520  0.83340  0.64010  Biso   1.000  C
  C25      1.0000 0.83630  0.84070  0.64210  Biso   1.000  C
  C26      1.0000 0.73580  0.76370  0.58490  Biso   1.000  C
  C27      1.0000 0.73610  0.68140  0.52780  Biso   1.000  C
  C28      1.0000 0.18760  0.87910  0.70990  Biso   1.000  C
  C29      1.0000 0.17080  0.87650  0.78760  Biso   1.000  C
  C30      1.0000 0.22140  0.96110  0.86770  Biso   1.000  C
  C31      1.0000 0.28410  0.04540  0.86480  Biso   1.000  C
  C32      1.0000 0.29750  0.04200  0.78400  Biso   1.000  C
  C33      1.0000 0.50880  0.00210  0.61670  Biso   1.000  C
  C34      1.0000 0.42690  0.16200  0.62000  Biso   1.000  C
  C35      1.0000 0.39980  0.98610  0.56140  Biso   1.000  C
  C36      1.0000 0.35870  0.05470  0.56410  Biso   1.000  C
  C37      1.0000 0.18910  0.93260  0.45740  Biso   1.000  C
  C38      1.0000 0.23500  0.86510  0.44400  Biso   1.000  C
  C39      1.0000 0.18250  0.76320  0.36990  Biso   1.000  C
  C40      1.0000 0.08650  0.72160  0.29570  Biso   1.000  C
  C41      1.0000 0.05340  0.62930  0.23010  Biso   1.000  C
  C42      1.0000 0.11440  0.58000  0.23790  Biso   1.000  C
  C43      1.0000 0.20900  0.62480  0.31380  Biso   1.000  C
  C44      1.0000 0.06950  0.90540  0.41030  Biso   1.000  C
  C45      1.0000 0.04070  0.92560  0.33780  Biso   1.000  C
  C46      1.0000 0.93040  0.89510  0.29160  Biso   1.000  C
  C47      1.0000 0.85190  0.84500  0.31970  Biso   1.000  C
  C48      1.0000 0.88550  0.82560  0.39050  Biso   1.000  C
  C49      1.0000 0.45320  0.58790  0.99950  Biso   1.000  C
  C50      1.0000 0.27740  0.43810  0.81090  Biso   1.000  C
  C51      1.0000 0.35460  0.50070  0.98080  Biso   1.000  C
  C52      1.0000 0.27050  0.43240  0.89710  Biso   1.000  C
  C53      1.0000 0.18470  0.34410  0.96850  Biso   1.000  C
  C54      1.0000 0.26900  0.41150  0.05310  Biso   1.000  C
  C55      1.0000 0.28180  0.40930  0.14380  Biso   1.000  C
  C56      1.0000 0.19550  0.35770  0.16500  Biso   1.000  C
  C57      1.0000 0.21620  0.36190  0.25250  Biso   1.000  C
  C58      1.0000 0.32410  0.41600  0.31380  Biso   1.000  C
  C59      1.0000 0.40420  0.46920  0.28950  Biso   1.000  C
  C60      1.0000 0.09450  0.24940  0.95140  Biso   1.000  C
  C61      1.0000 0.98860  0.22520  0.90830  Biso   1.000  C
  C62      1.0000 0.90640  0.13920  0.89190  Biso   1.000  C
  C63      1.0000 0.93590  0.07230  0.91280  Biso   1.000  C
  C64      1.0000 0.04630  0.09640  0.95390  Biso   1.000  C
  C65      1.0000 0.97010  0.48560  0.59150  Biso   1.000  C
  C66      1.0000 0.72040  0.36270  0.46290  Biso   1.000  C
  C67      1.0000 0.92250  0.38860  0.51490  Biso   1.000  C
  C68      1.0000 0.80990  0.32980  0.45860  Biso   1.000  C
  C69      1.0000 0.85690  0.21280  0.37470  Biso   1.000  C
  C70      1.0000 0.97130  0.27140  0.42850  Biso   1.000  C
  C71      1.0000 0.07130  0.25270  0.41970  Biso   1.000  C
  C72      1.0000 0.06480  0.16660  0.35990  Biso   1.000  C
  C73      1.0000 0.16370  0.15930  0.35790  Biso   1.000  C
  C74      1.0000 0.26420  0.23630  0.41510  Biso   1.000  C
  C75      1.0000 0.26390  0.31860  0.47220  Biso   1.000  C
  C76      1.0000 0.81240  0.12090  0.29010  Biso   1.000  C
  C77      1.0000 0.82920  0.12350  0.21240  Biso   1.000  C
  C78      1.0000 0.77860  0.03890  0.13230  Biso   1.000  C
  C79      1.0000 0.71590  0.95460  0.13520  Biso   1.000  C
  C80      1.0000 0.70250  0.95800  0.21600  Biso   1.000  C
  C81      1.0000 0.49120  0.99790  0.38330  Biso   1.000  C
  C82      1.0000 0.57310  0.83800  0.38000  Biso   1.000  C
  C83      1.0000 0.60020  0.01390  0.43860  Biso   1.000  C
  C84      1.0000 0.64130  0.94530  0.43590  Biso   1.000  C
  C85      1.0000 0.81090  0.06740  0.54260  Biso   1.000  C
  C86      1.0000 0.76500  0.13490  0.55600  Biso   1.000  C
  C87      1.0000 0.81750  0.23680  0.63010  Biso   1.000  C
  C88      1.0000 0.91350  0.27840  0.70430  Biso   1.000  C
  C89      1.0000 0.94660  0.37070  0.76990  Biso   1.000  C
  C90      1.0000 0.88560  0.42000  0.76210  Biso   1.000  C
  C91      1.0000 0.79100  0.37520  0.68620  Biso   1.000  C
  C92      1.0000 0.93050  0.09460  0.58970  Biso   1.000  C
  C93      1.0000 0.95930  0.07440  0.66220  Biso   1.000  C
  C94      1.0000 0.06960  0.10490  0.70840  Biso   1.000  C
  C95      1.0000 0.14810  0.15500  0.68030  Biso   1.000  C
  C96      1.0000 0.11450  0.17440  0.60950  Biso   1.000  C
  N1       1.0000 0.47000  0.36410  0.91770  Biso   1.000  N
  N2       1.0000 0.39190  0.28830  0.92000  Biso   1.000  N
  N3       1.0000 0.42250  0.29160  0.00220  Biso   1.000  N
  N4       1.0000 0.52210  0.37110  0.05560  Biso   1.000  N
  N5       1.0000 0.64010  0.56720  0.21980  Biso   1.000  N
  N6       1.0000 0.66330  0.56210  0.29970  Biso   1.000  N
  N7       1.0000 0.75740  0.55400  0.31440  Biso   1.000  N
  N8       1.0000 0.79740  0.55340  0.24620  Biso   1.000  N
  N9       1.0000 0.64780  0.51260  0.94360  Biso   1.000  N
  N10      1.0000 0.81430  0.64330  0.10760  Biso   1.000  N
  N11      1.0000 0.61720  0.53260  0.79380  Biso   1.000  N
  N12      1.0000 0.86900  0.81310  0.02400  Biso   1.000  N
  N13      1.0000 0.91880  0.46850  0.36960  Biso   1.000  N
  N14      1.0000 0.89840  0.38370  0.30190  Biso   1.000  N
  N15      1.0000 0.99520  0.38030  0.30270  Biso   1.000  N
  N16      1.0000 0.08070  0.46340  0.37140  Biso   1.000  N
  N17      1.0000 0.37470  0.68590  0.52780  Biso   1.000  N
  N18      1.0000 0.43750  0.63730  0.53480  Biso   1.000  N
  N19      1.0000 0.38240  0.56310  0.54930  Biso   1.000  N
  N20      1.0000 0.28150  0.56130  0.55080  Biso   1.000  N
  N21      1.0000 0.00120  0.64290  0.50130  Biso   1.000  N
  N22      1.0000 0.22100  0.75820  0.60860  Biso   1.000  N
  N23      1.0000 0.83040  0.67170  0.52520  Biso   1.000  N
  N24      1.0000 0.25020  0.96000  0.70580  Biso   1.000  N
  N25      1.0000 0.53300  0.92630  0.60040  Biso   1.000  N
  N26      1.0000 0.63770  0.96130  0.65760  Biso   1.000  N
  N27      1.0000 0.67250  0.05530  0.70710  Biso   1.000  N
  N28      1.0000 0.59100  0.08400  0.68180  Biso   1.000  N
  N29      1.0000 0.41410  0.21290  0.69460  Biso   1.000  N
  N30      1.0000 0.48750  0.30500  0.71940  Biso   1.000  N
  N31      1.0000 0.54030  0.30930  0.66210  Biso   1.000  N
  N32      1.0000 0.50370  0.21840  0.59780  Biso   1.000  N
  N33      1.0000 0.33760  0.89370  0.49930  Biso   1.000  N
  N34      1.0000 0.25270  0.02720  0.51430  Biso   1.000  N
  N35      1.0000 0.24510  0.71460  0.37880  Biso   1.000  N
  N36      1.0000 0.99470  0.85320  0.43620  Biso   1.000  N
  N37      1.0000 0.53000  0.63590  0.08230  Biso   1.000  N
  N38      1.0000 0.60810  0.71170  0.08000  Biso   1.000  N
  N39      1.0000 0.57750  0.70840  0.99780  Biso   1.000  N
  N40      1.0000 0.47790  0.62890  0.94440  Biso   1.000  N
  N41      1.0000 0.35990  0.43280  0.78020  Biso   1.000  N
  N42      1.0000 0.33670  0.43790  0.70030  Biso   1.000  N
  N43      1.0000 0.24260  0.44600  0.68560  Biso   1.000  N
  N44      1.0000 0.20260  0.44660  0.75380  Biso   1.000  N
  N45      1.0000 0.35220  0.48740  0.05640  Biso   1.000  N
  N46      1.0000 0.18570  0.35670  0.89240  Biso   1.000  N
  N47      1.0000 0.38280  0.46740  0.20620  Biso   1.000  N
  N48      1.0000 0.13100  0.18690  0.97600  Biso   1.000  N
  N49      1.0000 0.08120  0.53150  0.63040  Biso   1.000  N
  N50      1.0000 0.10160  0.61630  0.69810  Biso   1.000  N
  N51      1.0000 0.00480  0.61970  0.69730  Biso   1.000  N
  N52      1.0000 0.91930  0.53660  0.62860  Biso   1.000  N
  N53      1.0000 0.62530  0.31410  0.47220  Biso   1.000  N
  N54      1.0000 0.56250  0.36270  0.46520  Biso   1.000  N
  N55      1.0000 0.61760  0.43690  0.45070  Biso   1.000  N
  N56      1.0000 0.71850  0.43870  0.44920  Biso   1.000  N
  N57      1.0000 0.99880  0.35710  0.49870  Biso   1.000  N
  N58      1.0000 0.77900  0.24180  0.39140  Biso   1.000  N
  N59      1.0000 0.16960  0.32830  0.47480  Biso   1.000  N
  N60      1.0000 0.74980  0.04000  0.29420  Biso   1.000  N
  N61      1.0000 0.46700  0.07370  0.39960  Biso   1.000  N
  N62      1.0000 0.36230  0.03870  0.34240  Biso   1.000  N
  N63      1.0000 0.32750  0.94470  0.29290  Biso   1.000  N
  N64      1.0000 0.40900  0.91600  0.31820  Biso   1.000  N
  N65      1.0000 0.58590  0.78710  0.30540  Biso   1.000  N
  N66      1.0000 0.51250  0.69500  0.28060  Biso   1.000  N
  N67      1.0000 0.45970  0.69070  0.33790  Biso   1.000  N
  N68      1.0000 0.49630  0.78160  0.40220  Biso   1.000  N
  N69      1.0000 0.66240  0.10630  0.50070  Biso   1.000  N
  N70      1.0000 0.74730  0.97280  0.48570  Biso   1.000  N
  N71      1.0000 0.75490  0.28540  0.62120  Biso   1.000  N
  N72      1.0000 0.00530  0.14680  0.56380  Biso   1.000  N
