data_image0
_cell_length_a       11.0603
_cell_length_b       16.322
_cell_length_c       19.4723
_cell_angle_alpha    65.7638
_cell_angle_beta     73.5008
_cell_angle_gamma    70.1952

_symmetry_space_group_name_H-M    P 1
_symmetry_int_tables_number       1

loop_
  _symmetry_equiv_pos_as_xyz
  'x, y, z'

loop_
  _atom_site_label
  _atom_site_occupancy
  _atom_site_fract_x
  _atom_site_fract_y
  _atom_site_fract_z
  _atom_site_thermal_displace_type
  _atom_site_B_iso_or_equiv
  _atom_site_type_symbol
  Cd1      1.0000 0.00160  0.40826  0.47476  Biso   1.000  Cd
  Cd2      1.0000 0.88462  0.09174  0.02524  Biso   1.000  Cd
  Cd3      1.0000 0.99840  0.59174  0.52524  Biso   1.000  Cd
  Cd4      1.0000 0.11538  0.90826  0.97476  Biso   1.000  Cd
  Cd5      1.0000 0.81846  0.25000  0.75000  Biso   1.000  Cd
  Cd6      1.0000 0.18154  0.75000  0.25000  Biso   1.000  Cd
  H1       1.0000 0.75040  0.73610  0.69030  Biso   1.000  H
  H2       1.0000 0.56930  0.45190  0.69610  Biso   1.000  H
  H3       1.0000 0.31820  0.57370  0.79250  Biso   1.000  H
  H4       1.0000 0.35850  0.49330  0.75970  Biso   1.000  H
  H5       1.0000 0.31780  0.43280  0.89220  Biso   1.000  H
  H6       1.0000 0.46510  0.39330  0.86310  Biso   1.000  H
  H7       1.0000 0.42430  0.47380  0.89580  Biso   1.000  H
  H8       1.0000 0.51550  0.85630  0.83730  Biso   1.000  H
  H9       1.0000 0.36290  0.88670  0.84690  Biso   1.000  H
  H10      1.0000 0.42060  0.90160  0.94560  Biso   1.000  H
  H11      1.0000 0.50660  0.79860  0.96840  Biso   1.000  H
  H12      1.0000 0.40560  0.67100  0.02420  Biso   1.000  H
  H13      1.0000 0.25310  0.69010  0.03970  Biso   1.000  H
  H14      1.0000 0.24860  0.74440  0.91040  Biso   1.000  H
  H15      1.0000 0.34690  0.64570  0.93130  Biso   1.000  H
  H16      1.0000 0.58500  0.93260  0.55740  Biso   1.000  H
  H17      1.0000 0.74180  0.84210  0.49330  Biso   1.000  H
  H18      1.0000 0.49470  0.69020  0.53260  Biso   1.000  H
  H19      1.0000 0.33910  0.77860  0.59920  Biso   1.000  H
  H20      1.0000 0.44730  0.95220  0.67360  Biso   1.000  H
  H21      1.0000 0.28430  0.05690  0.72250  Biso   1.000  H
  H22      1.0000 0.02880  0.03360  0.62480  Biso   1.000  H
  H23      1.0000 0.19200  0.92890  0.57590  Biso   1.000  H
  H24      1.0000 0.94180  0.55640  0.34540  Biso   1.000  H
  H25      1.0000 0.82940  0.57610  0.39310  Biso   1.000  H
  H26      1.0000 0.57100  0.21900  0.78740  Biso   1.000  H
  H27      1.0000 0.17680  0.76390  0.80970  Biso   1.000  H
  H28      1.0000 0.71730  0.04810  0.80390  Biso   1.000  H
  H29      1.0000 0.68440  0.92630  0.70750  Biso   1.000  H
  H30      1.0000 0.61150  0.00670  0.74030  Biso   1.000  H
  H31      1.0000 0.64280  0.06720  0.60780  Biso   1.000  H
  H32      1.0000 0.72150  0.10670  0.63690  Biso   1.000  H
  H33      1.0000 0.79390  0.02620  0.60420  Biso   1.000  H
  H34      1.0000 0.20910  0.64370  0.66270  Biso   1.000  H
  H35      1.0000 0.09650  0.61330  0.65310  Biso   1.000  H
  H36      1.0000 0.26780  0.59840  0.55440  Biso   1.000  H
  H37      1.0000 0.27360  0.70140  0.53160  Biso   1.000  H
  H38      1.0000 0.10080  0.82900  0.47580  Biso   1.000  H
  H39      1.0000 0.98290  0.80990  0.46030  Biso   1.000  H
  H40      1.0000 0.90340  0.75560  0.58960  Biso   1.000  H
  H41      1.0000 0.92390  0.85430  0.56870  Biso   1.000  H
  H42      1.0000 0.07500  0.56740  0.94260  Biso   1.000  H
  H43      1.0000 0.07720  0.65790  0.00670  Biso   1.000  H
  H44      1.0000 0.71750  0.80980  0.96740  Biso   1.000  H
  H45      1.0000 0.71690  0.72140  0.90080  Biso   1.000  H
  H46      1.0000 0.07310  0.54780  0.82640  Biso   1.000  H
  H47      1.0000 0.06370  0.44310  0.77750  Biso   1.000  H
  H48      1.0000 0.68720  0.46640  0.87520  Biso   1.000  H
  H49      1.0000 0.69680  0.57110  0.92410  Biso   1.000  H
  H50      1.0000 0.84360  0.94360  0.15460  Biso   1.000  H
  H51      1.0000 0.79860  0.92390  0.10690  Biso   1.000  H
  H52      1.0000 0.57740  0.28100  0.71260  Biso   1.000  H
  H53      1.0000 0.24960  0.26390  0.30970  Biso   1.000  H
  H54      1.0000 0.43070  0.54810  0.30390  Biso   1.000  H
  H55      1.0000 0.68180  0.42630  0.20750  Biso   1.000  H
  H56      1.0000 0.64150  0.50670  0.24030  Biso   1.000  H
  H57      1.0000 0.68220  0.56720  0.10780  Biso   1.000  H
  H58      1.0000 0.53490  0.60670  0.13690  Biso   1.000  H
  H59      1.0000 0.57570  0.52620  0.10420  Biso   1.000  H
  H60      1.0000 0.48450  0.14370  0.16270  Biso   1.000  H
  H61      1.0000 0.63710  0.11330  0.15310  Biso   1.000  H
  H62      1.0000 0.57940  0.09840  0.05440  Biso   1.000  H
  H63      1.0000 0.49340  0.20140  0.03160  Biso   1.000  H
  H64      1.0000 0.59440  0.32900  0.97580  Biso   1.000  H
  H65      1.0000 0.74690  0.30990  0.96030  Biso   1.000  H
  H66      1.0000 0.75140  0.25560  0.08960  Biso   1.000  H
  H67      1.0000 0.65310  0.35430  0.06870  Biso   1.000  H
  H68      1.0000 0.41500  0.06740  0.44260  Biso   1.000  H
  H69      1.0000 0.25820  0.15790  0.50670  Biso   1.000  H
  H70      1.0000 0.50530  0.30980  0.46740  Biso   1.000  H
  H71      1.0000 0.66090  0.22140  0.40080  Biso   1.000  H
  H72      1.0000 0.55270  0.04780  0.32640  Biso   1.000  H
  H73      1.0000 0.71570  0.94310  0.27750  Biso   1.000  H
  H74      1.0000 0.97120  0.96640  0.37520  Biso   1.000  H
  H75      1.0000 0.80800  0.07110  0.42410  Biso   1.000  H
  H76      1.0000 0.05820  0.44360  0.65460  Biso   1.000  H
  H77      1.0000 0.17060  0.42390  0.60690  Biso   1.000  H
  H78      1.0000 0.42900  0.78100  0.21260  Biso   1.000  H
  H79      1.0000 0.82320  0.23610  0.19030  Biso   1.000  H
  H80      1.0000 0.28270  0.95190  0.19610  Biso   1.000  H
  H81      1.0000 0.31560  0.07370  0.29250  Biso   1.000  H
  H82      1.0000 0.38850  0.99330  0.25970  Biso   1.000  H
  H83      1.0000 0.35720  0.93280  0.39220  Biso   1.000  H
  H84      1.0000 0.27850  0.89330  0.36310  Biso   1.000  H
  H85      1.0000 0.20610  0.97380  0.39580  Biso   1.000  H
  H86      1.0000 0.79090  0.35630  0.33730  Biso   1.000  H
  H87      1.0000 0.90350  0.38670  0.34690  Biso   1.000  H
  H88      1.0000 0.73220  0.40160  0.44560  Biso   1.000  H
  H89      1.0000 0.72640  0.29860  0.46840  Biso   1.000  H
  H90      1.0000 0.89920  0.17100  0.52420  Biso   1.000  H
  H91      1.0000 0.01710  0.19010  0.53970  Biso   1.000  H
  H92      1.0000 0.09660  0.24440  0.41040  Biso   1.000  H
  H93      1.0000 0.07610  0.14570  0.43130  Biso   1.000  H
  H94      1.0000 0.92500  0.43260  0.05740  Biso   1.000  H
  H95      1.0000 0.92280  0.34210  0.99330  Biso   1.000  H
  H96      1.0000 0.28250  0.19020  0.03260  Biso   1.000  H
  H97      1.0000 0.28310  0.27860  0.09920  Biso   1.000  H
  H98      1.0000 0.92690  0.45220  0.17360  Biso   1.000  H
  H99      1.0000 0.93630  0.55690  0.22250  Biso   1.000  H
  H100     1.0000 0.31280  0.53360  0.12480  Biso   1.000  H
  H101     1.0000 0.30320  0.42890  0.07590  Biso   1.000  H
  H102     1.0000 0.15640  0.05640  0.84540  Biso   1.000  H
  H103     1.0000 0.20140  0.07610  0.89310  Biso   1.000  H
  H104     1.0000 0.42260  0.71900  0.28740  Biso   1.000  H
  C1       1.0000 0.78956  0.45659  0.61189  Biso   1.000  C
  C2       1.0000 0.70899  0.51867  0.65673  Biso   1.000  C
  C3       1.0000 0.74758  0.59163  0.66097  Biso   1.000  C
  C4       1.0000 0.65717  0.63972  0.71084  Biso   1.000  C
  C5       1.0000 0.67824  0.71412  0.72042  Biso   1.000  C
  C6       1.0000 0.50122  0.71745  0.81411  Biso   1.000  C
  C7       1.0000 0.54238  0.61387  0.75511  Biso   1.000  C
  C8       1.0000 0.59260  0.49973  0.69933  Biso   1.000  C
  C9       1.0000 0.38571  0.51869  0.78825  Biso   1.000  C
  C10      1.0000 0.39949  0.44828  0.86694  Biso   1.000  C
  C11      1.0000 0.43623  0.83993  0.86941  Biso   1.000  C
  C12      1.0000 0.42787  0.83936  0.94832  Biso   1.000  C
  C13      1.0000 0.32674  0.71207  0.00445  Biso   1.000  C
  C14      1.0000 0.33162  0.70948  0.92744  Biso   1.000  C
  C15      1.0000 0.56623  0.88440  0.55202  Biso   1.000  C
  C16      1.0000 0.66008  0.83004  0.51362  Biso   1.000  C
  C17      1.0000 0.63479  0.75783  0.50485  Biso   1.000  C
  C18      1.0000 0.51297  0.73911  0.53735  Biso   1.000  C
  C19      1.0000 0.41921  0.79275  0.57663  Biso   1.000  C
  C20      1.0000 0.44250  0.86714  0.58296  Biso   1.000  C
  C21      1.0000 0.33787  0.93029  0.61889  Biso   1.000  C
  C22      1.0000 0.36344  0.96874  0.66338  Biso   1.000  C
  C23      1.0000 0.26579  0.03148  0.69294  Biso   1.000  C
  C24      1.0000 0.13922  0.05645  0.67803  Biso   1.000  C
  C25      1.0000 0.11301  0.01755  0.63447  Biso   1.000  C
  C26      1.0000 0.21097  0.95475  0.60499  Biso   1.000  C
  C27      1.0000 0.73543  0.70022  0.46092  Biso   1.000  C
  C28      1.0000 0.03220  0.12450  0.70950  Biso   1.000  C
  C29      1.0000 0.85804  0.04341  0.88811  Biso   1.000  C
  C30      1.0000 0.88439  0.98133  0.84327  Biso   1.000  C
  C31      1.0000 0.00018  0.90837  0.83903  Biso   1.000  C
  C32      1.0000 0.00773  0.86028  0.78916  Biso   1.000  C
  C33      1.0000 0.11278  0.78588  0.77958  Biso   1.000  C
  C34      1.0000 0.03278  0.78255  0.68589  Biso   1.000  C
  C35      1.0000 0.91136  0.88613  0.74489  Biso   1.000  C
  C36      1.0000 0.79166  0.00027  0.80067  Biso   1.000  C
  C37      1.0000 0.69265  0.98131  0.71175  Biso   1.000  C
  C38      1.0000 0.71471  0.05172  0.63306  Biso   1.000  C
  C39      1.0000 0.14557  0.66007  0.63059  Biso   1.000  C
  C40      1.0000 0.21555  0.66064  0.55168  Biso   1.000  C
  C41      1.0000 0.04326  0.78793  0.49555  Biso   1.000  C
  C42      1.0000 0.96854  0.79052  0.57256  Biso   1.000  C
  C43      1.0000 0.00265  0.61560  0.94798  Biso   1.000  C
  C44      1.0000 0.00374  0.66996  0.98638  Biso   1.000  C
  C45      1.0000 0.89747  0.74217  0.99515  Biso   1.000  C
  C46      1.0000 0.78943  0.76089  0.96265  Biso   1.000  C
  C47      1.0000 0.78859  0.70725  0.92337  Biso   1.000  C
  C48      1.0000 0.89260  0.63286  0.91704  Biso   1.000  C
  C49      1.0000 0.88705  0.56971  0.88111  Biso   1.000  C
  C50      1.0000 0.99556  0.53126  0.83662  Biso   1.000  C
  C51      1.0000 0.99021  0.46852  0.80706  Biso   1.000  C
  C52      1.0000 0.87370  0.44355  0.82197  Biso   1.000  C
  C53      1.0000 0.76503  0.48245  0.86553  Biso   1.000  C
  C54      1.0000 0.77071  0.54525  0.89501  Biso   1.000  C
  C55      1.0000 0.89657  0.79978  0.03908  Biso   1.000  C
  C56      1.0000 0.86620  0.37550  0.79050  Biso   1.000  C
  C57      1.0000 0.21044  0.54341  0.38811  Biso   1.000  C
  C58      1.0000 0.29101  0.48133  0.34327  Biso   1.000  C
  C59      1.0000 0.25242  0.40837  0.33903  Biso   1.000  C
  C60      1.0000 0.34283  0.36028  0.28916  Biso   1.000  C
  C61      1.0000 0.32176  0.28588  0.27958  Biso   1.000  C
  C62      1.0000 0.49878  0.28255  0.18589  Biso   1.000  C
  C63      1.0000 0.45762  0.38613  0.24489  Biso   1.000  C
  C64      1.0000 0.40740  0.50027  0.30067  Biso   1.000  C
  C65      1.0000 0.61429  0.48131  0.21175  Biso   1.000  C
  C66      1.0000 0.60051  0.55172  0.13306  Biso   1.000  C
  C67      1.0000 0.56377  0.16007  0.13059  Biso   1.000  C
  C68      1.0000 0.57213  0.16064  0.05168  Biso   1.000  C
  C69      1.0000 0.67326  0.28793  0.99555  Biso   1.000  C
  C70      1.0000 0.66838  0.29052  0.07256  Biso   1.000  C
  C71      1.0000 0.43377  0.11560  0.44798  Biso   1.000  C
  C72      1.0000 0.33992  0.16996  0.48638  Biso   1.000  C
  C73      1.0000 0.36521  0.24217  0.49515  Biso   1.000  C
  C74      1.0000 0.48703  0.26089  0.46265  Biso   1.000  C
  C75      1.0000 0.58079  0.20725  0.42337  Biso   1.000  C
  C76      1.0000 0.55750  0.13286  0.41704  Biso   1.000  C
  C77      1.0000 0.66213  0.06971  0.38111  Biso   1.000  C
  C78      1.0000 0.63656  0.03126  0.33662  Biso   1.000  C
  C79      1.0000 0.73421  0.96852  0.30706  Biso   1.000  C
  C80      1.0000 0.86078  0.94355  0.32197  Biso   1.000  C
  C81      1.0000 0.88699  0.98245  0.36553  Biso   1.000  C
  C82      1.0000 0.78903  0.04525  0.39501  Biso   1.000  C
  C83      1.0000 0.26457  0.29978  0.53908  Biso   1.000  C
  C84      1.0000 0.96780  0.87550  0.29050  Biso   1.000  C
  C85      1.0000 0.14196  0.95659  0.11189  Biso   1.000  C
  C86      1.0000 0.11561  0.01867  0.15673  Biso   1.000  C
  C87      1.0000 0.99982  0.09163  0.16097  Biso   1.000  C
  C88      1.0000 0.99227  0.13972  0.21084  Biso   1.000  C
  C89      1.0000 0.88722  0.21412  0.22042  Biso   1.000  C
  C90      1.0000 0.96722  0.21745  0.31411  Biso   1.000  C
  C91      1.0000 0.08864  0.11387  0.25511  Biso   1.000  C
  C92      1.0000 0.20834  0.99973  0.19933  Biso   1.000  C
  C93      1.0000 0.30735  0.01869  0.28825  Biso   1.000  C
  C94      1.0000 0.28529  0.94828  0.36694  Biso   1.000  C
  C95      1.0000 0.85443  0.33993  0.36941  Biso   1.000  C
  C96      1.0000 0.78445  0.33936  0.44832  Biso   1.000  C
  C97      1.0000 0.95674  0.21207  0.50445  Biso   1.000  C
  C98      1.0000 0.03146  0.20948  0.42744  Biso   1.000  C
  C99      1.0000 0.99735  0.38440  0.05202  Biso   1.000  C
  C100     1.0000 0.99626  0.33004  0.01362  Biso   1.000  C
  C101     1.0000 0.10253  0.25783  0.00485  Biso   1.000  C
  C102     1.0000 0.21057  0.23911  0.03735  Biso   1.000  C
  C103     1.0000 0.21141  0.29275  0.07663  Biso   1.000  C
  C104     1.0000 0.10740  0.36714  0.08296  Biso   1.000  C
  C105     1.0000 0.11295  0.43029  0.11889  Biso   1.000  C
  C106     1.0000 0.00444  0.46874  0.16338  Biso   1.000  C
  C107     1.0000 0.00979  0.53148  0.19294  Biso   1.000  C
  C108     1.0000 0.12630  0.55645  0.17803  Biso   1.000  C
  C109     1.0000 0.23497  0.51755  0.13447  Biso   1.000  C
  C110     1.0000 0.22929  0.45475  0.10499  Biso   1.000  C
  C111     1.0000 0.10343  0.20022  0.96092  Biso   1.000  C
  C112     1.0000 0.13380  0.62450  0.20950  Biso   1.000  C
  N1       1.0000 0.31421  0.80732  0.99926  Biso   1.000  N
  N2       1.0000 0.43570  0.74923  0.87179  Biso   1.000  N
  N3       1.0000 0.60284  0.75483  0.76905  Biso   1.000  N
  N4       1.0000 0.46438  0.65164  0.80646  Biso   1.000  N
  N5       1.0000 0.50962  0.54554  0.74562  Biso   1.000  N
  N6       1.0000 0.12079  0.69268  0.50074  Biso   1.000  N
  N7       1.0000 0.05672  0.75077  0.62821  Biso   1.000  N
  N8       1.0000 0.12672  0.74517  0.73095  Biso   1.000  N
  N9       1.0000 0.92248  0.84836  0.69354  Biso   1.000  N
  N10      1.0000 0.80078  0.95446  0.75438  Biso   1.000  N
  N11      1.0000 0.68579  0.19268  0.00074  Biso   1.000  N
  N12      1.0000 0.56430  0.25077  0.12821  Biso   1.000  N
  N13      1.0000 0.39716  0.24517  0.23095  Biso   1.000  N
  N14      1.0000 0.53562  0.34836  0.19354  Biso   1.000  N
  N15      1.0000 0.49038  0.45446  0.25438  Biso   1.000  N
  N16      1.0000 0.87921  0.30732  0.49926  Biso   1.000  N
  N17      1.0000 0.94328  0.24923  0.37179  Biso   1.000  N
  N18      1.0000 0.87328  0.25483  0.26905  Biso   1.000  N
  N19      1.0000 0.07752  0.15164  0.30646  Biso   1.000  N
  N20      1.0000 0.19922  0.04554  0.24562  Biso   1.000  N
  O1       1.0000 0.76811  0.37924  0.63020  Biso   1.000  O
  O2       1.0000 0.87543  0.48609  0.55551  Biso   1.000  O
  O3       1.0000 0.88776  0.53189  0.38261  Biso   1.000  O
  O4       1.0000 0.85304  0.61440  0.62824  Biso   1.000  O
  O5       1.0000 0.85311  0.70160  0.45092  Biso   1.000  O
  O6       1.0000 0.69770  0.65528  0.43664  Biso   1.000  O
  O7       1.0000 0.92906  0.16067  0.68075  Biso   1.000  O
  O8       1.0000 0.04683  0.14150  0.76316  Biso   1.000  O
  O9       1.0000 0.77755  0.12076  0.86980  Biso   1.000  O
  O10      1.0000 0.91703  0.01391  0.94449  Biso   1.000  O
  O11      1.0000 0.80226  0.96811  0.11739  Biso   1.000  O
  O12      1.0000 0.09568  0.88560  0.87176  Biso   1.000  O
  O13      1.0000 0.00563  0.79840  0.04908  Biso   1.000  O
  O14      1.0000 0.78962  0.84472  0.06336  Biso   1.000  O
  O15      1.0000 0.77048  0.33933  0.81925  Biso   1.000  O
  O16      1.0000 0.95149  0.35850  0.73684  Biso   1.000  O
  O17      1.0000 0.23189  0.62076  0.36980  Biso   1.000  O
  O18      1.0000 0.12457  0.51391  0.44449  Biso   1.000  O
  O19      1.0000 0.11224  0.46811  0.61739  Biso   1.000  O
  O20      1.0000 0.14696  0.38560  0.37176  Biso   1.000  O
  O21      1.0000 0.14689  0.29840  0.54908  Biso   1.000  O
  O22      1.0000 0.30230  0.34472  0.56336  Biso   1.000  O
  O23      1.0000 0.07094  0.83933  0.31925  Biso   1.000  O
  O24      1.0000 0.95317  0.85850  0.23684  Biso   1.000  O
  O25      1.0000 0.22245  0.87924  0.13020  Biso   1.000  O
  O26      1.0000 0.08297  0.98609  0.05551  Biso   1.000  O
  O27      1.0000 0.19774  0.03189  0.88261  Biso   1.000  O
  O28      1.0000 0.90432  0.11440  0.12824  Biso   1.000  O
  O29      1.0000 0.99437  0.20160  0.95092  Biso   1.000  O
  O30      1.0000 0.21038  0.15528  0.93664  Biso   1.000  O
  O31      1.0000 0.22952  0.66067  0.18075  Biso   1.000  O
  O32      1.0000 0.04851  0.64150  0.26316  Biso   1.000  O
  O33      1.0000 0.61250  0.25000  0.75000  Biso   1.000  O
  O34      1.0000 0.38750  0.75000  0.25000  Biso   1.000  O
