data_image0
_cell_length_a       6.4232
_cell_length_b       15.4953
_cell_length_c       23.7594
_cell_angle_alpha    90
_cell_angle_beta     90
_cell_angle_gamma    99.749

_symmetry_space_group_name_H-M    P 1
_symmetry_int_tables_number       1

loop_
  _symmetry_equiv_pos_as_xyz
  'x, y, z'

loop_
  _atom_site_label
  _atom_site_occupancy
  _atom_site_fract_x
  _atom_site_fract_y
  _atom_site_fract_z
  _atom_site_thermal_displace_type
  _atom_site_B_iso_or_equiv
  _atom_site_type_symbol
  Cd1      1.0000 0.73437  0.96983  0.46594  Biso   1.000  Cd
  Cd2      1.0000 0.26563  0.53017  0.96594  Biso   1.000  Cd
  Cd3      1.0000 0.26563  0.03017  0.53406  Biso   1.000  Cd
  Cd4      1.0000 0.73437  0.46983  0.03406  Biso   1.000  Cd
  H1       1.0000 0.15950  0.09460  0.32730  Biso   1.000  H
  H2       1.0000 0.05400  0.36750  0.26690  Biso   1.000  H
  H3       1.0000 0.59040  0.30040  0.40930  Biso   1.000  H
  H4       1.0000 0.64070  0.39730  0.27260  Biso   1.000  H
  H5       1.0000 0.66640  0.54760  0.25770  Biso   1.000  H
  H6       1.0000 0.99070  0.59370  0.40130  Biso   1.000  H
  H7       1.0000 0.98400  0.44440  0.41210  Biso   1.000  H
  H8       1.0000 0.29700  0.43680  0.22290  Biso   1.000  H
  H9       1.0000 0.17040  0.39170  0.17120  Biso   1.000  H
  H10      1.0000 0.43540  0.49960  0.13750  Biso   1.000  H
  H11      1.0000 0.60690  0.46050  0.17150  Biso   1.000  H
  H12      1.0000 0.68980  0.31850  0.14330  Biso   1.000  H
  H13      1.0000 0.57910  0.27190  0.08990  Biso   1.000  H
  H14      1.0000 0.25520  0.24890  0.13690  Biso   1.000  H
  H15      1.0000 0.42090  0.20580  0.17070  Biso   1.000  H
  H16      1.0000 0.50630  0.40760  0.06730  Biso   1.000  H
  H17      1.0000 0.84050  0.40540  0.82730  Biso   1.000  H
  H18      1.0000 0.94600  0.13250  0.76690  Biso   1.000  H
  H19      1.0000 0.40960  0.19960  0.90930  Biso   1.000  H
  H20      1.0000 0.35930  0.10270  0.77260  Biso   1.000  H
  H21      1.0000 0.33360  0.95240  0.75770  Biso   1.000  H
  H22      1.0000 0.00930  0.90630  0.90130  Biso   1.000  H
  H23      1.0000 0.01600  0.05560  0.91210  Biso   1.000  H
  H24      1.0000 0.70300  0.06320  0.72290  Biso   1.000  H
  H25      1.0000 0.82960  0.10830  0.67120  Biso   1.000  H
  H26      1.0000 0.56460  0.00040  0.63750  Biso   1.000  H
  H27      1.0000 0.39310  0.03950  0.67150  Biso   1.000  H
  H28      1.0000 0.31020  0.18150  0.64330  Biso   1.000  H
  H29      1.0000 0.42090  0.22810  0.58990  Biso   1.000  H
  H30      1.0000 0.74480  0.25110  0.63690  Biso   1.000  H
  H31      1.0000 0.57910  0.29420  0.67070  Biso   1.000  H
  H32      1.0000 0.49370  0.09240  0.56730  Biso   1.000  H
  H33      1.0000 0.84050  0.90540  0.67270  Biso   1.000  H
  H34      1.0000 0.94600  0.63250  0.73310  Biso   1.000  H
  H35      1.0000 0.40960  0.69960  0.59070  Biso   1.000  H
  H36      1.0000 0.35930  0.60270  0.72740  Biso   1.000  H
  H37      1.0000 0.33360  0.45240  0.74230  Biso   1.000  H
  H38      1.0000 0.00930  0.40630  0.59870  Biso   1.000  H
  H39      1.0000 0.01600  0.55560  0.58790  Biso   1.000  H
  H40      1.0000 0.70300  0.56320  0.77710  Biso   1.000  H
  H41      1.0000 0.82960  0.60830  0.82880  Biso   1.000  H
  H42      1.0000 0.56460  0.50040  0.86250  Biso   1.000  H
  H43      1.0000 0.39310  0.53950  0.82850  Biso   1.000  H
  H44      1.0000 0.31020  0.68150  0.85670  Biso   1.000  H
  H45      1.0000 0.42090  0.72810  0.91010  Biso   1.000  H
  H46      1.0000 0.74480  0.75110  0.86310  Biso   1.000  H
  H47      1.0000 0.57910  0.79420  0.82930  Biso   1.000  H
  H48      1.0000 0.49370  0.59240  0.93270  Biso   1.000  H
  H49      1.0000 0.15950  0.59460  0.17270  Biso   1.000  H
  H50      1.0000 0.05400  0.86750  0.23310  Biso   1.000  H
  H51      1.0000 0.59040  0.80040  0.09070  Biso   1.000  H
  H52      1.0000 0.64070  0.89730  0.22740  Biso   1.000  H
  H53      1.0000 0.66640  0.04760  0.24230  Biso   1.000  H
  H54      1.0000 0.99070  0.09370  0.09870  Biso   1.000  H
  H55      1.0000 0.98400  0.94440  0.08790  Biso   1.000  H
  H56      1.0000 0.29700  0.93680  0.27710  Biso   1.000  H
  H57      1.0000 0.17040  0.89170  0.32880  Biso   1.000  H
  H58      1.0000 0.43540  0.99960  0.36250  Biso   1.000  H
  H59      1.0000 0.60690  0.96050  0.32850  Biso   1.000  H
  H60      1.0000 0.68980  0.81850  0.35670  Biso   1.000  H
  H61      1.0000 0.57910  0.77190  0.41010  Biso   1.000  H
  H62      1.0000 0.25520  0.74890  0.36310  Biso   1.000  H
  H63      1.0000 0.42090  0.70580  0.32930  Biso   1.000  H
  H64      1.0000 0.50630  0.90760  0.43270  Biso   1.000  H
  C1       1.0000 0.53430  0.15190  0.45373  Biso   1.000  C
  C2       1.0000 0.68820  0.18607  0.40818  Biso   1.000  C
  C3       1.0000 0.84180  0.13972  0.38352  Biso   1.000  C
  C4       1.0000 0.97710  0.18740  0.34083  Biso   1.000  C
  C5       1.0000 0.13710  0.14970  0.31583  Biso   1.000  C
  C6       1.0000 0.26030  0.19340  0.27483  Biso   1.000  C
  C7       1.0000 0.22860  0.27440  0.25260  Biso   1.000  C
  C8       1.0000 0.07700  0.31280  0.27907  Biso   1.000  C
  C9       1.0000 0.95610  0.27189  0.32381  Biso   1.000  C
  C10      1.0000 0.68560  0.27050  0.39150  Biso   1.000  C
  C11      1.0000 0.81130  0.40671  0.34374  Biso   1.000  C
  C12      1.0000 0.82510  0.58140  0.33000  Biso   1.000  C
  C13      1.0000 0.71410  0.43690  0.29800  Biso   1.000  C
  C14      1.0000 0.72480  0.52610  0.28950  Biso   1.000  C
  C15      1.0000 0.92200  0.55410  0.37520  Biso   1.000  C
  C16      1.0000 0.91590  0.46500  0.38160  Biso   1.000  C
  C17      1.0000 0.30600  0.40010  0.19017  Biso   1.000  C
  C18      1.0000 0.47570  0.44550  0.15070  Biso   1.000  C
  C19      1.0000 0.55910  0.30840  0.12199  Biso   1.000  C
  C20      1.0000 0.38510  0.26110  0.15848  Biso   1.000  C
  C21      1.0000 0.46570  0.34810  0.95373  Biso   1.000  C
  C22      1.0000 0.31180  0.31393  0.90818  Biso   1.000  C
  C23      1.0000 0.15820  0.36028  0.88352  Biso   1.000  C
  C24      1.0000 0.02290  0.31260  0.84083  Biso   1.000  C
  C25      1.0000 0.86290  0.35030  0.81583  Biso   1.000  C
  C26      1.0000 0.73970  0.30660  0.77483  Biso   1.000  C
  C27      1.0000 0.77140  0.22560  0.75260  Biso   1.000  C
  C28      1.0000 0.92300  0.18720  0.77907  Biso   1.000  C
  C29      1.0000 0.04390  0.22811  0.82381  Biso   1.000  C
  C30      1.0000 0.31440  0.22950  0.89150  Biso   1.000  C
  C31      1.0000 0.18870  0.09329  0.84374  Biso   1.000  C
  C32      1.0000 0.17490  0.91860  0.83000  Biso   1.000  C
  C33      1.0000 0.28590  0.06310  0.79800  Biso   1.000  C
  C34      1.0000 0.27520  0.97390  0.78950  Biso   1.000  C
  C35      1.0000 0.07800  0.94590  0.87520  Biso   1.000  C
  C36      1.0000 0.08410  0.03500  0.88160  Biso   1.000  C
  C37      1.0000 0.69400  0.09990  0.69017  Biso   1.000  C
  C38      1.0000 0.52430  0.05450  0.65070  Biso   1.000  C
  C39      1.0000 0.44090  0.19160  0.62199  Biso   1.000  C
  C40      1.0000 0.61490  0.23890  0.65848  Biso   1.000  C
  C41      1.0000 0.46570  0.84810  0.54627  Biso   1.000  C
  C42      1.0000 0.31180  0.81393  0.59182  Biso   1.000  C
  C43      1.0000 0.15820  0.86028  0.61648  Biso   1.000  C
  C44      1.0000 0.02290  0.81260  0.65917  Biso   1.000  C
  C45      1.0000 0.86290  0.85030  0.68417  Biso   1.000  C
  C46      1.0000 0.73970  0.80660  0.72517  Biso   1.000  C
  C47      1.0000 0.77140  0.72560  0.74740  Biso   1.000  C
  C48      1.0000 0.92300  0.68720  0.72093  Biso   1.000  C
  C49      1.0000 0.04390  0.72811  0.67619  Biso   1.000  C
  C50      1.0000 0.31440  0.72950  0.60850  Biso   1.000  C
  C51      1.0000 0.18870  0.59329  0.65626  Biso   1.000  C
  C52      1.0000 0.17490  0.41860  0.67000  Biso   1.000  C
  C53      1.0000 0.28590  0.56310  0.70200  Biso   1.000  C
  C54      1.0000 0.27520  0.47390  0.71050  Biso   1.000  C
  C55      1.0000 0.07800  0.44590  0.62480  Biso   1.000  C
  C56      1.0000 0.08410  0.53500  0.61840  Biso   1.000  C
  C57      1.0000 0.69400  0.59990  0.80983  Biso   1.000  C
  C58      1.0000 0.52430  0.55450  0.84930  Biso   1.000  C
  C59      1.0000 0.44090  0.69160  0.87801  Biso   1.000  C
  C60      1.0000 0.61490  0.73890  0.84152  Biso   1.000  C
  C61      1.0000 0.53430  0.65190  0.04627  Biso   1.000  C
  C62      1.0000 0.68820  0.68607  0.09182  Biso   1.000  C
  C63      1.0000 0.84180  0.63972  0.11648  Biso   1.000  C
  C64      1.0000 0.97710  0.68740  0.15917  Biso   1.000  C
  C65      1.0000 0.13710  0.64970  0.18417  Biso   1.000  C
  C66      1.0000 0.26030  0.69340  0.22517  Biso   1.000  C
  C67      1.0000 0.22860  0.77440  0.24740  Biso   1.000  C
  C68      1.0000 0.07700  0.81280  0.22093  Biso   1.000  C
  C69      1.0000 0.95610  0.77189  0.17619  Biso   1.000  C
  C70      1.0000 0.68560  0.77050  0.10850  Biso   1.000  C
  C71      1.0000 0.81130  0.90671  0.15626  Biso   1.000  C
  C72      1.0000 0.82510  0.08140  0.17000  Biso   1.000  C
  C73      1.0000 0.71410  0.93690  0.20200  Biso   1.000  C
  C74      1.0000 0.72480  0.02610  0.21050  Biso   1.000  C
  C75      1.0000 0.92200  0.05410  0.12480  Biso   1.000  C
  C76      1.0000 0.91590  0.96500  0.11840  Biso   1.000  C
  C77      1.0000 0.30600  0.90010  0.30983  Biso   1.000  C
  C78      1.0000 0.47570  0.94550  0.34930  Biso   1.000  C
  C79      1.0000 0.55910  0.80840  0.37801  Biso   1.000  C
  C80      1.0000 0.38510  0.76110  0.34152  Biso   1.000  C
  N1       1.0000 0.51190  0.39215  0.10195  Biso   1.000  N
  N2       1.0000 0.35280  0.31489  0.20839  Biso   1.000  N
  N3       1.0000 0.80990  0.31345  0.35134  Biso   1.000  N
  N4       1.0000 0.48810  0.10785  0.60195  Biso   1.000  N
  N5       1.0000 0.64720  0.18511  0.70839  Biso   1.000  N
  N6       1.0000 0.19010  0.18655  0.85134  Biso   1.000  N
  N7       1.0000 0.48810  0.60785  0.89805  Biso   1.000  N
  N8       1.0000 0.64720  0.68511  0.79161  Biso   1.000  N
  N9       1.0000 0.19010  0.68655  0.64866  Biso   1.000  N
  N10      1.0000 0.51190  0.89215  0.39805  Biso   1.000  N
  N11      1.0000 0.35280  0.81489  0.29161  Biso   1.000  N
  N12      1.0000 0.80990  0.81345  0.14866  Biso   1.000  N
  Cl1      1.0000 0.05606  0.89828  0.46595  Biso   1.000  Cl
  Cl2      1.0000 0.94394  0.60172  0.96595  Biso   1.000  Cl
  Cl3      1.0000 0.94394  0.10172  0.53405  Biso   1.000  Cl
  Cl4      1.0000 0.05606  0.39828  0.03405  Biso   1.000  Cl
  O1       1.0000 0.48850  0.06842  0.46063  Biso   1.000  O
  O2       1.0000 0.45880  0.20436  0.48348  Biso   1.000  O
  O3       1.0000 0.86710  0.06357  0.39554  Biso   1.000  O
  O4       1.0000 0.51150  0.43158  0.96063  Biso   1.000  O
  O5       1.0000 0.54120  0.29564  0.98348  Biso   1.000  O
  O6       1.0000 0.13290  0.43643  0.89554  Biso   1.000  O
  O7       1.0000 0.51150  0.93158  0.53937  Biso   1.000  O
  O8       1.0000 0.54120  0.79564  0.51652  Biso   1.000  O
  O9       1.0000 0.13290  0.93643  0.60446  Biso   1.000  O
  O10      1.0000 0.48850  0.56842  0.03937  Biso   1.000  O
  O11      1.0000 0.45880  0.70436  0.01652  Biso   1.000  O
  O12      1.0000 0.86710  0.56357  0.10446  Biso   1.000  O
  F1       1.0000 0.42600  0.15673  0.25626  Biso   1.000  F
  F2       1.0000 0.83300  0.66844  0.32259  Biso   1.000  F
  F3       1.0000 0.57400  0.34327  0.75626  Biso   1.000  F
  F4       1.0000 0.16700  0.83156  0.82259  Biso   1.000  F
  F5       1.0000 0.57400  0.84327  0.74374  Biso   1.000  F
  F6       1.0000 0.16700  0.33156  0.67741  Biso   1.000  F
  F7       1.0000 0.42600  0.65673  0.24374  Biso   1.000  F
  F8       1.0000 0.83300  0.16844  0.17741  Biso   1.000  F
