data_image0
_cell_length_a       12.4648
_cell_length_b       20.883
_cell_length_c       20.883
_cell_angle_alpha    120
_cell_angle_beta     90
_cell_angle_gamma    90

_symmetry_space_group_name_H-M    P 1
_symmetry_int_tables_number       1

loop_
  _symmetry_equiv_pos_as_xyz
  'x, y, z'

loop_
  _atom_site_label
  _atom_site_occupancy
  _atom_site_fract_x
  _atom_site_fract_y
  _atom_site_fract_z
  _atom_site_thermal_displace_type
  _atom_site_B_iso_or_equiv
  _atom_site_type_symbol
  K1       1.0000 0.72195  0.63139  0.04045  Biso   1.000  K
  K2       1.0000 0.61107  0.51982  0.62552  Biso   1.000  K
  K3       1.0000 0.37130  0.19450  0.35000  Biso   1.000  K
  K4       1.0000 0.05528  0.40906  0.36861  Biso   1.000  K
  K5       1.0000 0.94440  0.10570  0.48018  Biso   1.000  K
  K6       1.0000 0.70463  0.15550  0.80550  Biso   1.000  K
  K7       1.0000 0.38862  0.95955  0.59094  Biso   1.000  K
  K8       1.0000 0.27774  0.37448  0.89430  Biso   1.000  K
  K9       1.0000 0.03797  0.65000  0.84450  Biso   1.000  K
  K10      1.0000 0.27805  0.59094  0.95955  Biso   1.000  K
  K11      1.0000 0.38893  0.89430  0.37448  Biso   1.000  K
  K12      1.0000 0.62870  0.84450  0.65000  Biso   1.000  K
  K13      1.0000 0.94472  0.04045  0.63139  Biso   1.000  K
  K14      1.0000 0.05560  0.62552  0.51982  Biso   1.000  K
  K15      1.0000 0.29537  0.35000  0.19450  Biso   1.000  K
  K16      1.0000 0.61138  0.36861  0.40906  Biso   1.000  K
  K17      1.0000 0.72226  0.48018  0.10570  Biso   1.000  K
  K18      1.0000 0.96203  0.80550  0.15550  Biso   1.000  K
  K19      1.0000 0.00000  0.45810  0.00000  Biso   1.000  K
  K20      1.0000 0.33333  0.54190  0.54190  Biso   1.000  K
  K21      1.0000 0.66667  0.00000  0.45810  Biso   1.000  K
  Fe1      1.0000 0.53626  0.49258  0.91485  Biso   1.000  Fe
  Fe2      1.0000 0.86959  0.42227  0.50742  Biso   1.000  Fe
  Fe3      1.0000 0.20293  0.08515  0.57773  Biso   1.000  Fe
  Fe4      1.0000 0.46374  0.57773  0.08515  Biso   1.000  Fe
  Fe5      1.0000 0.13041  0.91485  0.49258  Biso   1.000  Fe
  Fe6      1.0000 0.79707  0.50742  0.42227  Biso   1.000  Fe
  H1       1.0000 0.69300  0.41000  0.73210  Biso   1.000  H
  H2       1.0000 0.76230  0.44510  0.80450  Biso   1.000  H
  H3       1.0000 0.74670  0.34000  0.81040  Biso   1.000  H
  H4       1.0000 0.64410  0.32620  0.84550  Biso   1.000  H
  H5       1.0000 0.49820  0.33070  0.78050  Biso   1.000  H
  H6       1.0000 0.58130  0.31490  0.71790  Biso   1.000  H
  H7       1.0000 0.29020  0.52540  0.78990  Biso   1.000  H
  H8       1.0000 0.28170  0.48760  0.66750  Biso   1.000  H
  H9       1.0000 0.51210  0.33690  0.62470  Biso   1.000  H
  H10      1.0000 0.02633  0.32210  0.59000  Biso   1.000  H
  H11      1.0000 0.09563  0.35940  0.55490  Biso   1.000  H
  H12      1.0000 0.08003  0.47040  0.66000  Biso   1.000  H
  H13      1.0000 0.97743  0.51930  0.67380  Biso   1.000  H
  H14      1.0000 0.83153  0.44980  0.66930  Biso   1.000  H
  H15      1.0000 0.91463  0.40300  0.68510  Biso   1.000  H
  H16      1.0000 0.62353  0.26450  0.47460  Biso   1.000  H
  H17      1.0000 0.61503  0.17990  0.51240  Biso   1.000  H
  H18      1.0000 0.84543  0.28780  0.66310  Biso   1.000  H
  H19      1.0000 0.35967  0.26790  0.67790  Biso   1.000  H
  H20      1.0000 0.42897  0.19550  0.64060  Biso   1.000  H
  H21      1.0000 0.41337  0.18960  0.52960  Biso   1.000  H
  H22      1.0000 0.31077  0.15450  0.48070  Biso   1.000  H
  H23      1.0000 0.16487  0.21950  0.55020  Biso   1.000  H
  H24      1.0000 0.24797  0.28210  0.59700  Biso   1.000  H
  H25      1.0000 0.95687  0.21010  0.73550  Biso   1.000  H
  H26      1.0000 0.94837  0.33250  0.82010  Biso   1.000  H
  H27      1.0000 0.17877  0.37530  0.71220  Biso   1.000  H
  H28      1.0000 0.30700  0.67790  0.26790  Biso   1.000  H
  H29      1.0000 0.23770  0.64060  0.19550  Biso   1.000  H
  H30      1.0000 0.25330  0.52960  0.18960  Biso   1.000  H
  H31      1.0000 0.35590  0.48070  0.15450  Biso   1.000  H
  H32      1.0000 0.50180  0.55020  0.21950  Biso   1.000  H
  H33      1.0000 0.41870  0.59700  0.28210  Biso   1.000  H
  H34      1.0000 0.70980  0.73550  0.21010  Biso   1.000  H
  H35      1.0000 0.71830  0.82010  0.33250  Biso   1.000  H
  H36      1.0000 0.48790  0.71220  0.37530  Biso   1.000  H
  H37      1.0000 0.97367  0.73210  0.41000  Biso   1.000  H
  H38      1.0000 0.90437  0.80450  0.44510  Biso   1.000  H
  H39      1.0000 0.91997  0.81040  0.34000  Biso   1.000  H
  H40      1.0000 0.02257  0.84550  0.32620  Biso   1.000  H
  H41      1.0000 0.16847  0.78050  0.33070  Biso   1.000  H
  H42      1.0000 0.08537  0.71790  0.31490  Biso   1.000  H
  H43      1.0000 0.37647  0.78990  0.52540  Biso   1.000  H
  H44      1.0000 0.38497  0.66750  0.48760  Biso   1.000  H
  H45      1.0000 0.15457  0.62470  0.33690  Biso   1.000  H
  H46      1.0000 0.64033  0.59000  0.32210  Biso   1.000  H
  H47      1.0000 0.57103  0.55490  0.35940  Biso   1.000  H
  H48      1.0000 0.58663  0.66000  0.47040  Biso   1.000  H
  H49      1.0000 0.68923  0.67380  0.51930  Biso   1.000  H
  H50      1.0000 0.83513  0.66930  0.44980  Biso   1.000  H
  H51      1.0000 0.75203  0.68510  0.40300  Biso   1.000  H
  H52      1.0000 0.04313  0.47460  0.26450  Biso   1.000  H
  H53      1.0000 0.05163  0.51240  0.17990  Biso   1.000  H
  H54      1.0000 0.82123  0.66310  0.28780  Biso   1.000  H
  C1       1.0000 0.69000  0.44070  0.78550  Biso   1.000  C
  C2       1.0000 0.64920  0.51670  0.80540  Biso   1.000  C
  C3       1.0000 0.68700  0.36400  0.84370  Biso   1.000  C
  C4       1.0000 0.72920  0.41820  0.92090  Biso   1.000  C
  C5       1.0000 0.54250  0.35370  0.75940  Biso   1.000  C
  C6       1.0000 0.47080  0.39382  0.73202  Biso   1.000  C
  C7       1.0000 0.40440  0.45220  0.78440  Biso   1.000  C
  C8       1.0000 0.33380  0.48670  0.75690  Biso   1.000  C
  C9       1.0000 0.32900  0.46450  0.68400  Biso   1.000  C
  C10      1.0000 0.39420  0.40720  0.63310  Biso   1.000  C
  C11      1.0000 0.46640  0.37360  0.65824  Biso   1.000  C
  C12      1.0000 0.18300  0.67700  0.73740  Biso   1.000  C
  C13      1.0000 0.02333  0.34480  0.55930  Biso   1.000  C
  C14      1.0000 0.98253  0.28870  0.48330  Biso   1.000  C
  C15      1.0000 0.02033  0.47970  0.63600  Biso   1.000  C
  C16      1.0000 0.06253  0.50270  0.58180  Biso   1.000  C
  C17      1.0000 0.87583  0.40570  0.64630  Biso   1.000  C
  C18      1.0000 0.80413  0.33820  0.60618  Biso   1.000  C
  C19      1.0000 0.73773  0.33220  0.54780  Biso   1.000  C
  C20      1.0000 0.66713  0.27020  0.51330  Biso   1.000  C
  C21      1.0000 0.66233  0.21950  0.53550  Biso   1.000  C
  C22      1.0000 0.72753  0.22590  0.59280  Biso   1.000  C
  C23      1.0000 0.79973  0.28464  0.62640  Biso   1.000  C
  C24      1.0000 0.51633  0.06040  0.32300  Biso   1.000  C
  C25      1.0000 0.35667  0.21450  0.65520  Biso   1.000  C
  C26      1.0000 0.31587  0.19460  0.71130  Biso   1.000  C
  C27      1.0000 0.35367  0.15630  0.52030  Biso   1.000  C
  C28      1.0000 0.39587  0.07910  0.49730  Biso   1.000  C
  C29      1.0000 0.20917  0.24060  0.59430  Biso   1.000  C
  C30      1.0000 0.13747  0.26798  0.66180  Biso   1.000  C
  C31      1.0000 0.07107  0.21560  0.66780  Biso   1.000  C
  C32      1.0000 0.00047  0.24310  0.72980  Biso   1.000  C
  C33      1.0000 0.99567  0.31600  0.78050  Biso   1.000  C
  C34      1.0000 0.06087  0.36690  0.77410  Biso   1.000  C
  C35      1.0000 0.13307  0.34176  0.71536  Biso   1.000  C
  C36      1.0000 0.84967  0.26260  0.93960  Biso   1.000  C
  C37      1.0000 0.31000  0.65520  0.21450  Biso   1.000  C
  C38      1.0000 0.35080  0.71130  0.19460  Biso   1.000  C
  C39      1.0000 0.31300  0.52030  0.15630  Biso   1.000  C
  C40      1.0000 0.27080  0.49730  0.07910  Biso   1.000  C
  C41      1.0000 0.45750  0.59430  0.24060  Biso   1.000  C
  C42      1.0000 0.52920  0.66180  0.26798  Biso   1.000  C
  C43      1.0000 0.59560  0.66780  0.21560  Biso   1.000  C
  C44      1.0000 0.66620  0.72980  0.24310  Biso   1.000  C
  C45      1.0000 0.67100  0.78050  0.31600  Biso   1.000  C
  C46      1.0000 0.60580  0.77410  0.36690  Biso   1.000  C
  C47      1.0000 0.53360  0.71536  0.34176  Biso   1.000  C
  C48      1.0000 0.81700  0.93960  0.26260  Biso   1.000  C
  C49      1.0000 0.97667  0.78550  0.44070  Biso   1.000  C
  C50      1.0000 0.01747  0.80540  0.51670  Biso   1.000  C
  C51      1.0000 0.97967  0.84370  0.36400  Biso   1.000  C
  C52      1.0000 0.93747  0.92090  0.41820  Biso   1.000  C
  C53      1.0000 0.12417  0.75940  0.35370  Biso   1.000  C
  C54      1.0000 0.19587  0.73202  0.39382  Biso   1.000  C
  C55      1.0000 0.26227  0.78440  0.45220  Biso   1.000  C
  C56      1.0000 0.33287  0.75690  0.48670  Biso   1.000  C
  C57      1.0000 0.33767  0.68400  0.46450  Biso   1.000  C
  C58      1.0000 0.27247  0.63310  0.40720  Biso   1.000  C
  C59      1.0000 0.20027  0.65824  0.37360  Biso   1.000  C
  C60      1.0000 0.48367  0.73740  0.67700  Biso   1.000  C
  C61      1.0000 0.64333  0.55930  0.34480  Biso   1.000  C
  C62      1.0000 0.68413  0.48330  0.28870  Biso   1.000  C
  C63      1.0000 0.64633  0.63600  0.47970  Biso   1.000  C
  C64      1.0000 0.60413  0.58180  0.50270  Biso   1.000  C
  C65      1.0000 0.79083  0.64630  0.40570  Biso   1.000  C
  C66      1.0000 0.86253  0.60618  0.33820  Biso   1.000  C
  C67      1.0000 0.92893  0.54780  0.33220  Biso   1.000  C
  C68      1.0000 0.99953  0.51330  0.27020  Biso   1.000  C
  C69      1.0000 0.00433  0.53550  0.21950  Biso   1.000  C
  C70      1.0000 0.93913  0.59280  0.22590  Biso   1.000  C
  C71      1.0000 0.86693  0.62640  0.28464  Biso   1.000  C
  C72      1.0000 0.15033  0.32300  0.06040  Biso   1.000  C
  C73      1.0000 0.50000  0.41460  0.00000  Biso   1.000  C
  C74      1.0000 0.83333  0.58540  0.58540  Biso   1.000  C
  C75      1.0000 0.16667  0.00000  0.41460  Biso   1.000  C
  S1       1.0000 0.38676  0.37922  0.53764  Biso   1.000  S
  S2       1.0000 0.72009  0.15842  0.62078  Biso   1.000  S
  S3       1.0000 0.05343  0.46236  0.84158  Biso   1.000  S
  S4       1.0000 0.61324  0.84158  0.46236  Biso   1.000  S
  S5       1.0000 0.27991  0.53764  0.37922  Biso   1.000  S
  S6       1.0000 0.94657  0.62078  0.15842  Biso   1.000  S
  N1       1.0000 0.62060  0.40440  0.81601  Biso   1.000  N
  N2       1.0000 0.95393  0.41161  0.59560  Biso   1.000  N
  N3       1.0000 0.28727  0.18399  0.58839  Biso   1.000  N
  N4       1.0000 0.37940  0.58839  0.18399  Biso   1.000  N
  N5       1.0000 0.04607  0.81601  0.40440  Biso   1.000  N
  N6       1.0000 0.71273  0.59560  0.41161  Biso   1.000  N
  O1       1.0000 0.48500  0.41440  0.93892  Biso   1.000  O
  O2       1.0000 0.59760  0.55115  0.86674  Biso   1.000  O
  O3       1.0000 0.67200  0.54190  0.76494  Biso   1.000  O
  O4       1.0000 0.68750  0.48326  0.95372  Biso   1.000  O
  O5       1.0000 0.79920  0.39728  0.94786  Biso   1.000  O
  O6       1.0000 0.40420  0.47301  0.85567  Biso   1.000  O
  O7       1.0000 0.46790  0.42250  0.52644  Biso   1.000  O
  O8       1.0000 0.27990  0.39910  0.52638  Biso   1.000  O
  O9       1.0000 0.40850  0.30068  0.49605  Biso   1.000  O
  O10      1.0000 0.08650  0.30700  0.91960  Biso   1.000  O
  O11      1.0000 0.74340  0.77330  0.08760  Biso   1.000  O
  O12      1.0000 0.55100  0.71450  0.03610  Biso   1.000  O
  O13      1.0000 0.20380  0.63580  0.73990  Biso   1.000  O
  O14      1.0000 0.90160  0.62430  0.95870  Biso   1.000  O
  O15      1.0000 0.17820  0.13580  0.36550  Biso   1.000  O
  O16      1.0000 0.39000  0.18500  0.22000  Biso   1.000  O
  O17      1.0000 0.81833  0.52452  0.58560  Biso   1.000  O
  O18      1.0000 0.93093  0.31559  0.44885  Biso   1.000  O
  O19      1.0000 0.00533  0.22304  0.45810  Biso   1.000  O
  O20      1.0000 0.02083  0.47046  0.51674  Biso   1.000  O
  O21      1.0000 0.13253  0.55058  0.60272  Biso   1.000  O
  O22      1.0000 0.73753  0.38266  0.52699  Biso   1.000  O
  O23      1.0000 0.80123  0.10394  0.57750  Biso   1.000  O
  O24      1.0000 0.61323  0.12728  0.60090  Biso   1.000  O
  O25      1.0000 0.74183  0.19537  0.69932  Biso   1.000  O
  O26      1.0000 0.41983  0.61260  0.69300  Biso   1.000  O
  O27      1.0000 0.07673  0.31430  0.22670  Biso   1.000  O
  O28      1.0000 0.88433  0.32160  0.28550  Biso   1.000  O
  O29      1.0000 0.53713  0.10410  0.36420  Biso   1.000  O
  O30      1.0000 0.23493  0.33440  0.37570  Biso   1.000  O
  O31      1.0000 0.51153  0.22970  0.86420  Biso   1.000  O
  O32      1.0000 0.72333  0.03500  0.81500  Biso   1.000  O
  O33      1.0000 0.15167  0.06108  0.47548  Biso   1.000  O
  O34      1.0000 0.26427  0.13326  0.68441  Biso   1.000  O
  O35      1.0000 0.33867  0.23506  0.77696  Biso   1.000  O
  O36      1.0000 0.35417  0.04628  0.52954  Biso   1.000  O
  O37      1.0000 0.46587  0.05214  0.44942  Biso   1.000  O
  O38      1.0000 0.07087  0.14433  0.61734  Biso   1.000  O
  O39      1.0000 0.13457  0.47356  0.89606  Biso   1.000  O
  O40      1.0000 0.94657  0.47362  0.87272  Biso   1.000  O
  O41      1.0000 0.07517  0.50395  0.80463  Biso   1.000  O
  O42      1.0000 0.75317  0.08040  0.38740  Biso   1.000  O
  O43      1.0000 0.41007  0.91240  0.68570  Biso   1.000  O
  O44      1.0000 0.21767  0.96390  0.67840  Biso   1.000  O
  O45      1.0000 0.87047  0.26010  0.89590  Biso   1.000  O
  O46      1.0000 0.56827  0.04130  0.66560  Biso   1.000  O
  O47      1.0000 0.84487  0.63450  0.77030  Biso   1.000  O
  O48      1.0000 0.05667  0.78000  0.96500  Biso   1.000  O
  O49      1.0000 0.51500  0.47548  0.06108  Biso   1.000  O
  O50      1.0000 0.40240  0.68441  0.13326  Biso   1.000  O
  O51      1.0000 0.32800  0.77696  0.23506  Biso   1.000  O
  O52      1.0000 0.31250  0.52954  0.04628  Biso   1.000  O
  O53      1.0000 0.20080  0.44942  0.05214  Biso   1.000  O
  O54      1.0000 0.59580  0.61734  0.14433  Biso   1.000  O
  O55      1.0000 0.53210  0.89606  0.47356  Biso   1.000  O
  O56      1.0000 0.72010  0.87272  0.47362  Biso   1.000  O
  O57      1.0000 0.59150  0.80463  0.50395  Biso   1.000  O
  O58      1.0000 0.91350  0.38740  0.08040  Biso   1.000  O
  O59      1.0000 0.25660  0.68570  0.91240  Biso   1.000  O
  O60      1.0000 0.44900  0.67840  0.96390  Biso   1.000  O
  O61      1.0000 0.79620  0.89590  0.26010  Biso   1.000  O
  O62      1.0000 0.09840  0.66560  0.04130  Biso   1.000  O
  O63      1.0000 0.82180  0.77030  0.63450  Biso   1.000  O
  O64      1.0000 0.61000  0.96500  0.78000  Biso   1.000  O
  O65      1.0000 0.18167  0.93892  0.41440  Biso   1.000  O
  O66      1.0000 0.06907  0.86674  0.55115  Biso   1.000  O
  O67      1.0000 0.99467  0.76494  0.54190  Biso   1.000  O
  O68      1.0000 0.97917  0.95372  0.48326  Biso   1.000  O
  O69      1.0000 0.86747  0.94786  0.39728  Biso   1.000  O
  O70      1.0000 0.26247  0.85567  0.47301  Biso   1.000  O
  O71      1.0000 0.19877  0.52644  0.42250  Biso   1.000  O
  O72      1.0000 0.38677  0.52638  0.39910  Biso   1.000  O
  O73      1.0000 0.25817  0.49605  0.30068  Biso   1.000  O
  O74      1.0000 0.58017  0.91960  0.30700  Biso   1.000  O
  O75      1.0000 0.92327  0.08760  0.77330  Biso   1.000  O
  O76      1.0000 0.11567  0.03610  0.71450  Biso   1.000  O
  O77      1.0000 0.46287  0.73990  0.63580  Biso   1.000  O
  O78      1.0000 0.76507  0.95870  0.62430  Biso   1.000  O
  O79      1.0000 0.48847  0.36550  0.13580  Biso   1.000  O
  O80      1.0000 0.27667  0.22000  0.18500  Biso   1.000  O
  O81      1.0000 0.84833  0.58560  0.52452  Biso   1.000  O
  O82      1.0000 0.73573  0.44885  0.31559  Biso   1.000  O
  O83      1.0000 0.66133  0.45810  0.22304  Biso   1.000  O
  O84      1.0000 0.64583  0.51674  0.47046  Biso   1.000  O
  O85      1.0000 0.53413  0.60272  0.55058  Biso   1.000  O
  O86      1.0000 0.92913  0.52699  0.38266  Biso   1.000  O
  O87      1.0000 0.86543  0.57750  0.10394  Biso   1.000  O
  O88      1.0000 0.05343  0.60090  0.12728  Biso   1.000  O
  O89      1.0000 0.92483  0.69932  0.19537  Biso   1.000  O
  O90      1.0000 0.24683  0.69300  0.61260  Biso   1.000  O
  O91      1.0000 0.58993  0.22670  0.31430  Biso   1.000  O
  O92      1.0000 0.78233  0.28550  0.32160  Biso   1.000  O
  O93      1.0000 0.12953  0.36420  0.10410  Biso   1.000  O
  O94      1.0000 0.43173  0.37570  0.33440  Biso   1.000  O
  O95      1.0000 0.15513  0.86420  0.22970  Biso   1.000  O
  O96      1.0000 0.94333  0.81500  0.03500  Biso   1.000  O
  O97      1.0000 0.50000  0.57706  0.00000  Biso   1.000  O
  O98      1.0000 0.50000  0.35500  0.00000  Biso   1.000  O
  O99      1.0000 0.83333  0.42294  0.42294  Biso   1.000  O
  O100     1.0000 0.83333  0.64500  0.64500  Biso   1.000  O
  O101     1.0000 0.16667  0.00000  0.57706  Biso   1.000  O
  O102     1.0000 0.16667  0.00000  0.35500  Biso   1.000  O
