data_image0
_cell_length_a       13.7506
_cell_length_b       17.8675
_cell_length_c       17.8675
_cell_angle_alpha    66.3412
_cell_angle_beta     75.1358
_cell_angle_gamma    104.864

_symmetry_space_group_name_H-M    P 1
_symmetry_int_tables_number       1

loop_
  _symmetry_equiv_pos_as_xyz
  'x, y, z'

loop_
  _atom_site_label
  _atom_site_occupancy
  _atom_site_fract_x
  _atom_site_fract_y
  _atom_site_fract_z
  _atom_site_thermal_displace_type
  _atom_site_B_iso_or_equiv
  _atom_site_type_symbol
  Cd1      1.0000 0.92042  0.36654  0.22771  Biso   1.000  Cd
  Cd2      1.0000 0.14813  0.22771  0.40575  Biso   1.000  Cd
  Cd3      1.0000 0.55388  0.40575  0.36654  Biso   1.000  Cd
  Cd4      1.0000 0.07958  0.63346  0.77229  Biso   1.000  Cd
  Cd5      1.0000 0.85187  0.77229  0.59425  Biso   1.000  Cd
  Cd6      1.0000 0.44612  0.59425  0.63346  Biso   1.000  Cd
  H1       1.0000 0.79470  0.03670  0.46820  Biso   1.000  H
  H2       1.0000 0.57210  0.06360  0.36580  Biso   1.000  H
  H3       1.0000 0.67710  0.21540  0.28360  Biso   1.000  H
  H4       1.0000 0.55520  0.91550  0.38870  Biso   1.000  H
  H5       1.0000 0.63930  0.91520  0.58730  Biso   1.000  H
  H6       1.0000 0.55940  0.76000  0.66310  Biso   1.000  H
  H7       1.0000 0.05900  0.26140  0.18080  Biso   1.000  H
  H8       1.0000 0.12080  0.21800  0.07890  Biso   1.000  H
  H9       1.0000 0.10100  0.27590  0.94630  Biso   1.000  H
  H10      1.0000 0.01350  0.36910  0.92040  Biso   1.000  H
  H11      1.0000 0.93930  0.40220  0.03240  Biso   1.000  H
  H12      1.0000 0.26290  0.46820  0.49510  Biso   1.000  H
  H13      1.0000 0.93790  0.36580  0.57060  Biso   1.000  H
  H14      1.0000 0.96070  0.28360  0.50100  Biso   1.000  H
  H15      1.0000 0.94390  0.38870  0.69580  Biso   1.000  H
  H16      1.0000 0.22660  0.58730  0.49750  Biso   1.000  H
  H17      1.0000 0.22250  0.66310  0.57690  Biso   1.000  H
  H18      1.0000 0.23980  0.18080  0.55780  Biso   1.000  H
  H19      1.0000 0.19970  0.07890  0.70310  Biso   1.000  H
  H20      1.0000 0.04730  0.94630  0.77780  Biso   1.000  H
  H21      1.0000 0.93390  0.92040  0.71050  Biso   1.000  H
  H22      1.0000 0.97170  0.03240  0.56540  Biso   1.000  H
  H23      1.0000 0.75800  0.49510  0.03670  Biso   1.000  H
  H24      1.0000 0.50850  0.57060  0.06360  Biso   1.000  H
  H25      1.0000 0.46170  0.50100  0.21540  Biso   1.000  H
  H26      1.0000 0.63970  0.69580  0.91550  Biso   1.000  H
  H27      1.0000 0.72410  0.49750  0.91520  Biso   1.000  H
  H28      1.0000 0.79940  0.57690  0.76000  Biso   1.000  H
  H29      1.0000 0.79760  0.55780  0.26140  Biso   1.000  H
  H30      1.0000 0.90280  0.70310  0.21800  Biso   1.000  H
  H31      1.0000 0.82510  0.77780  0.27590  Biso   1.000  H
  H32      1.0000 0.64440  0.71050  0.36910  Biso   1.000  H
  H33      1.0000 0.53710  0.56540  0.40220  Biso   1.000  H
  H34      1.0000 0.20530  0.96330  0.53180  Biso   1.000  H
  H35      1.0000 0.42790  0.93640  0.63420  Biso   1.000  H
  H36      1.0000 0.32290  0.78460  0.71640  Biso   1.000  H
  H37      1.0000 0.44480  0.08450  0.61130  Biso   1.000  H
  H38      1.0000 0.36070  0.08480  0.41270  Biso   1.000  H
  H39      1.0000 0.44060  0.24000  0.33690  Biso   1.000  H
  H40      1.0000 0.94100  0.73860  0.81920  Biso   1.000  H
  H41      1.0000 0.87920  0.78200  0.92110  Biso   1.000  H
  H42      1.0000 0.89900  0.72410  0.05370  Biso   1.000  H
  H43      1.0000 0.98650  0.63090  0.07960  Biso   1.000  H
  H44      1.0000 0.06070  0.59780  0.96760  Biso   1.000  H
  H45      1.0000 0.73710  0.53180  0.50490  Biso   1.000  H
  H46      1.0000 0.06210  0.63420  0.42940  Biso   1.000  H
  H47      1.0000 0.03930  0.71640  0.49900  Biso   1.000  H
  H48      1.0000 0.05610  0.61130  0.30420  Biso   1.000  H
  H49      1.0000 0.77340  0.41270  0.50250  Biso   1.000  H
  H50      1.0000 0.77750  0.33690  0.42310  Biso   1.000  H
  H51      1.0000 0.76020  0.81920  0.44220  Biso   1.000  H
  H52      1.0000 0.80030  0.92110  0.29690  Biso   1.000  H
  H53      1.0000 0.95270  0.05370  0.22220  Biso   1.000  H
  H54      1.0000 0.06610  0.07960  0.28950  Biso   1.000  H
  H55      1.0000 0.02830  0.96760  0.43460  Biso   1.000  H
  H56      1.0000 0.24200  0.50490  0.96330  Biso   1.000  H
  H57      1.0000 0.49150  0.42940  0.93640  Biso   1.000  H
  H58      1.0000 0.53830  0.49900  0.78460  Biso   1.000  H
  H59      1.0000 0.36030  0.30420  0.08450  Biso   1.000  H
  H60      1.0000 0.27590  0.50250  0.08480  Biso   1.000  H
  H61      1.0000 0.20060  0.42310  0.24000  Biso   1.000  H
  H62      1.0000 0.20240  0.44220  0.73860  Biso   1.000  H
  H63      1.0000 0.09720  0.29690  0.78200  Biso   1.000  H
  H64      1.0000 0.17490  0.22220  0.72410  Biso   1.000  H
  H65      1.0000 0.35560  0.28950  0.63090  Biso   1.000  H
  H66      1.0000 0.46290  0.43460  0.59780  Biso   1.000  H
  C1       1.0000 0.82920  0.16140  0.37750  Biso   1.000  C
  C2       1.0000 0.77010  0.07170  0.42940  Biso   1.000  C
  C3       1.0000 0.67140  0.03190  0.42470  Biso   1.000  C
  C4       1.0000 0.63780  0.08690  0.37020  Biso   1.000  C
  C5       1.0000 0.70170  0.17850  0.32050  Biso   1.000  C
  C6       1.0000 0.93980  0.20510  0.37650  Biso   1.000  C
  C7       1.0000 0.51150  0.79400  0.49010  Biso   1.000  C
  C8       1.0000 0.55840  0.88510  0.44350  Biso   1.000  C
  C9       1.0000 0.61060  0.93330  0.47730  Biso   1.000  C
  C10      1.0000 0.60820  0.88520  0.56150  Biso   1.000  C
  C11      1.0000 0.55910  0.79160  0.60740  Biso   1.000  C
  C12      1.0000 0.45890  0.73800  0.45780  Biso   1.000  C
  C13      1.0000 0.04710  0.28270  0.12860  Biso   1.000  C
  C14      1.0000 0.08630  0.25730  0.06690  Biso   1.000  C
  C15      1.0000 0.07350  0.29080  0.98910  Biso   1.000  C
  C16      1.0000 0.02170  0.34510  0.97410  Biso   1.000  C
  C17      1.0000 0.97840  0.36620  0.04170  Biso   1.000  C
  C18      1.0000 0.20670  0.37750  0.46110  Biso   1.000  C
  C19      1.0000 0.19950  0.42940  0.49890  Biso   1.000  C
  C20      1.0000 0.09610  0.42470  0.54340  Biso   1.000  C
  C21      1.0000 0.00800  0.37020  0.54290  Biso   1.000  C
  C22      1.0000 0.02220  0.32050  0.50100  Biso   1.000  C
  C23      1.0000 0.31630  0.37650  0.41840  Biso   1.000  C
  C24      1.0000 0.00160  0.49010  0.71590  Biso   1.000  C
  C25      1.0000 0.00190  0.44350  0.67140  Biso   1.000  C
  C26      1.0000 0.08790  0.47730  0.58940  Biso   1.000  C
  C27      1.0000 0.16970  0.56150  0.55330  Biso   1.000  C
  C28      1.0000 0.16650  0.60740  0.60100  Biso   1.000  C
  C29      1.0000 0.91670  0.45780  0.80420  Biso   1.000  C
  C30      1.0000 0.17570  0.12860  0.58870  Biso   1.000  C
  C31      1.0000 0.15320  0.06690  0.67580  Biso   1.000  C
  C32      1.0000 0.06260  0.98910  0.72010  Biso   1.000  C
  C33      1.0000 0.99580  0.97410  0.68080  Biso   1.000  C
  C34      1.0000 0.02010  0.04170  0.59210  Biso   1.000  C
  C35      1.0000 0.66780  0.46110  0.16140  Biso   1.000  C
  C36      1.0000 0.69840  0.49890  0.07170  Biso   1.000  C
  C37      1.0000 0.63950  0.54340  0.03190  Biso   1.000  C
  C38      1.0000 0.55090  0.54290  0.08690  Biso   1.000  C
  C39      1.0000 0.52320  0.50100  0.17850  Biso   1.000  C
  C40      1.0000 0.73470  0.41840  0.20510  Biso   1.000  C
  C41      1.0000 0.71750  0.71590  0.79400  Biso   1.000  C
  C42      1.0000 0.67330  0.67140  0.88510  Biso   1.000  C
  C43      1.0000 0.67730  0.58940  0.93330  Biso   1.000  C
  C44      1.0000 0.72300  0.55330  0.88520  Biso   1.000  C
  C45      1.0000 0.76750  0.60100  0.79160  Biso   1.000  C
  C46      1.0000 0.72090  0.80420  0.73800  Biso   1.000  C
  C47      1.0000 0.76440  0.58870  0.28270  Biso   1.000  C
  C48      1.0000 0.82900  0.67580  0.25730  Biso   1.000  C
  C49      1.0000 0.78270  0.72010  0.29080  Biso   1.000  C
  C50      1.0000 0.67660  0.68080  0.34510  Biso   1.000  C
  C51      1.0000 0.61220  0.59210  0.36620  Biso   1.000  C
  C52      1.0000 0.17080  0.83860  0.62250  Biso   1.000  C
  C53      1.0000 0.22990  0.92830  0.57060  Biso   1.000  C
  C54      1.0000 0.32860  0.96810  0.57530  Biso   1.000  C
  C55      1.0000 0.36220  0.91310  0.62980  Biso   1.000  C
  C56      1.0000 0.29830  0.82150  0.67950  Biso   1.000  C
  C57      1.0000 0.06020  0.79490  0.62350  Biso   1.000  C
  C58      1.0000 0.48850  0.20600  0.50990  Biso   1.000  C
  C59      1.0000 0.44160  0.11490  0.55650  Biso   1.000  C
  C60      1.0000 0.38940  0.06670  0.52270  Biso   1.000  C
  C61      1.0000 0.39180  0.11480  0.43850  Biso   1.000  C
  C62      1.0000 0.44090  0.20840  0.39260  Biso   1.000  C
  C63      1.0000 0.54110  0.26200  0.54220  Biso   1.000  C
  C64      1.0000 0.95290  0.71730  0.87140  Biso   1.000  C
  C65      1.0000 0.91370  0.74270  0.93310  Biso   1.000  C
  C66      1.0000 0.92650  0.70920  0.01090  Biso   1.000  C
  C67      1.0000 0.97830  0.65490  0.02590  Biso   1.000  C
  C68      1.0000 0.02160  0.63380  0.95830  Biso   1.000  C
  C69      1.0000 0.79330  0.62250  0.53890  Biso   1.000  C
  C70      1.0000 0.80050  0.57060  0.50110  Biso   1.000  C
  C71      1.0000 0.90390  0.57530  0.45660  Biso   1.000  C
  C72      1.0000 0.99200  0.62980  0.45710  Biso   1.000  C
  C73      1.0000 0.97780  0.67950  0.49900  Biso   1.000  C
  C74      1.0000 0.68370  0.62350  0.58160  Biso   1.000  C
  C75      1.0000 0.99840  0.50990  0.28410  Biso   1.000  C
  C76      1.0000 0.99810  0.55650  0.32860  Biso   1.000  C
  C77      1.0000 0.91210  0.52270  0.41060  Biso   1.000  C
  C78      1.0000 0.83030  0.43850  0.44670  Biso   1.000  C
  C79      1.0000 0.83350  0.39260  0.39900  Biso   1.000  C
  C80      1.0000 0.08330  0.54220  0.19580  Biso   1.000  C
  C81      1.0000 0.82430  0.87140  0.41130  Biso   1.000  C
  C82      1.0000 0.84680  0.93310  0.32420  Biso   1.000  C
  C83      1.0000 0.93740  0.01090  0.27990  Biso   1.000  C
  C84      1.0000 0.00420  0.02590  0.31920  Biso   1.000  C
  C85      1.0000 0.97990  0.95830  0.40790  Biso   1.000  C
  C86      1.0000 0.33220  0.53890  0.83860  Biso   1.000  C
  C87      1.0000 0.30160  0.50110  0.92830  Biso   1.000  C
  C88      1.0000 0.36050  0.45660  0.96810  Biso   1.000  C
  C89      1.0000 0.44910  0.45710  0.91310  Biso   1.000  C
  C90      1.0000 0.47680  0.49900  0.82150  Biso   1.000  C
  C91      1.0000 0.26530  0.58160  0.79490  Biso   1.000  C
  C92      1.0000 0.28250  0.28410  0.20600  Biso   1.000  C
  C93      1.0000 0.32670  0.32860  0.11490  Biso   1.000  C
  C94      1.0000 0.32270  0.41060  0.06670  Biso   1.000  C
  C95      1.0000 0.27700  0.44670  0.11480  Biso   1.000  C
  C96      1.0000 0.23250  0.39900  0.20840  Biso   1.000  C
  C97      1.0000 0.27910  0.19580  0.26200  Biso   1.000  C
  C98      1.0000 0.23560  0.41130  0.71730  Biso   1.000  C
  C99      1.0000 0.17100  0.32420  0.74270  Biso   1.000  C
  C100     1.0000 0.21730  0.27990  0.70920  Biso   1.000  C
  C101     1.0000 0.32340  0.31920  0.65490  Biso   1.000  C
  C102     1.0000 0.38780  0.40790  0.63380  Biso   1.000  C
  N1       1.0000 0.79510  0.21480  0.32350  Biso   1.000  N
  N2       1.0000 0.51160  0.74670  0.57240  Biso   1.000  N
  N3       1.0000 0.99340  0.33550  0.11690  Biso   1.000  N
  N4       1.0000 0.11860  0.32350  0.46170  Biso   1.000  N
  N5       1.0000 0.08400  0.57240  0.68090  Biso   1.000  N
  N6       1.0000 0.11030  0.11690  0.54760  Biso   1.000  N
  N7       1.0000 0.58030  0.46170  0.21480  Biso   1.000  N
  N8       1.0000 0.76490  0.68090  0.74670  Biso   1.000  N
  N9       1.0000 0.65790  0.54760  0.33550  Biso   1.000  N
  N10      1.0000 0.20490  0.78520  0.67650  Biso   1.000  N
  N11      1.0000 0.48840  0.25330  0.42760  Biso   1.000  N
  N12      1.0000 0.00660  0.66450  0.88310  Biso   1.000  N
  N13      1.0000 0.88140  0.67650  0.53830  Biso   1.000  N
  N14      1.0000 0.91600  0.42760  0.31910  Biso   1.000  N
  N15      1.0000 0.88970  0.88310  0.45240  Biso   1.000  N
  N16      1.0000 0.41970  0.53830  0.78520  Biso   1.000  N
  N17      1.0000 0.23510  0.31910  0.25330  Biso   1.000  N
  N18      1.0000 0.34210  0.45240  0.66450  Biso   1.000  N
  O1       1.0000 0.99610  0.28680  0.32050  Biso   1.000  O
  O2       1.0000 0.96990  0.15670  0.43130  Biso   1.000  O
  O3       1.0000 0.43230  0.65540  0.49850  Biso   1.000  O
  O4       1.0000 0.44920  0.77880  0.38700  Biso   1.000  O
  O5       1.0000 0.31660  0.32050  0.39270  Biso   1.000  O
  O6       1.0000 0.40120  0.43130  0.41200  Biso   1.000  O
  O7       1.0000 0.93080  0.49850  0.84610  Biso   1.000  O
  O8       1.0000 0.83620  0.38700  0.83420  Biso   1.000  O
  O9       1.0000 0.70930  0.39270  0.28680  Biso   1.000  O
  O10      1.0000 0.81320  0.41200  0.15670  Biso   1.000  O
  O11      1.0000 0.77690  0.84610  0.65540  Biso   1.000  O
  O12      1.0000 0.67040  0.83420  0.77880  Biso   1.000  O
  O13      1.0000 0.00390  0.71320  0.67950  Biso   1.000  O
  O14      1.0000 0.03010  0.84330  0.56870  Biso   1.000  O
  O15      1.0000 0.56770  0.34460  0.50150  Biso   1.000  O
  O16      1.0000 0.55080  0.22120  0.61300  Biso   1.000  O
  O17      1.0000 0.68340  0.67950  0.60730  Biso   1.000  O
  O18      1.0000 0.59880  0.56870  0.58800  Biso   1.000  O
  O19      1.0000 0.06920  0.50150  0.15390  Biso   1.000  O
  O20      1.0000 0.16380  0.61300  0.16580  Biso   1.000  O
  O21      1.0000 0.29070  0.60730  0.71320  Biso   1.000  O
  O22      1.0000 0.18680  0.58800  0.84330  Biso   1.000  O
  O23      1.0000 0.22310  0.15390  0.34460  Biso   1.000  O
  O24      1.0000 0.32960  0.16580  0.22120  Biso   1.000  O
