data_image0
_cell_length_a       15.849
_cell_length_b       10.271
_cell_length_c       21.178
_cell_angle_alpha    90
_cell_angle_beta     108.936
_cell_angle_gamma    90

_symmetry_space_group_name_H-M    "P 1"
_symmetry_int_tables_number       1

loop_
  _symmetry_equiv_pos_as_xyz
  'x, y, z'

loop_
  _atom_site_label
  _atom_site_occupancy
  _atom_site_fract_x
  _atom_site_fract_y
  _atom_site_fract_z
  _atom_site_thermal_displace_type
  _atom_site_B_iso_or_equiv
  _atom_site_type_symbol
  Eu1      1.0000 0.39256  0.54097  0.53338  Biso   1.000  Eu
  O1       1.0000 0.38980  0.66090  0.43530  Biso   1.000  O
  C1       1.0000 0.41560  0.63180  0.38630  Biso   1.000  C
  C2       1.0000 0.35440  0.66040  0.31500  Biso   1.000  C
  C3       1.0000 0.37180  0.60000  0.26140  Biso   1.000  C
  H1       1.0000 0.41930  0.54270  0.26850  Biso   1.000  H
  C4       1.0000 0.31670  0.62770  0.19790  Biso   1.000  C
  C5       1.0000 0.24820  0.71560  0.18680  Biso   1.000  C
  H2       1.0000 0.21270  0.73300  0.14310  Biso   1.000  H
  C6       1.0000 0.22980  0.78140  0.24090  Biso   1.000  C
  C7       1.0000 0.28510  0.74690  0.30630  Biso   1.000  C
  H3       1.0000 0.27440  0.78290  0.34320  Biso   1.000  H
  C8       1.0000 0.33620  0.56510  0.13900  Biso   1.000  C
  C9       1.0000 0.11080  0.91760  0.16470  Biso   1.000  C
  H4       1.0000 0.14870  0.91220  0.13680  Biso   1.000  H
  H5       1.0000 0.09700  0.00890  0.16800  Biso   1.000  H
  C10      1.0000 0.02690  0.84820  0.13070  Biso   1.000  C
  C11      1.0000 0.00330  0.73110  0.15320  Biso   1.000  C
  H6       1.0000 0.04110  0.69400  0.19220  Biso   1.000  H
  C12      1.0000 0.92370  0.66800  0.11830  Biso   1.000  C
  H7       1.0000 0.91030  0.58860  0.13390  Biso   1.000  H
  C13      1.0000 0.86360  0.72140  0.06030  Biso   1.000  C
  C14      1.0000 0.88350  0.84360  0.03940  Biso   1.000  C
  H8       1.0000 0.84250  0.88450  0.00310  Biso   1.000  H
  C15      1.0000 0.96450  0.90430  0.07270  Biso   1.000  C
  H9       1.0000 0.97810  0.98320  0.05670  Biso   1.000  H
  C16      1.0000 0.78050  0.65580  0.02380  Biso   1.000  C
  C17      1.0000 0.14870  0.94110  0.28720  Biso   1.000  C
  H10      1.0000 0.14650  0.87850  0.32090  Biso   1.000  H
  H11      1.0000 0.09130  0.98460  0.27170  Biso   1.000  H
  C18      1.0000 0.22050  0.04220  0.31960  Biso   1.000  C
  C19      1.0000 0.21810  0.10870  0.37460  Biso   1.000  C
  H12      1.0000 0.17180  0.09250  0.39150  Biso   1.000  H
  C20      1.0000 0.28210  0.19910  0.40590  Biso   1.000  C
  H13      1.0000 0.27620  0.24630  0.44170  Biso   1.000  H
  C21      1.0000 0.35570  0.22130  0.38480  Biso   1.000  C
  C22      1.0000 0.35610  0.15630  0.32510  Biso   1.000  C
  H14      1.0000 0.40120  0.17280  0.30700  Biso   1.000  H
  C23      1.0000 0.28960  0.06960  0.29480  Biso   1.000  C
  H15      1.0000 0.29080  0.02760  0.25620  Biso   1.000  H
  C24      1.0000 0.43410  0.30480  0.42130  Biso   1.000  C
  N1       1.0000 0.16190  0.87110  0.23150  Biso   1.000  N
  O2       1.0000 0.36900  0.45620  0.14500  Biso   1.000  O
  O3       1.0000 0.31640  0.62880  0.08330  Biso   1.000  O
  O4       1.0000 0.76630  0.53860  0.03980  Biso   1.000  O
  O5       1.0000 0.71960  0.71450  0.97710  Biso   1.000  O
  O6       1.0000 0.42350  0.38420  0.46430  Biso   1.000  O
  O7       1.0000 0.50690  0.29020  0.40990  Biso   1.000  O
  O8       1.0000 0.49100  0.58030  0.39150  Biso   1.000  O
  Eu2      1.0000 0.60744  0.54097  0.96662  Biso   1.000  Eu
  O9       1.0000 0.61020  0.66090  0.06470  Biso   1.000  O
  C25      1.0000 0.58440  0.63180  0.11370  Biso   1.000  C
  C26      1.0000 0.64560  0.66040  0.18500  Biso   1.000  C
  C27      1.0000 0.62820  0.60000  0.23860  Biso   1.000  C
  H16      1.0000 0.58070  0.54270  0.23150  Biso   1.000  H
  C28      1.0000 0.68330  0.62770  0.30210  Biso   1.000  C
  C29      1.0000 0.75180  0.71560  0.31320  Biso   1.000  C
  H17      1.0000 0.78730  0.73300  0.35690  Biso   1.000  H
  C30      1.0000 0.77020  0.78140  0.25910  Biso   1.000  C
  C31      1.0000 0.71490  0.74690  0.19370  Biso   1.000  C
  H18      1.0000 0.72560  0.78290  0.15680  Biso   1.000  H
  C32      1.0000 0.66380  0.56510  0.36100  Biso   1.000  C
  C33      1.0000 0.88920  0.91760  0.33530  Biso   1.000  C
  H19      1.0000 0.85130  0.91220  0.36320  Biso   1.000  H
  H20      1.0000 0.90300  0.00890  0.33200  Biso   1.000  H
  C34      1.0000 0.97310  0.84820  0.36930  Biso   1.000  C
  C35      1.0000 0.99670  0.73110  0.34680  Biso   1.000  C
  H21      1.0000 0.95890  0.69400  0.30780  Biso   1.000  H
  C36      1.0000 0.07630  0.66800  0.38170  Biso   1.000  C
  H22      1.0000 0.08970  0.58860  0.36610  Biso   1.000  H
  C37      1.0000 0.13640  0.72140  0.43970  Biso   1.000  C
  C38      1.0000 0.11650  0.84360  0.46060  Biso   1.000  C
  H23      1.0000 0.15750  0.88450  0.49690  Biso   1.000  H
  C39      1.0000 0.03550  0.90430  0.42730  Biso   1.000  C
  H24      1.0000 0.02190  0.98320  0.44330  Biso   1.000  H
  C40      1.0000 0.21950  0.65580  0.47620  Biso   1.000  C
  C41      1.0000 0.85130  0.94110  0.21280  Biso   1.000  C
  H25      1.0000 0.85350  0.87850  0.17910  Biso   1.000  H
  H26      1.0000 0.90870  0.98460  0.22830  Biso   1.000  H
  C42      1.0000 0.77950  0.04220  0.18040  Biso   1.000  C
  C43      1.0000 0.78190  0.10870  0.12540  Biso   1.000  C
  H27      1.0000 0.82820  0.09250  0.10850  Biso   1.000  H
  C44      1.0000 0.71790  0.19910  0.09410  Biso   1.000  C
  H28      1.0000 0.72380  0.24630  0.05830  Biso   1.000  H
  C45      1.0000 0.64430  0.22130  0.11520  Biso   1.000  C
  C46      1.0000 0.64390  0.15630  0.17490  Biso   1.000  C
  H29      1.0000 0.59880  0.17280  0.19300  Biso   1.000  H
  C47      1.0000 0.71040  0.06960  0.20520  Biso   1.000  C
  H30      1.0000 0.70920  0.02760  0.24380  Biso   1.000  H
  C48      1.0000 0.56590  0.30480  0.07870  Biso   1.000  C
  N2       1.0000 0.83810  0.87110  0.26850  Biso   1.000  N
  O10      1.0000 0.63100  0.45620  0.35500  Biso   1.000  O
  O11      1.0000 0.68360  0.62880  0.41670  Biso   1.000  O
  O12      1.0000 0.23370  0.53860  0.46020  Biso   1.000  O
  O13      1.0000 0.28040  0.71450  0.52290  Biso   1.000  O
  O14      1.0000 0.57650  0.38420  0.03570  Biso   1.000  O
  O15      1.0000 0.49310  0.29020  0.09010  Biso   1.000  O
  O16      1.0000 0.50900  0.58030  0.10850  Biso   1.000  O
  Eu3      1.0000 0.60744  0.45903  0.46662  Biso   1.000  Eu
  O17      1.0000 0.61020  0.33910  0.56470  Biso   1.000  O
  C49      1.0000 0.58440  0.36820  0.61370  Biso   1.000  C
  C50      1.0000 0.64560  0.33960  0.68500  Biso   1.000  C
  C51      1.0000 0.62820  0.40000  0.73860  Biso   1.000  C
  H31      1.0000 0.58070  0.45730  0.73150  Biso   1.000  H
  C52      1.0000 0.68330  0.37230  0.80210  Biso   1.000  C
  C53      1.0000 0.75180  0.28440  0.81320  Biso   1.000  C
  H32      1.0000 0.78730  0.26700  0.85690  Biso   1.000  H
  C54      1.0000 0.77020  0.21860  0.75910  Biso   1.000  C
  C55      1.0000 0.71490  0.25310  0.69370  Biso   1.000  C
  H33      1.0000 0.72560  0.21710  0.65680  Biso   1.000  H
  C56      1.0000 0.66380  0.43490  0.86100  Biso   1.000  C
  C57      1.0000 0.88920  0.08240  0.83530  Biso   1.000  C
  H34      1.0000 0.85130  0.08780  0.86320  Biso   1.000  H
  H35      1.0000 0.90300  0.99110  0.83200  Biso   1.000  H
  C58      1.0000 0.97310  0.15180  0.86930  Biso   1.000  C
  C59      1.0000 0.99670  0.26890  0.84680  Biso   1.000  C
  H36      1.0000 0.95890  0.30600  0.80780  Biso   1.000  H
  C60      1.0000 0.07630  0.33200  0.88170  Biso   1.000  C
  H37      1.0000 0.08970  0.41140  0.86610  Biso   1.000  H
  C61      1.0000 0.13640  0.27860  0.93970  Biso   1.000  C
  C62      1.0000 0.11650  0.15640  0.96060  Biso   1.000  C
  H38      1.0000 0.15750  0.11550  0.99690  Biso   1.000  H
  C63      1.0000 0.03550  0.09570  0.92730  Biso   1.000  C
  H39      1.0000 0.02190  0.01680  0.94330  Biso   1.000  H
  C64      1.0000 0.21950  0.34420  0.97620  Biso   1.000  C
  C65      1.0000 0.85130  0.05890  0.71280  Biso   1.000  C
  H40      1.0000 0.85350  0.12150  0.67910  Biso   1.000  H
  H41      1.0000 0.90870  0.01540  0.72830  Biso   1.000  H
  C66      1.0000 0.77950  0.95780  0.68040  Biso   1.000  C
  C67      1.0000 0.78190  0.89130  0.62540  Biso   1.000  C
  H42      1.0000 0.82820  0.90750  0.60850  Biso   1.000  H
  C68      1.0000 0.71790  0.80090  0.59410  Biso   1.000  C
  H43      1.0000 0.72380  0.75370  0.55830  Biso   1.000  H
  C69      1.0000 0.64430  0.77870  0.61520  Biso   1.000  C
  C70      1.0000 0.64390  0.84370  0.67490  Biso   1.000  C
  H44      1.0000 0.59880  0.82720  0.69300  Biso   1.000  H
  C71      1.0000 0.71040  0.93040  0.70520  Biso   1.000  C
  H45      1.0000 0.70920  0.97240  0.74380  Biso   1.000  H
  C72      1.0000 0.56590  0.69520  0.57870  Biso   1.000  C
  N3       1.0000 0.83810  0.12890  0.76850  Biso   1.000  N
  O18      1.0000 0.63100  0.54380  0.85500  Biso   1.000  O
  O19      1.0000 0.68360  0.37120  0.91670  Biso   1.000  O
  O20      1.0000 0.23370  0.46140  0.96020  Biso   1.000  O
  O21      1.0000 0.28040  0.28550  0.02290  Biso   1.000  O
  O22      1.0000 0.57650  0.61580  0.53570  Biso   1.000  O
  O23      1.0000 0.49310  0.70980  0.59010  Biso   1.000  O
  O24      1.0000 0.50900  0.41970  0.60850  Biso   1.000  O
  Eu4      1.0000 0.39256  0.45903  0.03338  Biso   1.000  Eu
  O25      1.0000 0.38980  0.33910  0.93530  Biso   1.000  O
  C73      1.0000 0.41560  0.36820  0.88630  Biso   1.000  C
  C74      1.0000 0.35440  0.33960  0.81500  Biso   1.000  C
  C75      1.0000 0.37180  0.40000  0.76140  Biso   1.000  C
  H46      1.0000 0.41930  0.45730  0.76850  Biso   1.000  H
  C76      1.0000 0.31670  0.37230  0.69790  Biso   1.000  C
  C77      1.0000 0.24820  0.28440  0.68680  Biso   1.000  C
  H47      1.0000 0.21270  0.26700  0.64310  Biso   1.000  H
  C78      1.0000 0.22980  0.21860  0.74090  Biso   1.000  C
  C79      1.0000 0.28510  0.25310  0.80630  Biso   1.000  C
  H48      1.0000 0.27440  0.21710  0.84320  Biso   1.000  H
  C80      1.0000 0.33620  0.43490  0.63900  Biso   1.000  C
  C81      1.0000 0.11080  0.08240  0.66470  Biso   1.000  C
  H49      1.0000 0.14870  0.08780  0.63680  Biso   1.000  H
  H50      1.0000 0.09700  0.99110  0.66800  Biso   1.000  H
  C82      1.0000 0.02690  0.15180  0.63070  Biso   1.000  C
  C83      1.0000 0.00330  0.26890  0.65320  Biso   1.000  C
  H51      1.0000 0.04110  0.30600  0.69220  Biso   1.000  H
  C84      1.0000 0.92370  0.33200  0.61830  Biso   1.000  C
  H52      1.0000 0.91030  0.41140  0.63390  Biso   1.000  H
  C85      1.0000 0.86360  0.27860  0.56030  Biso   1.000  C
  C86      1.0000 0.88350  0.15640  0.53940  Biso   1.000  C
  H53      1.0000 0.84250  0.11550  0.50310  Biso   1.000  H
  C87      1.0000 0.96450  0.09570  0.57270  Biso   1.000  C
  H54      1.0000 0.97810  0.01680  0.55670  Biso   1.000  H
  C88      1.0000 0.78050  0.34420  0.52380  Biso   1.000  C
  C89      1.0000 0.14870  0.05890  0.78720  Biso   1.000  C
  H55      1.0000 0.14650  0.12150  0.82090  Biso   1.000  H
  H56      1.0000 0.09130  0.01540  0.77170  Biso   1.000  H
  C90      1.0000 0.22050  0.95780  0.81960  Biso   1.000  C
  C91      1.0000 0.21810  0.89130  0.87460  Biso   1.000  C
  H57      1.0000 0.17180  0.90750  0.89150  Biso   1.000  H
  C92      1.0000 0.28210  0.80090  0.90590  Biso   1.000  C
  H58      1.0000 0.27620  0.75370  0.94170  Biso   1.000  H
  C93      1.0000 0.35570  0.77870  0.88480  Biso   1.000  C
  C94      1.0000 0.35610  0.84370  0.82510  Biso   1.000  C
  H59      1.0000 0.40120  0.82720  0.80700  Biso   1.000  H
  C95      1.0000 0.28960  0.93040  0.79480  Biso   1.000  C
  H60      1.0000 0.29080  0.97240  0.75620  Biso   1.000  H
  C96      1.0000 0.43410  0.69520  0.92130  Biso   1.000  C
  N4       1.0000 0.16190  0.12890  0.73150  Biso   1.000  N
  O26      1.0000 0.36900  0.54380  0.64500  Biso   1.000  O
  O27      1.0000 0.31640  0.37120  0.58330  Biso   1.000  O
  O28      1.0000 0.76630  0.46140  0.53980  Biso   1.000  O
  O29      1.0000 0.71960  0.28550  0.47710  Biso   1.000  O
  O30      1.0000 0.42350  0.61580  0.96430  Biso   1.000  O
  O31      1.0000 0.50690  0.70980  0.90990  Biso   1.000  O
  O32      1.0000 0.49100  0.41970  0.89150  Biso   1.000  O
