data_image0
_cell_length_a       15.175
_cell_length_b       10.927
_cell_length_c       20.718
_cell_angle_alpha    90
_cell_angle_beta     108.441
_cell_angle_gamma    90

_symmetry_space_group_name_H-M    "P 1"
_symmetry_int_tables_number       1

loop_
  _symmetry_equiv_pos_as_xyz
  'x, y, z'

loop_
  _atom_site_label
  _atom_site_occupancy
  _atom_site_fract_x
  _atom_site_fract_y
  _atom_site_fract_z
  _atom_site_thermal_displace_type
  _atom_site_B_iso_or_equiv
  _atom_site_type_symbol
  Tb1      1.0000 0.61369  0.03561  0.96709  Biso   1.000  Tb
  C1       1.0000 0.78590  0.14920  0.02410  Biso   1.000  C
  C2       1.0000 0.87090  0.21950  0.06250  Biso   1.000  C
  C3       1.0000 0.93010  0.17630  0.12340  Biso   1.000  C
  H1       1.0000 0.91710  0.10270  0.14110  Biso   1.000  H
  C4       1.0000 0.89060  0.33090  0.03750  Biso   1.000  C
  H2       1.0000 0.85040  0.36180  0.99700  Biso   1.000  H
  C5       1.0000 0.96970  0.39630  0.07230  Biso   1.000  C
  H3       1.0000 0.98220  0.47080  0.05520  Biso   1.000  H
  C6       1.0000 0.03070  0.35060  0.13310  Biso   1.000  C
  C7       1.0000 0.00860  0.24150  0.15820  Biso   1.000  C
  H4       1.0000 0.04740  0.21150  0.19940  Biso   1.000  H
  C8       1.0000 0.11560  0.42490  0.16990  Biso   1.000  C
  H5       1.0000 0.15610  0.42770  0.14190  Biso   1.000  H
  H6       1.0000 0.09610  0.50810  0.17450  Biso   1.000  H
  C9       1.0000 0.23410  0.28900  0.24490  Biso   1.000  C
  C10      1.0000 0.24850  0.22950  0.18860  Biso   1.000  C
  H7       1.0000 0.21270  0.25160  0.14480  Biso   1.000  H
  C11      1.0000 0.29010  0.25110  0.31070  Biso   1.000  C
  H8       1.0000 0.28060  0.28570  0.34900  Biso   1.000  H
  C12      1.0000 0.35830  0.16380  0.31860  Biso   1.000  C
  C13      1.0000 0.41770  0.12730  0.38900  Biso   1.000  C
  C14      1.0000 0.37240  0.10690  0.26270  Biso   1.000  C
  H9       1.0000 0.41910  0.04890  0.26860  Biso   1.000  H
  C15      1.0000 0.31500  0.13860  0.19750  Biso   1.000  C
  C16      1.0000 0.32800  0.07470  0.13650  Biso   1.000  C
  C17      1.0000 0.15560  0.44330  0.29520  Biso   1.000  C
  H10      1.0000 0.15600  0.38300  0.32970  Biso   1.000  H
  H11      1.0000 0.09500  0.48200  0.28110  Biso   1.000  H
  C18      1.0000 0.22870  0.53990  0.32680  Biso   1.000  C
  C19      1.0000 0.21730  0.61540  0.37700  Biso   1.000  C
  H12      1.0000 0.16530  0.60500  0.39100  Biso   1.000  H
  C20      1.0000 0.30710  0.55650  0.30900  Biso   1.000  C
  H13      1.0000 0.31690  0.50680  0.27550  Biso   1.000  H
  C21      1.0000 0.27990  0.70500  0.40670  Biso   1.000  C
  H14      1.0000 0.26840  0.75670  0.43880  Biso   1.000  H
  C22      1.0000 0.37200  0.64430  0.33890  Biso   1.000  C
  H15      1.0000 0.42420  0.65310  0.32500  Biso   1.000  H
  C23      1.0000 0.36100  0.71970  0.38930  Biso   1.000  C
  C24      1.0000 0.43270  0.81320  0.42300  Biso   1.000  C
  N1       1.0000 0.16890  0.38060  0.23680  Biso   1.000  N
  O1       1.0000 0.72580  0.19790  0.97420  Biso   1.000  O
  O2       1.0000 0.77480  0.04240  0.04290  Biso   1.000  O
  O3       1.0000 0.30750  0.12750  0.08000  Biso   1.000  O
  O4       1.0000 0.36110  0.96850  0.14360  Biso   1.000  O
  O5       1.0000 0.49310  0.07590  0.39290  Biso   1.000  O
  O6       1.0000 0.38920  0.15270  0.43760  Biso   1.000  O
  O7       1.0000 0.50830  0.81070  0.41190  Biso   1.000  O
  O8       1.0000 0.41300  0.88910  0.46230  Biso   1.000  O
  Tb2      1.0000 0.38631  0.03561  0.53291  Biso   1.000  Tb
  C25      1.0000 0.21410  0.14920  0.47590  Biso   1.000  C
  C26      1.0000 0.12910  0.21950  0.43750  Biso   1.000  C
  C27      1.0000 0.06990  0.17630  0.37660  Biso   1.000  C
  H16      1.0000 0.08290  0.10270  0.35890  Biso   1.000  H
  C28      1.0000 0.10940  0.33090  0.46250  Biso   1.000  C
  H17      1.0000 0.14960  0.36180  0.50300  Biso   1.000  H
  C29      1.0000 0.03030  0.39630  0.42770  Biso   1.000  C
  H18      1.0000 0.01780  0.47080  0.44480  Biso   1.000  H
  C30      1.0000 0.96930  0.35060  0.36690  Biso   1.000  C
  C31      1.0000 0.99140  0.24150  0.34180  Biso   1.000  C
  H19      1.0000 0.95260  0.21150  0.30060  Biso   1.000  H
  C32      1.0000 0.88440  0.42490  0.33010  Biso   1.000  C
  H20      1.0000 0.84390  0.42770  0.35810  Biso   1.000  H
  H21      1.0000 0.90390  0.50810  0.32550  Biso   1.000  H
  C33      1.0000 0.76590  0.28900  0.25510  Biso   1.000  C
  C34      1.0000 0.75150  0.22950  0.31140  Biso   1.000  C
  H22      1.0000 0.78730  0.25160  0.35520  Biso   1.000  H
  C35      1.0000 0.70990  0.25110  0.18930  Biso   1.000  C
  H23      1.0000 0.71940  0.28570  0.15100  Biso   1.000  H
  C36      1.0000 0.64170  0.16380  0.18140  Biso   1.000  C
  C37      1.0000 0.58230  0.12730  0.11100  Biso   1.000  C
  C38      1.0000 0.62760  0.10690  0.23730  Biso   1.000  C
  H24      1.0000 0.58090  0.04890  0.23140  Biso   1.000  H
  C39      1.0000 0.68500  0.13860  0.30250  Biso   1.000  C
  C40      1.0000 0.67200  0.07470  0.36350  Biso   1.000  C
  C41      1.0000 0.84440  0.44330  0.20480  Biso   1.000  C
  H25      1.0000 0.84400  0.38300  0.17030  Biso   1.000  H
  H26      1.0000 0.90500  0.48200  0.21890  Biso   1.000  H
  C42      1.0000 0.77130  0.53990  0.17320  Biso   1.000  C
  C43      1.0000 0.78270  0.61540  0.12300  Biso   1.000  C
  H27      1.0000 0.83470  0.60500  0.10900  Biso   1.000  H
  C44      1.0000 0.69290  0.55650  0.19100  Biso   1.000  C
  H28      1.0000 0.68310  0.50680  0.22450  Biso   1.000  H
  C45      1.0000 0.72010  0.70500  0.09330  Biso   1.000  C
  H29      1.0000 0.73160  0.75670  0.06120  Biso   1.000  H
  C46      1.0000 0.62800  0.64430  0.16110  Biso   1.000  C
  H30      1.0000 0.57580  0.65310  0.17500  Biso   1.000  H
  C47      1.0000 0.63900  0.71970  0.11070  Biso   1.000  C
  C48      1.0000 0.56730  0.81320  0.07700  Biso   1.000  C
  N2       1.0000 0.83110  0.38060  0.26320  Biso   1.000  N
  O9       1.0000 0.27420  0.19790  0.52580  Biso   1.000  O
  O10      1.0000 0.22520  0.04240  0.45710  Biso   1.000  O
  O11      1.0000 0.69250  0.12750  0.42000  Biso   1.000  O
  O12      1.0000 0.63890  0.96850  0.35640  Biso   1.000  O
  O13      1.0000 0.50690  0.07590  0.10710  Biso   1.000  O
  O14      1.0000 0.61080  0.15270  0.06240  Biso   1.000  O
  O15      1.0000 0.49170  0.81070  0.08810  Biso   1.000  O
  O16      1.0000 0.58700  0.88910  0.03770  Biso   1.000  O
  Tb3      1.0000 0.38631  0.96439  0.03291  Biso   1.000  Tb
  C49      1.0000 0.21410  0.85080  0.97590  Biso   1.000  C
  C50      1.0000 0.12910  0.78050  0.93750  Biso   1.000  C
  C51      1.0000 0.06990  0.82370  0.87660  Biso   1.000  C
  H31      1.0000 0.08290  0.89730  0.85890  Biso   1.000  H
  C52      1.0000 0.10940  0.66910  0.96250  Biso   1.000  C
  H32      1.0000 0.14960  0.63820  0.00300  Biso   1.000  H
  C53      1.0000 0.03030  0.60370  0.92770  Biso   1.000  C
  H33      1.0000 0.01780  0.52920  0.94480  Biso   1.000  H
  C54      1.0000 0.96930  0.64940  0.86690  Biso   1.000  C
  C55      1.0000 0.99140  0.75850  0.84180  Biso   1.000  C
  H34      1.0000 0.95260  0.78850  0.80060  Biso   1.000  H
  C56      1.0000 0.88440  0.57510  0.83010  Biso   1.000  C
  H35      1.0000 0.84390  0.57230  0.85810  Biso   1.000  H
  H36      1.0000 0.90390  0.49190  0.82550  Biso   1.000  H
  C57      1.0000 0.76590  0.71100  0.75510  Biso   1.000  C
  C58      1.0000 0.75150  0.77050  0.81140  Biso   1.000  C
  H37      1.0000 0.78730  0.74840  0.85520  Biso   1.000  H
  C59      1.0000 0.70990  0.74890  0.68930  Biso   1.000  C
  H38      1.0000 0.71940  0.71430  0.65100  Biso   1.000  H
  C60      1.0000 0.64170  0.83620  0.68140  Biso   1.000  C
  C61      1.0000 0.58230  0.87270  0.61100  Biso   1.000  C
  C62      1.0000 0.62760  0.89310  0.73730  Biso   1.000  C
  H39      1.0000 0.58090  0.95110  0.73140  Biso   1.000  H
  C63      1.0000 0.68500  0.86140  0.80250  Biso   1.000  C
  C64      1.0000 0.67200  0.92530  0.86350  Biso   1.000  C
  C65      1.0000 0.84440  0.55670  0.70480  Biso   1.000  C
  H40      1.0000 0.84400  0.61700  0.67030  Biso   1.000  H
  H41      1.0000 0.90500  0.51800  0.71890  Biso   1.000  H
  C66      1.0000 0.77130  0.46010  0.67320  Biso   1.000  C
  C67      1.0000 0.78270  0.38460  0.62300  Biso   1.000  C
  H42      1.0000 0.83470  0.39500  0.60900  Biso   1.000  H
  C68      1.0000 0.69290  0.44350  0.69100  Biso   1.000  C
  H43      1.0000 0.68310  0.49320  0.72450  Biso   1.000  H
  C69      1.0000 0.72010  0.29500  0.59330  Biso   1.000  C
  H44      1.0000 0.73160  0.24330  0.56120  Biso   1.000  H
  C70      1.0000 0.62800  0.35570  0.66110  Biso   1.000  C
  H45      1.0000 0.57580  0.34690  0.67500  Biso   1.000  H
  C71      1.0000 0.63900  0.28030  0.61070  Biso   1.000  C
  C72      1.0000 0.56730  0.18680  0.57700  Biso   1.000  C
  N3       1.0000 0.83110  0.61940  0.76320  Biso   1.000  N
  O17      1.0000 0.27420  0.80210  0.02580  Biso   1.000  O
  O18      1.0000 0.22520  0.95760  0.95710  Biso   1.000  O
  O19      1.0000 0.69250  0.87250  0.92000  Biso   1.000  O
  O20      1.0000 0.63890  0.03150  0.85640  Biso   1.000  O
  O21      1.0000 0.50690  0.92410  0.60710  Biso   1.000  O
  O22      1.0000 0.61080  0.84730  0.56240  Biso   1.000  O
  O23      1.0000 0.49170  0.18930  0.58810  Biso   1.000  O
  O24      1.0000 0.58700  0.11090  0.53770  Biso   1.000  O
  Tb4      1.0000 0.61369  0.96439  0.46709  Biso   1.000  Tb
  C73      1.0000 0.78590  0.85080  0.52410  Biso   1.000  C
  C74      1.0000 0.87090  0.78050  0.56250  Biso   1.000  C
  C75      1.0000 0.93010  0.82370  0.62340  Biso   1.000  C
  H46      1.0000 0.91710  0.89730  0.64110  Biso   1.000  H
  C76      1.0000 0.89060  0.66910  0.53750  Biso   1.000  C
  H47      1.0000 0.85040  0.63820  0.49700  Biso   1.000  H
  C77      1.0000 0.96970  0.60370  0.57230  Biso   1.000  C
  H48      1.0000 0.98220  0.52920  0.55520  Biso   1.000  H
  C78      1.0000 0.03070  0.64940  0.63310  Biso   1.000  C
  C79      1.0000 0.00860  0.75850  0.65820  Biso   1.000  C
  H49      1.0000 0.04740  0.78850  0.69940  Biso   1.000  H
  C80      1.0000 0.11560  0.57510  0.66990  Biso   1.000  C
  H50      1.0000 0.15610  0.57230  0.64190  Biso   1.000  H
  H51      1.0000 0.09610  0.49190  0.67450  Biso   1.000  H
  C81      1.0000 0.23410  0.71100  0.74490  Biso   1.000  C
  C82      1.0000 0.24850  0.77050  0.68860  Biso   1.000  C
  H52      1.0000 0.21270  0.74840  0.64480  Biso   1.000  H
  C83      1.0000 0.29010  0.74890  0.81070  Biso   1.000  C
  H53      1.0000 0.28060  0.71430  0.84900  Biso   1.000  H
  C84      1.0000 0.35830  0.83620  0.81860  Biso   1.000  C
  C85      1.0000 0.41770  0.87270  0.88900  Biso   1.000  C
  C86      1.0000 0.37240  0.89310  0.76270  Biso   1.000  C
  H54      1.0000 0.41910  0.95110  0.76860  Biso   1.000  H
  C87      1.0000 0.31500  0.86140  0.69750  Biso   1.000  C
  C88      1.0000 0.32800  0.92530  0.63650  Biso   1.000  C
  C89      1.0000 0.15560  0.55670  0.79520  Biso   1.000  C
  H55      1.0000 0.15600  0.61700  0.82970  Biso   1.000  H
  H56      1.0000 0.09500  0.51800  0.78110  Biso   1.000  H
  C90      1.0000 0.22870  0.46010  0.82680  Biso   1.000  C
  C91      1.0000 0.21730  0.38460  0.87700  Biso   1.000  C
  H57      1.0000 0.16530  0.39500  0.89100  Biso   1.000  H
  C92      1.0000 0.30710  0.44350  0.80900  Biso   1.000  C
  H58      1.0000 0.31690  0.49320  0.77550  Biso   1.000  H
  C93      1.0000 0.27990  0.29500  0.90670  Biso   1.000  C
  H59      1.0000 0.26840  0.24330  0.93880  Biso   1.000  H
  C94      1.0000 0.37200  0.35570  0.83890  Biso   1.000  C
  H60      1.0000 0.42420  0.34690  0.82500  Biso   1.000  H
  C95      1.0000 0.36100  0.28030  0.88930  Biso   1.000  C
  C96      1.0000 0.43270  0.18680  0.92300  Biso   1.000  C
  N4       1.0000 0.16890  0.61940  0.73680  Biso   1.000  N
  O25      1.0000 0.72580  0.80210  0.47420  Biso   1.000  O
  O26      1.0000 0.77480  0.95760  0.54290  Biso   1.000  O
  O27      1.0000 0.30750  0.87250  0.58000  Biso   1.000  O
  O28      1.0000 0.36110  0.03150  0.64360  Biso   1.000  O
  O29      1.0000 0.49310  0.92410  0.89290  Biso   1.000  O
  O30      1.0000 0.38920  0.84730  0.93760  Biso   1.000  O
  O31      1.0000 0.50830  0.18930  0.91190  Biso   1.000  O
  O32      1.0000 0.41300  0.11090  0.96230  Biso   1.000  O
