data_image0
_cell_length_a       12.9836
_cell_length_b       12.9836
_cell_length_c       23.941
_cell_angle_alpha    90
_cell_angle_beta     90
_cell_angle_gamma    94.6835

_symmetry_space_group_name_H-M    P 1
_symmetry_int_tables_number       1

loop_
  _symmetry_equiv_pos_as_xyz
  'x, y, z'

loop_
  _atom_site_label
  _atom_site_occupancy
  _atom_site_fract_x
  _atom_site_fract_y
  _atom_site_fract_z
  _atom_site_thermal_displace_type
  _atom_site_B_iso_or_equiv
  _atom_site_type_symbol
  Zn1      1.0000 0.16145  0.99729  0.39821  Biso   1.000  Zn
  Zn2      1.0000 0.33855  0.50271  0.89821  Biso   1.000  Zn
  Zn3      1.0000 0.49729  0.66145  0.10179  Biso   1.000  Zn
  Zn4      1.0000 0.00271  0.83855  0.60179  Biso   1.000  Zn
  Zn5      1.0000 0.83855  0.00271  0.60179  Biso   1.000  Zn
  Zn6      1.0000 0.66145  0.49729  0.10179  Biso   1.000  Zn
  Zn7      1.0000 0.50271  0.33855  0.89821  Biso   1.000  Zn
  Zn8      1.0000 0.99729  0.16145  0.39821  Biso   1.000  Zn
  Zn9      1.0000 0.18096  0.18096  0.48018  Biso   1.000  Zn
  Zn10     1.0000 0.31904  0.31904  0.98018  Biso   1.000  Zn
  Zn11     1.0000 0.68096  0.68096  0.01982  Biso   1.000  Zn
  Zn12     1.0000 0.81904  0.81904  0.51982  Biso   1.000  Zn
  Zn13     1.0000 0.00000  0.00000  0.50000  Biso   1.000  Zn
  Zn14     1.0000 0.50000  0.50000  0.00000  Biso   1.000  Zn
  H1       1.0000 0.92770  0.65310  0.43610  Biso   1.000  H
  H2       1.0000 0.93010  0.47590  0.42740  Biso   1.000  H
  H3       1.0000 0.26090  0.42250  0.39500  Biso   1.000  H
  H4       1.0000 0.41110  0.52610  0.38200  Biso   1.000  H
  H5       1.0000 0.41050  0.70350  0.39100  Biso   1.000  H
  H6       1.0000 0.25430  0.77470  0.40130  Biso   1.000  H
  H7       1.0000 0.57230  0.84690  0.93610  Biso   1.000  H
  H8       1.0000 0.56990  0.02410  0.92740  Biso   1.000  H
  H9       1.0000 0.23910  0.07750  0.89500  Biso   1.000  H
  H10      1.0000 0.08890  0.97390  0.88200  Biso   1.000  H
  H11      1.0000 0.08950  0.79650  0.89100  Biso   1.000  H
  H12      1.0000 0.24570  0.72530  0.90130  Biso   1.000  H
  H13      1.0000 0.15310  0.42770  0.06390  Biso   1.000  H
  H14      1.0000 0.97590  0.43010  0.07260  Biso   1.000  H
  H15      1.0000 0.92250  0.76090  0.10500  Biso   1.000  H
  H16      1.0000 0.02610  0.91110  0.11800  Biso   1.000  H
  H17      1.0000 0.20350  0.91050  0.10900  Biso   1.000  H
  H18      1.0000 0.27470  0.75430  0.09870  Biso   1.000  H
  H19      1.0000 0.34690  0.07230  0.56390  Biso   1.000  H
  H20      1.0000 0.52410  0.06990  0.57260  Biso   1.000  H
  H21      1.0000 0.57750  0.73910  0.60500  Biso   1.000  H
  H22      1.0000 0.47390  0.58890  0.61800  Biso   1.000  H
  H23      1.0000 0.29650  0.58950  0.60900  Biso   1.000  H
  H24      1.0000 0.22530  0.74570  0.59870  Biso   1.000  H
  H25      1.0000 0.07230  0.34690  0.56390  Biso   1.000  H
  H26      1.0000 0.06990  0.52410  0.57260  Biso   1.000  H
  H27      1.0000 0.73910  0.57750  0.60500  Biso   1.000  H
  H28      1.0000 0.58890  0.47390  0.61800  Biso   1.000  H
  H29      1.0000 0.58950  0.29650  0.60900  Biso   1.000  H
  H30      1.0000 0.74570  0.22530  0.59870  Biso   1.000  H
  H31      1.0000 0.42770  0.15310  0.06390  Biso   1.000  H
  H32      1.0000 0.43010  0.97590  0.07260  Biso   1.000  H
  H33      1.0000 0.76090  0.92250  0.10500  Biso   1.000  H
  H34      1.0000 0.91110  0.02610  0.11800  Biso   1.000  H
  H35      1.0000 0.91050  0.20350  0.10900  Biso   1.000  H
  H36      1.0000 0.75430  0.27470  0.09870  Biso   1.000  H
  H37      1.0000 0.84690  0.57230  0.93610  Biso   1.000  H
  H38      1.0000 0.02410  0.56990  0.92740  Biso   1.000  H
  H39      1.0000 0.07750  0.23910  0.89500  Biso   1.000  H
  H40      1.0000 0.97390  0.08890  0.88200  Biso   1.000  H
  H41      1.0000 0.79650  0.08950  0.89100  Biso   1.000  H
  H42      1.0000 0.72530  0.24570  0.90130  Biso   1.000  H
  H43      1.0000 0.65310  0.92770  0.43610  Biso   1.000  H
  H44      1.0000 0.47590  0.93010  0.42740  Biso   1.000  H
  H45      1.0000 0.42250  0.26090  0.39500  Biso   1.000  H
  H46      1.0000 0.52610  0.41110  0.38200  Biso   1.000  H
  H47      1.0000 0.70350  0.41050  0.39100  Biso   1.000  H
  H48      1.0000 0.77470  0.25430  0.40130  Biso   1.000  H
  H49      1.0000 0.04750  0.04750  0.20310  Biso   1.000  H
  H50      1.0000 0.09370  0.09370  0.11180  Biso   1.000  H
  H51      1.0000 0.35360  0.35360  0.13260  Biso   1.000  H
  H52      1.0000 0.43330  0.43330  0.20750  Biso   1.000  H
  H53      1.0000 0.38370  0.38370  0.29770  Biso   1.000  H
  H54      1.0000 0.25650  0.25650  0.31290  Biso   1.000  H
  H55      1.0000 0.45250  0.45250  0.70310  Biso   1.000  H
  H56      1.0000 0.40630  0.40630  0.61180  Biso   1.000  H
  H57      1.0000 0.14640  0.14640  0.63260  Biso   1.000  H
  H58      1.0000 0.06670  0.06670  0.70750  Biso   1.000  H
  H59      1.0000 0.11630  0.11630  0.79770  Biso   1.000  H
  H60      1.0000 0.24350  0.24350  0.81290  Biso   1.000  H
  H61      1.0000 0.54750  0.54750  0.29690  Biso   1.000  H
  H62      1.0000 0.59370  0.59370  0.38820  Biso   1.000  H
  H63      1.0000 0.85360  0.85360  0.36740  Biso   1.000  H
  H64      1.0000 0.93330  0.93330  0.29250  Biso   1.000  H
  H65      1.0000 0.88370  0.88370  0.20230  Biso   1.000  H
  H66      1.0000 0.75650  0.75650  0.18710  Biso   1.000  H
  H67      1.0000 0.95250  0.95250  0.79690  Biso   1.000  H
  H68      1.0000 0.90630  0.90630  0.88820  Biso   1.000  H
  H69      1.0000 0.64640  0.64640  0.86740  Biso   1.000  H
  H70      1.0000 0.56670  0.56670  0.79250  Biso   1.000  H
  H71      1.0000 0.61630  0.61630  0.70230  Biso   1.000  H
  H72      1.0000 0.74350  0.74350  0.68710  Biso   1.000  H
  C1       1.0000 0.07850  0.68850  0.43060  Biso   1.000  C
  C2       1.0000 0.99090  0.62470  0.43220  Biso   1.000  C
  C3       1.0000 0.99210  0.51730  0.42830  Biso   1.000  C
  C4       1.0000 0.08460  0.47260  0.42570  Biso   1.000  C
  C5       1.0000 0.17960  0.53660  0.42640  Biso   1.000  C
  C6       1.0000 0.26400  0.49280  0.40300  Biso   1.000  C
  C7       1.0000 0.35060  0.55500  0.39220  Biso   1.000  C
  C8       1.0000 0.34980  0.66140  0.39610  Biso   1.000  C
  C9       1.0000 0.25890  0.70450  0.40760  Biso   1.000  C
  C10      1.0000 0.17640  0.64660  0.42800  Biso   1.000  C
  C11      1.0000 0.07100  0.80260  0.43100  Biso   1.000  C
  C12      1.0000 0.07920  0.35640  0.42470  Biso   1.000  C
  C13      1.0000 0.42150  0.81150  0.93060  Biso   1.000  C
  C14      1.0000 0.50910  0.87530  0.93220  Biso   1.000  C
  C15      1.0000 0.50790  0.98270  0.92830  Biso   1.000  C
  C16      1.0000 0.41540  0.02740  0.92570  Biso   1.000  C
  C17      1.0000 0.32040  0.96340  0.92640  Biso   1.000  C
  C18      1.0000 0.23600  0.00720  0.90300  Biso   1.000  C
  C19      1.0000 0.14940  0.94500  0.89220  Biso   1.000  C
  C20      1.0000 0.15020  0.83860  0.89610  Biso   1.000  C
  C21      1.0000 0.24110  0.79550  0.90760  Biso   1.000  C
  C22      1.0000 0.32360  0.85340  0.92800  Biso   1.000  C
  C23      1.0000 0.42900  0.69740  0.93100  Biso   1.000  C
  C24      1.0000 0.42080  0.14360  0.92470  Biso   1.000  C
  C25      1.0000 0.18850  0.57850  0.06940  Biso   1.000  C
  C26      1.0000 0.12470  0.49090  0.06780  Biso   1.000  C
  C27      1.0000 0.01730  0.49210  0.07170  Biso   1.000  C
  C28      1.0000 0.97260  0.58460  0.07430  Biso   1.000  C
  C29      1.0000 0.03660  0.67960  0.07360  Biso   1.000  C
  C30      1.0000 0.99280  0.76400  0.09700  Biso   1.000  C
  C31      1.0000 0.05500  0.85060  0.10780  Biso   1.000  C
  C32      1.0000 0.16140  0.84980  0.10390  Biso   1.000  C
  C33      1.0000 0.20450  0.75890  0.09240  Biso   1.000  C
  C34      1.0000 0.14660  0.67640  0.07200  Biso   1.000  C
  C35      1.0000 0.30260  0.57100  0.06900  Biso   1.000  C
  C36      1.0000 0.85640  0.57920  0.07530  Biso   1.000  C
  C37      1.0000 0.31150  0.92150  0.56940  Biso   1.000  C
  C38      1.0000 0.37530  0.00910  0.56780  Biso   1.000  C
  C39      1.0000 0.48270  0.00790  0.57170  Biso   1.000  C
  C40      1.0000 0.52740  0.91540  0.57430  Biso   1.000  C
  C41      1.0000 0.46340  0.82040  0.57360  Biso   1.000  C
  C42      1.0000 0.50720  0.73600  0.59700  Biso   1.000  C
  C43      1.0000 0.44500  0.64940  0.60780  Biso   1.000  C
  C44      1.0000 0.33860  0.65020  0.60390  Biso   1.000  C
  C45      1.0000 0.29550  0.74110  0.59240  Biso   1.000  C
  C46      1.0000 0.35340  0.82360  0.57200  Biso   1.000  C
  C47      1.0000 0.19740  0.92900  0.56900  Biso   1.000  C
  C48      1.0000 0.64360  0.92080  0.57530  Biso   1.000  C
  C49      1.0000 0.92150  0.31150  0.56940  Biso   1.000  C
  C50      1.0000 0.00910  0.37530  0.56780  Biso   1.000  C
  C51      1.0000 0.00790  0.48270  0.57170  Biso   1.000  C
  C52      1.0000 0.91540  0.52740  0.57430  Biso   1.000  C
  C53      1.0000 0.82040  0.46340  0.57360  Biso   1.000  C
  C54      1.0000 0.73600  0.50720  0.59700  Biso   1.000  C
  C55      1.0000 0.64940  0.44500  0.60780  Biso   1.000  C
  C56      1.0000 0.65020  0.33860  0.60390  Biso   1.000  C
  C57      1.0000 0.74110  0.29550  0.59240  Biso   1.000  C
  C58      1.0000 0.82360  0.35340  0.57200  Biso   1.000  C
  C59      1.0000 0.92900  0.19740  0.56900  Biso   1.000  C
  C60      1.0000 0.92080  0.64360  0.57530  Biso   1.000  C
  C61      1.0000 0.57850  0.18850  0.06940  Biso   1.000  C
  C62      1.0000 0.49090  0.12470  0.06780  Biso   1.000  C
  C63      1.0000 0.49210  0.01730  0.07170  Biso   1.000  C
  C64      1.0000 0.58460  0.97260  0.07430  Biso   1.000  C
  C65      1.0000 0.67960  0.03660  0.07360  Biso   1.000  C
  C66      1.0000 0.76400  0.99280  0.09700  Biso   1.000  C
  C67      1.0000 0.85060  0.05500  0.10780  Biso   1.000  C
  C68      1.0000 0.84980  0.16140  0.10390  Biso   1.000  C
  C69      1.0000 0.75890  0.20450  0.09240  Biso   1.000  C
  C70      1.0000 0.67640  0.14660  0.07200  Biso   1.000  C
  C71      1.0000 0.57100  0.30260  0.06900  Biso   1.000  C
  C72      1.0000 0.57920  0.85640  0.07530  Biso   1.000  C
  C73      1.0000 0.81150  0.42150  0.93060  Biso   1.000  C
  C74      1.0000 0.87530  0.50910  0.93220  Biso   1.000  C
  C75      1.0000 0.98270  0.50790  0.92830  Biso   1.000  C
  C76      1.0000 0.02740  0.41540  0.92570  Biso   1.000  C
  C77      1.0000 0.96340  0.32040  0.92640  Biso   1.000  C
  C78      1.0000 0.00720  0.23600  0.90300  Biso   1.000  C
  C79      1.0000 0.94500  0.14940  0.89220  Biso   1.000  C
  C80      1.0000 0.83860  0.15020  0.89610  Biso   1.000  C
  C81      1.0000 0.79550  0.24110  0.90760  Biso   1.000  C
  C82      1.0000 0.85340  0.32360  0.92800  Biso   1.000  C
  C83      1.0000 0.69740  0.42900  0.93100  Biso   1.000  C
  C84      1.0000 0.14360  0.42080  0.92470  Biso   1.000  C
  C85      1.0000 0.68850  0.07850  0.43060  Biso   1.000  C
  C86      1.0000 0.62470  0.99090  0.43220  Biso   1.000  C
  C87      1.0000 0.51730  0.99210  0.42830  Biso   1.000  C
  C88      1.0000 0.47260  0.08460  0.42570  Biso   1.000  C
  C89      1.0000 0.53660  0.17960  0.42640  Biso   1.000  C
  C90      1.0000 0.49280  0.26400  0.40300  Biso   1.000  C
  C91      1.0000 0.55500  0.35060  0.39220  Biso   1.000  C
  C92      1.0000 0.66140  0.34980  0.39610  Biso   1.000  C
  C93      1.0000 0.70450  0.25890  0.40760  Biso   1.000  C
  C94      1.0000 0.64660  0.17640  0.42800  Biso   1.000  C
  C95      1.0000 0.80260  0.07100  0.43100  Biso   1.000  C
  C96      1.0000 0.35640  0.07920  0.42470  Biso   1.000  C
  C97      1.0000 0.14650  0.14650  0.23920  Biso   1.000  C
  C98      1.0000 0.09960  0.09960  0.19680  Biso   1.000  C
  C99      1.0000 0.12780  0.12780  0.14140  Biso   1.000  C
  C100     1.0000 0.20310  0.20310  0.13080  Biso   1.000  C
  C101     1.0000 0.25360  0.25360  0.17460  Biso   1.000  C
  C102     1.0000 0.33310  0.33310  0.16840  Biso   1.000  C
  C103     1.0000 0.38100  0.38100  0.21290  Biso   1.000  C
  C104     1.0000 0.35070  0.35070  0.26730  Biso   1.000  C
  C105     1.0000 0.27520  0.27520  0.27660  Biso   1.000  C
  C106     1.0000 0.22450  0.22450  0.23080  Biso   1.000  C
  C107     1.0000 0.11470  0.11470  0.29830  Biso   1.000  C
  C108     1.0000 0.22290  0.22290  0.06880  Biso   1.000  C
  C109     1.0000 0.35350  0.35350  0.73920  Biso   1.000  C
  C110     1.0000 0.40040  0.40040  0.69680  Biso   1.000  C
  C111     1.0000 0.37220  0.37220  0.64140  Biso   1.000  C
  C112     1.0000 0.29690  0.29690  0.63080  Biso   1.000  C
  C113     1.0000 0.24640  0.24640  0.67460  Biso   1.000  C
  C114     1.0000 0.16690  0.16690  0.66840  Biso   1.000  C
  C115     1.0000 0.11900  0.11900  0.71290  Biso   1.000  C
  C116     1.0000 0.14930  0.14930  0.76730  Biso   1.000  C
  C117     1.0000 0.22480  0.22480  0.77660  Biso   1.000  C
  C118     1.0000 0.27550  0.27550  0.73080  Biso   1.000  C
  C119     1.0000 0.38530  0.38530  0.79830  Biso   1.000  C
  C120     1.0000 0.27710  0.27710  0.56880  Biso   1.000  C
  C121     1.0000 0.64650  0.64650  0.26080  Biso   1.000  C
  C122     1.0000 0.59960  0.59960  0.30320  Biso   1.000  C
  C123     1.0000 0.62780  0.62780  0.35860  Biso   1.000  C
  C124     1.0000 0.70310  0.70310  0.36920  Biso   1.000  C
  C125     1.0000 0.75360  0.75360  0.32540  Biso   1.000  C
  C126     1.0000 0.83310  0.83310  0.33160  Biso   1.000  C
  C127     1.0000 0.88100  0.88100  0.28710  Biso   1.000  C
  C128     1.0000 0.85070  0.85070  0.23270  Biso   1.000  C
  C129     1.0000 0.77520  0.77520  0.22340  Biso   1.000  C
  C130     1.0000 0.72450  0.72450  0.26920  Biso   1.000  C
  C131     1.0000 0.61470  0.61470  0.20170  Biso   1.000  C
  C132     1.0000 0.72290  0.72290  0.43120  Biso   1.000  C
  C133     1.0000 0.85350  0.85350  0.76080  Biso   1.000  C
  C134     1.0000 0.90040  0.90040  0.80320  Biso   1.000  C
  C135     1.0000 0.87220  0.87220  0.85860  Biso   1.000  C
  C136     1.0000 0.79690  0.79690  0.86920  Biso   1.000  C
  C137     1.0000 0.74640  0.74640  0.82540  Biso   1.000  C
  C138     1.0000 0.66690  0.66690  0.83160  Biso   1.000  C
  C139     1.0000 0.61900  0.61900  0.78710  Biso   1.000  C
  C140     1.0000 0.64930  0.64930  0.73270  Biso   1.000  C
  C141     1.0000 0.72480  0.72480  0.72340  Biso   1.000  C
  C142     1.0000 0.77550  0.77550  0.76920  Biso   1.000  C
  C143     1.0000 0.88530  0.88530  0.70170  Biso   1.000  C
  C144     1.0000 0.77710  0.77710  0.93120  Biso   1.000  C
  O1       1.0000 0.01927  0.84141  0.46659  Biso   1.000  O
  O2       1.0000 0.11912  0.85244  0.39194  Biso   1.000  O
  O3       1.0000 0.15425  0.31179  0.44051  Biso   1.000  O
  O4       1.0000 0.99570  0.31050  0.40740  Biso   1.000  O
  O5       1.0000 0.15920  0.04400  0.31940  Biso   1.000  O
  O6       1.0000 0.48073  0.65859  0.96659  Biso   1.000  O
  O7       1.0000 0.38088  0.64756  0.89194  Biso   1.000  O
  O8       1.0000 0.34575  0.18821  0.94051  Biso   1.000  O
  O9       1.0000 0.50430  0.18950  0.90740  Biso   1.000  O
  O10      1.0000 0.34080  0.45600  0.81940  Biso   1.000  O
  O11      1.0000 0.34141  0.51927  0.03341  Biso   1.000  O
  O12      1.0000 0.35244  0.61912  0.10806  Biso   1.000  O
  O13      1.0000 0.81179  0.65425  0.05949  Biso   1.000  O
  O14      1.0000 0.81050  0.49570  0.09260  Biso   1.000  O
  O15      1.0000 0.54400  0.65920  0.18060  Biso   1.000  O
  O16      1.0000 0.15859  0.98073  0.53341  Biso   1.000  O
  O17      1.0000 0.14756  0.88088  0.60806  Biso   1.000  O
  O18      1.0000 0.68821  0.84575  0.55949  Biso   1.000  O
  O19      1.0000 0.68950  0.00430  0.59260  Biso   1.000  O
  O20      1.0000 0.95600  0.84080  0.68060  Biso   1.000  O
  O21      1.0000 0.98073  0.15859  0.53341  Biso   1.000  O
  O22      1.0000 0.88088  0.14756  0.60806  Biso   1.000  O
  O23      1.0000 0.84575  0.68821  0.55949  Biso   1.000  O
  O24      1.0000 0.00430  0.68950  0.59260  Biso   1.000  O
  O25      1.0000 0.84080  0.95600  0.68060  Biso   1.000  O
  O26      1.0000 0.51927  0.34141  0.03341  Biso   1.000  O
  O27      1.0000 0.61912  0.35244  0.10806  Biso   1.000  O
  O28      1.0000 0.65425  0.81179  0.05949  Biso   1.000  O
  O29      1.0000 0.49570  0.81050  0.09260  Biso   1.000  O
  O30      1.0000 0.65920  0.54400  0.18060  Biso   1.000  O
  O31      1.0000 0.65859  0.48073  0.96659  Biso   1.000  O
  O32      1.0000 0.64756  0.38088  0.89194  Biso   1.000  O
  O33      1.0000 0.18821  0.34575  0.94051  Biso   1.000  O
  O34      1.0000 0.18950  0.50430  0.90740  Biso   1.000  O
  O35      1.0000 0.45600  0.34080  0.81940  Biso   1.000  O
  O36      1.0000 0.84141  0.01927  0.46659  Biso   1.000  O
  O37      1.0000 0.85244  0.11912  0.39194  Biso   1.000  O
  O38      1.0000 0.31179  0.15425  0.44051  Biso   1.000  O
  O39      1.0000 0.31050  0.99570  0.40740  Biso   1.000  O
  O40      1.0000 0.04400  0.15920  0.31940  Biso   1.000  O
  O41      1.0000 0.17160  0.17160  0.03530  Biso   1.000  O
  O42      1.0000 0.29100  0.29100  0.05639  Biso   1.000  O
  O43      1.0000 0.08166  0.08166  0.44388  Biso   1.000  O
  O44      1.0000 0.32840  0.32840  0.53530  Biso   1.000  O
  O45      1.0000 0.20900  0.20900  0.55639  Biso   1.000  O
  O46      1.0000 0.41834  0.41834  0.94388  Biso   1.000  O
  O47      1.0000 0.67160  0.67160  0.46470  Biso   1.000  O
  O48      1.0000 0.79100  0.79100  0.44361  Biso   1.000  O
  O49      1.0000 0.58166  0.58166  0.05612  Biso   1.000  O
  O50      1.0000 0.82840  0.82840  0.96470  Biso   1.000  O
  O51      1.0000 0.70900  0.70900  0.94361  Biso   1.000  O
  O52      1.0000 0.91834  0.91834  0.55612  Biso   1.000  O
