data_image0
_cell_length_a       6.685
_cell_length_b       9.905
_cell_length_c       20.666
_cell_angle_alpha    90
_cell_angle_beta     91.91
_cell_angle_gamma    90

_symmetry_space_group_name_H-M    P 1
_symmetry_int_tables_number       1

loop_
  _symmetry_equiv_pos_as_xyz
  'x, y, z'

loop_
  _atom_site_label
  _atom_site_occupancy
  _atom_site_fract_x
  _atom_site_fract_y
  _atom_site_fract_z
  _atom_site_thermal_displace_type
  _atom_site_B_iso_or_equiv
  _atom_site_type_symbol
  Cu1      1.0000 0.32665  0.29581  0.72117  Biso   1.000  Cu
  Cu2      1.0000 0.67335  0.79581  0.77883  Biso   1.000  Cu
  Cu3      1.0000 0.67335  0.70419  0.27883  Biso   1.000  Cu
  Cu4      1.0000 0.32665  0.20419  0.22117  Biso   1.000  Cu
  Cu5      1.0000 0.00000  0.00000  0.00000  Biso   1.000  Cu
  Cu6      1.0000 0.00000  0.50000  0.50000  Biso   1.000  Cu
  H1       1.0000 0.89570  0.05490  0.73650  Biso   1.000  H
  H2       1.0000 0.98800  0.22830  0.94620  Biso   1.000  H
  H3       1.0000 0.18550  0.17090  0.93450  Biso   1.000  H
  H4       1.0000 0.42560  0.75680  0.65750  Biso   1.000  H
  H5       1.0000 0.09520  0.16670  0.64470  Biso   1.000  H
  H6       1.0000 0.27280  0.20130  0.60860  Biso   1.000  H
  H7       1.0000 0.10430  0.55490  0.76350  Biso   1.000  H
  H8       1.0000 0.01200  0.72830  0.55380  Biso   1.000  H
  H9       1.0000 0.81450  0.67090  0.56550  Biso   1.000  H
  H10      1.0000 0.57440  0.25680  0.84250  Biso   1.000  H
  H11      1.0000 0.90480  0.66670  0.85530  Biso   1.000  H
  H12      1.0000 0.72720  0.70130  0.89140  Biso   1.000  H
  H13      1.0000 0.10430  0.94510  0.26350  Biso   1.000  H
  H14      1.0000 0.01200  0.77170  0.05380  Biso   1.000  H
  H15      1.0000 0.81450  0.82910  0.06550  Biso   1.000  H
  H16      1.0000 0.57440  0.24320  0.34250  Biso   1.000  H
  H17      1.0000 0.90480  0.83330  0.35530  Biso   1.000  H
  H18      1.0000 0.72720  0.79870  0.39140  Biso   1.000  H
  H19      1.0000 0.89570  0.44510  0.23650  Biso   1.000  H
  H20      1.0000 0.98800  0.27170  0.44620  Biso   1.000  H
  H21      1.0000 0.18550  0.32910  0.43450  Biso   1.000  H
  H22      1.0000 0.42560  0.74320  0.15750  Biso   1.000  H
  H23      1.0000 0.09520  0.33330  0.14470  Biso   1.000  H
  H24      1.0000 0.27280  0.29870  0.10860  Biso   1.000  H
  C1       1.0000 0.88600  0.97740  0.87560  Biso   1.000  C
  C2       1.0000 0.99800  0.14900  0.81380  Biso   1.000  C
  C3       1.0000 0.43140  0.03120  0.71760  Biso   1.000  C
  C4       1.0000 0.30140  0.92410  0.62800  Biso   1.000  C
  C5       1.0000 0.11400  0.47740  0.62440  Biso   1.000  C
  C6       1.0000 0.00200  0.64900  0.68620  Biso   1.000  C
  C7       1.0000 0.56860  0.53120  0.78240  Biso   1.000  C
  C8       1.0000 0.69860  0.42410  0.87200  Biso   1.000  C
  C9       1.0000 0.11400  0.02260  0.12440  Biso   1.000  C
  C10      1.0000 0.00200  0.85100  0.18620  Biso   1.000  C
  C11      1.0000 0.56860  0.96880  0.28240  Biso   1.000  C
  C12      1.0000 0.69860  0.07590  0.37200  Biso   1.000  C
  C13      1.0000 0.88600  0.52260  0.37560  Biso   1.000  C
  C14      1.0000 0.99800  0.35100  0.31380  Biso   1.000  C
  C15      1.0000 0.43140  0.46880  0.21760  Biso   1.000  C
  C16      1.0000 0.30140  0.57590  0.12800  Biso   1.000  C
  N1       1.0000 0.90700  0.05220  0.77810  Biso   1.000  N
  N2       1.0000 0.83240  0.94640  0.81520  Biso   1.000  N
  N3       1.0000 0.98060  0.10000  0.87610  Biso   1.000  N
  N4       1.0000 0.05390  0.15260  0.93570  Biso   1.000  N
  N5       1.0000 0.40990  0.84100  0.66590  Biso   1.000  N
  N6       1.0000 0.49610  0.90420  0.72110  Biso   1.000  N
  N7       1.0000 0.31320  0.04430  0.66190  Biso   1.000  N
  N8       1.0000 0.22970  0.17120  0.64680  Biso   1.000  N
  N9       1.0000 0.09300  0.55220  0.72190  Biso   1.000  N
  N10      1.0000 0.16760  0.44640  0.68480  Biso   1.000  N
  N11      1.0000 0.01940  0.60000  0.62390  Biso   1.000  N
  N12      1.0000 0.94610  0.65260  0.56430  Biso   1.000  N
  N13      1.0000 0.59010  0.34100  0.83410  Biso   1.000  N
  N14      1.0000 0.50390  0.40420  0.77890  Biso   1.000  N
  N15      1.0000 0.68680  0.54430  0.83810  Biso   1.000  N
  N16      1.0000 0.77030  0.67120  0.85320  Biso   1.000  N
  N17      1.0000 0.09300  0.94780  0.22190  Biso   1.000  N
  N18      1.0000 0.16760  0.05360  0.18480  Biso   1.000  N
  N19      1.0000 0.01940  0.90000  0.12390  Biso   1.000  N
  N20      1.0000 0.94610  0.84740  0.06430  Biso   1.000  N
  N21      1.0000 0.59010  0.15900  0.33410  Biso   1.000  N
  N22      1.0000 0.50390  0.09580  0.27890  Biso   1.000  N
  N23      1.0000 0.68680  0.95570  0.33810  Biso   1.000  N
  N24      1.0000 0.77030  0.82880  0.35320  Biso   1.000  N
  N25      1.0000 0.90700  0.44780  0.27810  Biso   1.000  N
  N26      1.0000 0.83240  0.55360  0.31520  Biso   1.000  N
  N27      1.0000 0.98060  0.40000  0.37610  Biso   1.000  N
  N28      1.0000 0.05390  0.34740  0.43570  Biso   1.000  N
  N29      1.0000 0.40990  0.65900  0.16590  Biso   1.000  N
  N30      1.0000 0.49610  0.59580  0.22110  Biso   1.000  N
  N31      1.0000 0.31320  0.45570  0.16190  Biso   1.000  N
  N32      1.0000 0.22970  0.32880  0.14680  Biso   1.000  N
  O1       1.0000 0.85900  0.91040  0.92676  Biso   1.000  O
  O2       1.0000 0.07760  0.25580  0.79733  Biso   1.000  O
  O3       1.0000 0.46440  0.13070  0.75395  Biso   1.000  O
  O4       1.0000 0.21210  0.90320  0.57611  Biso   1.000  O
  O5       1.0000 0.14100  0.41040  0.57324  Biso   1.000  O
  O6       1.0000 0.92240  0.75580  0.70267  Biso   1.000  O
  O7       1.0000 0.53560  0.63070  0.74605  Biso   1.000  O
  O8       1.0000 0.78790  0.40320  0.92389  Biso   1.000  O
  O9       1.0000 0.14100  0.08960  0.07324  Biso   1.000  O
  O10      1.0000 0.92240  0.74420  0.20267  Biso   1.000  O
  O11      1.0000 0.53560  0.86930  0.24605  Biso   1.000  O
  O12      1.0000 0.78790  0.09680  0.42389  Biso   1.000  O
  O13      1.0000 0.85900  0.58960  0.42676  Biso   1.000  O
  O14      1.0000 0.07760  0.24420  0.29733  Biso   1.000  O
  O15      1.0000 0.46440  0.36930  0.25395  Biso   1.000  O
  O16      1.0000 0.21210  0.59680  0.07611  Biso   1.000  O
