data_image0
_cell_length_a       5.0919
_cell_length_b       9.2528
_cell_length_c       12.74
_cell_angle_alpha    73.82
_cell_angle_beta     84.58
_cell_angle_gamma    74.13

_symmetry_space_group_name_H-M    "P 1"
_symmetry_int_tables_number       1

loop_
  _symmetry_equiv_pos_as_xyz
  'x, y, z'

loop_
  _atom_site_label
  _atom_site_occupancy
  _atom_site_fract_x
  _atom_site_fract_y
  _atom_site_fract_z
  _atom_site_thermal_displace_type
  _atom_site_B_iso_or_equiv
  _atom_site_type_symbol
  Al1      1.0000 0.96210  0.71020  0.15408  Biso   1.000  Al
  Al2      1.0000 0.28480  0.03290  0.40222  Biso   1.000  Al
  Al3      1.0000 0.78270  0.27770  0.12020  Biso   1.000  Al
  Al4      1.0000 0.46180  0.95840  0.86765  Biso   1.000  Al
  P1       1.0000 0.87230  0.04910  0.97186  Biso   1.000  P
  P2       1.0000 0.36110  0.10090  0.61810  Biso   1.000  P
  P3       1.0000 0.21010  0.35070  0.23563  Biso   1.000  P
  P4       1.0000 0.53090  0.63780  0.03584  Biso   1.000  P
  P5       1.0000 0.87870  0.94090  0.29806  Biso   1.000  P
  O1       1.0000 0.33810  0.00620  0.53990  Biso   1.000  O
  O2       1.0000 0.41360  0.98460  0.73110  Biso   1.000  O
  O3       1.0000 0.04920  0.92900  0.39570  Biso   1.000  O
  O4       1.0000 0.70070  0.05850  0.87620  Biso   1.000  O
  O5       1.0000 0.65520  0.66240  0.13070  Biso   1.000  O
  O6       1.0000 0.16770  0.04560  0.93160  Biso   1.000  O
  O7       1.0000 0.56960  0.76050  0.92770  Biso   1.000  O
  O8       1.0000 0.08500  0.32730  0.13920  Biso   1.000  O
  O9       1.0000 0.58310  0.95690  0.33850  Biso   1.000  O
  O10      1.0000 0.16380  0.23270  0.34250  Biso   1.000  O
  O11      1.0000 0.51600  0.32860  0.21580  Biso   1.000  O
  O12      1.0000 0.22580  0.65630  0.05860  Biso   1.000  O
  O13      1.0000 0.85200  0.90920  0.06200  Biso   1.000  O
  O14      1.0000 0.90970  0.07940  0.20610  Biso   1.000  O
  O15      1.0000 0.56830  0.19210  0.58490  Biso   1.000  O
  O16      1.0000 0.97880  0.78790  0.26550  Biso   1.000  O
  O17      1.0000 0.08090  0.51170  0.25420  Biso   1.000  O
  O18      1.0000 0.66430  0.47830  0.01520  Biso   1.000  O
  O19      1.0000 0.76230  0.20340  0.00420  Biso   1.000  O
  O20      1.0000 0.07080  0.22040  0.62160  Biso   1.000  O
