data_image0
_cell_length_a       13.0133
_cell_length_b       13.0133
_cell_length_c       13.922
_cell_angle_alpha    106.373
_cell_angle_beta     106.373
_cell_angle_gamma    91.2734

_symmetry_space_group_name_H-M    P 1
_symmetry_int_tables_number       1

loop_
  _symmetry_equiv_pos_as_xyz
  'x, y, z'

loop_
  _atom_site_label
  _atom_site_occupancy
  _atom_site_fract_x
  _atom_site_fract_y
  _atom_site_fract_z
  _atom_site_thermal_displace_type
  _atom_site_B_iso_or_equiv
  _atom_site_type_symbol
  Zn1      1.0000 0.18750  0.86678  0.86662  Biso   1.000  Zn
  Zn2      1.0000 0.13322  0.81250  0.63338  Biso   1.000  Zn
  H1       1.0000 0.53710  0.89930  0.93870  Biso   1.000  H
  H2       1.0000 0.71540  0.89920  0.95120  Biso   1.000  H
  H3       1.0000 0.45570  0.80770  0.62250  Biso   1.000  H
  H4       1.0000 0.85890  0.86090  0.86150  Biso   1.000  H
  H5       1.0000 0.04700  0.92400  0.99670  Biso   1.000  H
  H6       1.0000 0.01960  0.91060  0.14840  Biso   1.000  H
  H7       1.0000 0.30930  0.79870  0.22080  Biso   1.000  H
  H8       1.0000 0.40670  0.87270  0.05050  Biso   1.000  H
  H9       1.0000 0.41670  0.77950  0.10600  Biso   1.000  H
  H10      1.0000 0.34990  0.75330  0.98460  Biso   1.000  H
  H11      1.0000 0.78000  0.78580  0.54640  Biso   1.000  H
  H12      1.0000 0.59830  0.78650  0.53550  Biso   1.000  H
  H13      1.0000 0.10070  0.46290  0.56130  Biso   1.000  H
  H14      1.0000 0.10080  0.28460  0.54880  Biso   1.000  H
  H15      1.0000 0.19230  0.54430  0.87750  Biso   1.000  H
  H16      1.0000 0.13910  0.14110  0.63850  Biso   1.000  H
  H17      1.0000 0.07600  0.95300  0.50330  Biso   1.000  H
  H18      1.0000 0.08940  0.98040  0.35160  Biso   1.000  H
  H19      1.0000 0.20130  0.69070  0.27920  Biso   1.000  H
  H20      1.0000 0.12730  0.59330  0.44950  Biso   1.000  H
  H21      1.0000 0.22050  0.58330  0.39400  Biso   1.000  H
  H22      1.0000 0.24670  0.65010  0.51540  Biso   1.000  H
  H23      1.0000 0.21420  0.22000  0.95360  Biso   1.000  H
  H24      1.0000 0.21350  0.40170  0.96450  Biso   1.000  H
  C1       1.0000 0.36120  0.84980  0.77070  Biso   1.000  C
  C2       1.0000 0.47790  0.85170  0.77780  Biso   1.000  C
  C3       1.0000 0.55810  0.87990  0.87640  Biso   1.000  C
  C4       1.0000 0.66320  0.87960  0.88390  Biso   1.000  C
  C5       1.0000 0.50910  0.82530  0.68900  Biso   1.000  C
  C6       1.0000 0.69710  0.85050  0.79250  Biso   1.000  C
  C7       1.0000 0.80540  0.84800  0.79550  Biso   1.000  C
  C8       1.0000 0.10120  0.89820  0.04300  Biso   1.000  C
  C9       1.0000 0.08420  0.89060  0.13280  Biso   1.000  C
  C10      1.0000 0.16260  0.85300  0.20140  Biso   1.000  C
  C11      1.0000 0.25490  0.82530  0.17550  Biso   1.000  C
  C12      1.0000 0.26890  0.83610  0.08330  Biso   1.000  C
  C13      1.0000 0.36930  0.80790  0.05350  Biso   1.000  C
  C14      1.0000 0.83690  0.82750  0.70670  Biso   1.000  C
  C15      1.0000 0.95450  0.83070  0.71420  Biso   1.000  C
  C16      1.0000 0.75890  0.80250  0.60860  Biso   1.000  C
  C17      1.0000 0.65080  0.80200  0.60230  Biso   1.000  C
  C18      1.0000 0.61730  0.82390  0.69330  Biso   1.000  C
  C19      1.0000 0.15020  0.63880  0.72930  Biso   1.000  C
  C20      1.0000 0.14830  0.52210  0.72220  Biso   1.000  C
  C21      1.0000 0.12010  0.44190  0.62360  Biso   1.000  C
  C22      1.0000 0.12040  0.33680  0.61610  Biso   1.000  C
  C23      1.0000 0.17470  0.49090  0.81100  Biso   1.000  C
  C24      1.0000 0.14950  0.30290  0.70750  Biso   1.000  C
  C25      1.0000 0.15200  0.19460  0.70450  Biso   1.000  C
  C26      1.0000 0.10180  0.89880  0.45700  Biso   1.000  C
  C27      1.0000 0.10940  0.91580  0.36720  Biso   1.000  C
  C28      1.0000 0.14700  0.83740  0.29860  Biso   1.000  C
  C29      1.0000 0.17470  0.74510  0.32450  Biso   1.000  C
  C30      1.0000 0.16390  0.73110  0.41670  Biso   1.000  C
  C31      1.0000 0.19210  0.63070  0.44650  Biso   1.000  C
  C32      1.0000 0.17250  0.16310  0.79330  Biso   1.000  C
  C33      1.0000 0.16930  0.04550  0.78580  Biso   1.000  C
  C34      1.0000 0.19750  0.24110  0.89140  Biso   1.000  C
  C35      1.0000 0.19800  0.34920  0.89770  Biso   1.000  C
  C36      1.0000 0.17610  0.38270  0.80670  Biso   1.000  C
  N1       1.0000 0.19110  0.87090  0.01590  Biso   1.000  N
  N2       1.0000 0.12910  0.80890  0.48410  Biso   1.000  N
  O1       1.0000 0.33651  0.88889  0.85460  Biso   1.000  O
  O2       1.0000 0.29480  0.80800  0.68110  Biso   1.000  O
  O3       1.0000 0.97768  0.83032  0.63190  Biso   1.000  O
  O4       1.0000 0.02120  0.83560  0.80120  Biso   1.000  O
  O5       1.0000 0.11111  0.66349  0.64540  Biso   1.000  O
  O6       1.0000 0.19200  0.70520  0.81890  Biso   1.000  O
  O7       1.0000 0.16968  0.02232  0.86810  Biso   1.000  O
  O8       1.0000 0.16440  0.97880  0.69880  Biso   1.000  O
  Zn3      1.0000 0.81250  0.13322  0.13338  Biso   1.000  Zn
  Zn4      1.0000 0.86678  0.18750  0.36662  Biso   1.000  Zn
  H25      1.0000 0.46290  0.10070  0.06130  Biso   1.000  H
  H26      1.0000 0.28460  0.10080  0.04880  Biso   1.000  H
  H27      1.0000 0.54430  0.19230  0.37750  Biso   1.000  H
  H28      1.0000 0.14110  0.13910  0.13850  Biso   1.000  H
  H29      1.0000 0.95300  0.07600  0.00330  Biso   1.000  H
  H30      1.0000 0.98040  0.08940  0.85160  Biso   1.000  H
  H31      1.0000 0.69070  0.20130  0.77920  Biso   1.000  H
  H32      1.0000 0.59330  0.12730  0.94950  Biso   1.000  H
  H33      1.0000 0.58330  0.22050  0.89400  Biso   1.000  H
  H34      1.0000 0.65010  0.24670  0.01540  Biso   1.000  H
  H35      1.0000 0.22000  0.21420  0.45360  Biso   1.000  H
  H36      1.0000 0.40170  0.21350  0.46450  Biso   1.000  H
  H37      1.0000 0.89930  0.53710  0.43870  Biso   1.000  H
  H38      1.0000 0.89920  0.71540  0.45120  Biso   1.000  H
  H39      1.0000 0.80770  0.45570  0.12250  Biso   1.000  H
  H40      1.0000 0.86090  0.85890  0.36150  Biso   1.000  H
  H41      1.0000 0.92400  0.04700  0.49670  Biso   1.000  H
  H42      1.0000 0.91060  0.01960  0.64840  Biso   1.000  H
  H43      1.0000 0.79870  0.30930  0.72080  Biso   1.000  H
  H44      1.0000 0.87270  0.40670  0.55050  Biso   1.000  H
  H45      1.0000 0.77950  0.41670  0.60600  Biso   1.000  H
  H46      1.0000 0.75330  0.34990  0.48460  Biso   1.000  H
  H47      1.0000 0.78580  0.78000  0.04640  Biso   1.000  H
  H48      1.0000 0.78650  0.59830  0.03550  Biso   1.000  H
  C37      1.0000 0.63880  0.15020  0.22930  Biso   1.000  C
  C38      1.0000 0.52210  0.14830  0.22220  Biso   1.000  C
  C39      1.0000 0.44190  0.12010  0.12360  Biso   1.000  C
  C40      1.0000 0.33680  0.12040  0.11610  Biso   1.000  C
  C41      1.0000 0.49090  0.17470  0.31100  Biso   1.000  C
  C42      1.0000 0.30290  0.14950  0.20750  Biso   1.000  C
  C43      1.0000 0.19460  0.15200  0.20450  Biso   1.000  C
  C44      1.0000 0.89880  0.10180  0.95700  Biso   1.000  C
  C45      1.0000 0.91580  0.10940  0.86720  Biso   1.000  C
  C46      1.0000 0.83740  0.14700  0.79860  Biso   1.000  C
  C47      1.0000 0.74510  0.17470  0.82450  Biso   1.000  C
  C48      1.0000 0.73110  0.16390  0.91670  Biso   1.000  C
  C49      1.0000 0.63070  0.19210  0.94650  Biso   1.000  C
  C50      1.0000 0.16310  0.17250  0.29330  Biso   1.000  C
  C51      1.0000 0.04550  0.16930  0.28580  Biso   1.000  C
  C52      1.0000 0.24110  0.19750  0.39140  Biso   1.000  C
  C53      1.0000 0.34920  0.19800  0.39770  Biso   1.000  C
  C54      1.0000 0.38270  0.17610  0.30670  Biso   1.000  C
  C55      1.0000 0.84980  0.36120  0.27070  Biso   1.000  C
  C56      1.0000 0.85170  0.47790  0.27780  Biso   1.000  C
  C57      1.0000 0.87990  0.55810  0.37640  Biso   1.000  C
  C58      1.0000 0.87960  0.66320  0.38390  Biso   1.000  C
  C59      1.0000 0.82530  0.50910  0.18900  Biso   1.000  C
  C60      1.0000 0.85050  0.69710  0.29250  Biso   1.000  C
  C61      1.0000 0.84800  0.80540  0.29550  Biso   1.000  C
  C62      1.0000 0.89820  0.10120  0.54300  Biso   1.000  C
  C63      1.0000 0.89060  0.08420  0.63280  Biso   1.000  C
  C64      1.0000 0.85300  0.16260  0.70140  Biso   1.000  C
  C65      1.0000 0.82530  0.25490  0.67550  Biso   1.000  C
  C66      1.0000 0.83610  0.26890  0.58330  Biso   1.000  C
  C67      1.0000 0.80790  0.36930  0.55350  Biso   1.000  C
  C68      1.0000 0.82750  0.83690  0.20670  Biso   1.000  C
  C69      1.0000 0.83070  0.95450  0.21420  Biso   1.000  C
  C70      1.0000 0.80250  0.75890  0.10860  Biso   1.000  C
  C71      1.0000 0.80200  0.65080  0.10230  Biso   1.000  C
  C72      1.0000 0.82390  0.61730  0.19330  Biso   1.000  C
  N3       1.0000 0.80890  0.12910  0.98410  Biso   1.000  N
  N4       1.0000 0.87090  0.19110  0.51590  Biso   1.000  N
  O9       1.0000 0.66349  0.11111  0.14540  Biso   1.000  O
  O10      1.0000 0.70520  0.19200  0.31890  Biso   1.000  O
  O11      1.0000 0.02232  0.16968  0.36810  Biso   1.000  O
  O12      1.0000 0.97880  0.16440  0.19880  Biso   1.000  O
  O13      1.0000 0.88889  0.33651  0.35460  Biso   1.000  O
  O14      1.0000 0.80800  0.29480  0.18110  Biso   1.000  O
  O15      1.0000 0.83032  0.97768  0.13190  Biso   1.000  O
  O16      1.0000 0.83560  0.02120  0.30120  Biso   1.000  O
