data_image0
_cell_length_a       7.2918
_cell_length_b       9.34
_cell_length_c       14.129
_cell_angle_alpha    83.816
_cell_angle_beta     85.461
_cell_angle_gamma    72.646

_symmetry_space_group_name_H-M    P 1
_symmetry_int_tables_number       1

loop_
  _symmetry_equiv_pos_as_xyz
  'x, y, z'

loop_
  _atom_site_label
  _atom_site_occupancy
  _atom_site_fract_x
  _atom_site_fract_y
  _atom_site_fract_z
  _atom_site_thermal_displace_type
  _atom_site_B_iso_or_equiv
  _atom_site_type_symbol
  La1      1.0000 0.50617  0.28555  0.59596  Biso   1.000  La
  La2      1.0000 0.49383  0.71445  0.40404  Biso   1.000  La
  Ni1      1.0000 0.50000  0.50000  0.00000  Biso   1.000  Ni
  H1       1.0000 0.83730  0.53800  0.00390  Biso   1.000  H
  H2       1.0000 0.70020  0.68590  0.00660  Biso   1.000  H
  H3       1.0000 0.19360  0.82920  0.90210  Biso   1.000  H
  H4       1.0000 0.21650  0.87780  0.73470  Biso   1.000  H
  H5       1.0000 0.98950  0.44100  0.85890  Biso   1.000  H
  H6       1.0000 0.91850  0.73690  0.62600  Biso   1.000  H
  H7       1.0000 0.62430  0.85650  0.87190  Biso   1.000  H
  H8       1.0000 0.26580  0.10240  0.50040  Biso   1.000  H
  H9       1.0000 0.26960  0.06330  0.59100  Biso   1.000  H
  H10      1.0000 0.85580  0.37580  0.52220  Biso   1.000  H
  H11      1.0000 0.96400  0.25860  0.56870  Biso   1.000  H
  H12      1.0000 0.16270  0.46200  0.99610  Biso   1.000  H
  H13      1.0000 0.29980  0.31410  0.99340  Biso   1.000  H
  H14      1.0000 0.80640  0.17080  0.09790  Biso   1.000  H
  H15      1.0000 0.78350  0.12220  0.26530  Biso   1.000  H
  H16      1.0000 0.01050  0.55900  0.14110  Biso   1.000  H
  H17      1.0000 0.08150  0.26310  0.37400  Biso   1.000  H
  H18      1.0000 0.37570  0.14350  0.12810  Biso   1.000  H
  H19      1.0000 0.73420  0.89760  0.49960  Biso   1.000  H
  H20      1.0000 0.73040  0.93670  0.40900  Biso   1.000  H
  H21      1.0000 0.14420  0.62420  0.47780  Biso   1.000  H
  H22      1.0000 0.03600  0.74140  0.43130  Biso   1.000  H
  C1       1.0000 0.26440  0.76200  0.85930  Biso   1.000  C
  C2       1.0000 0.39270  0.67010  0.72460  Biso   1.000  C
  C3       1.0000 0.45070  0.56250  0.79950  Biso   1.000  C
  C4       1.0000 0.58460  0.40510  0.81070  Biso   1.000  C
  C5       1.0000 0.44410  0.68120  0.62110  Biso   1.000  C
  C6       1.0000 0.12740  0.45750  0.67980  Biso   1.000  C
  C7       1.0000 0.79590  0.64200  0.88100  Biso   1.000  C
  C8       1.0000 0.93020  0.53580  0.82940  Biso   1.000  C
  C9       1.0000 0.97620  0.57090  0.73380  Biso   1.000  C
  C10      1.0000 0.88860  0.71310  0.68990  Biso   1.000  C
  C11      1.0000 0.71140  0.78430  0.83710  Biso   1.000  C
  C12      1.0000 0.75570  0.81980  0.74200  Biso   1.000  C
  C13      1.0000 0.65930  0.97270  0.69340  Biso   1.000  C
  C14      1.0000 0.73560  0.23800  0.14070  Biso   1.000  C
  C15      1.0000 0.60730  0.32990  0.27540  Biso   1.000  C
  C16      1.0000 0.54930  0.43750  0.20050  Biso   1.000  C
  C17      1.0000 0.41540  0.59490  0.18930  Biso   1.000  C
  C18      1.0000 0.55590  0.31880  0.37890  Biso   1.000  C
  C19      1.0000 0.87260  0.54250  0.32020  Biso   1.000  C
  C20      1.0000 0.20410  0.35800  0.11900  Biso   1.000  C
  C21      1.0000 0.06980  0.46420  0.17060  Biso   1.000  C
  C22      1.0000 0.02380  0.42910  0.26620  Biso   1.000  C
  C23      1.0000 0.11140  0.28690  0.31010  Biso   1.000  C
  C24      1.0000 0.28860  0.21570  0.16290  Biso   1.000  C
  C25      1.0000 0.24430  0.18020  0.25800  Biso   1.000  C
  C26      1.0000 0.34070  0.02730  0.30660  Biso   1.000  C
  N1       1.0000 0.73430  0.60200  0.97560  Biso   1.000  N
  N2       1.0000 0.36810  0.62300  0.88360  Biso   1.000  N
  N3       1.0000 0.27460  0.79360  0.76500  Biso   1.000  N
  N4       1.0000 0.26570  0.39800  0.02440  Biso   1.000  N
  N5       1.0000 0.63190  0.37700  0.11640  Biso   1.000  N
  N6       1.0000 0.72540  0.20640  0.23500  Biso   1.000  N
  O1       1.0000 0.62640  0.35650  0.89610  Biso   1.000  O
  O2       1.0000 0.64850  0.33430  0.73990  Biso   1.000  O
  O3       1.0000 0.40460  0.80960  0.57820  Biso   1.000  O
  O4       1.0000 0.52250  0.56300  0.57920  Biso   1.000  O
  O5       1.0000 0.16170  0.48250  0.59240  Biso   1.000  O
  O6       1.0000 0.22460  0.34030  0.72600  Biso   1.000  O
  O7       1.0000 0.72120  0.01040  0.61160  Biso   1.000  O
  O8       1.0000 0.51990  0.06090  0.73490  Biso   1.000  O
  O9       1.0000 0.28160  0.13570  0.55170  Biso   1.000  O
  O10      1.0000 0.85130  0.29060  0.54810  Biso   1.000  O
  O11      1.0000 0.37360  0.64350  0.10390  Biso   1.000  O
  O12      1.0000 0.35150  0.66570  0.26010  Biso   1.000  O
  O13      1.0000 0.59540  0.19040  0.42180  Biso   1.000  O
  O14      1.0000 0.47750  0.43700  0.42080  Biso   1.000  O
  O15      1.0000 0.83830  0.51750  0.40760  Biso   1.000  O
  O16      1.0000 0.77540  0.65970  0.27400  Biso   1.000  O
  O17      1.0000 0.27880  0.98960  0.38840  Biso   1.000  O
  O18      1.0000 0.48010  0.93910  0.26510  Biso   1.000  O
  O19      1.0000 0.71840  0.86430  0.44830  Biso   1.000  O
  O20      1.0000 0.14870  0.70940  0.45190  Biso   1.000  O
