data_image0
_cell_length_a       7.2904
_cell_length_b       9.2414
_cell_length_c       14.014
_cell_angle_alpha    83.886
_cell_angle_beta     85.398
_cell_angle_gamma    72.647

_symmetry_space_group_name_H-M    P 1
_symmetry_int_tables_number       1

loop_
  _symmetry_equiv_pos_as_xyz
  'x, y, z'

loop_
  _atom_site_label
  _atom_site_occupancy
  _atom_site_fract_x
  _atom_site_fract_y
  _atom_site_fract_z
  _atom_site_thermal_displace_type
  _atom_site_B_iso_or_equiv
  _atom_site_type_symbol
  Nd1      1.0000 0.49527  0.71310  0.90451  Biso   1.000  Nd
  Nd2      1.0000 0.50473  0.28690  0.09549  Biso   1.000  Nd
  Ni1      1.0000 0.50000  0.50000  0.50000  Biso   1.000  Ni
  H1       1.0000 0.70950  0.90790  0.99320  Biso   1.000  H
  H2       1.0000 0.74530  0.91340  0.90470  Biso   1.000  H
  H3       1.0000 0.15970  0.64480  0.99470  Biso   1.000  H
  H4       1.0000 0.05710  0.77470  0.93620  Biso   1.000  H
  H5       1.0000 0.27170  0.32520  0.48650  Biso   1.000  H
  H6       1.0000 0.16360  0.47260  0.50220  Biso   1.000  H
  H7       1.0000 0.78280  0.11630  0.76240  Biso   1.000  H
  H8       1.0000 0.00790  0.55840  0.64320  Biso   1.000  H
  H9       1.0000 0.37790  0.14270  0.62870  Biso   1.000  H
  H10      1.0000 0.08070  0.26090  0.87690  Biso   1.000  H
  H11      1.0000 0.80930  0.16930  0.59850  Biso   1.000  H
  H12      1.0000 0.29050  0.09210  0.00680  Biso   1.000  H
  H13      1.0000 0.25470  0.08660  0.09530  Biso   1.000  H
  H14      1.0000 0.84030  0.35520  0.00530  Biso   1.000  H
  H15      1.0000 0.94290  0.22530  0.06380  Biso   1.000  H
  H16      1.0000 0.72830  0.67480  0.51350  Biso   1.000  H
  H17      1.0000 0.83640  0.52740  0.49780  Biso   1.000  H
  H18      1.0000 0.21720  0.88370  0.23760  Biso   1.000  H
  H19      1.0000 0.99210  0.44160  0.35680  Biso   1.000  H
  H20      1.0000 0.62210  0.85730  0.37130  Biso   1.000  H
  H21      1.0000 0.91930  0.73910  0.12310  Biso   1.000  H
  H22      1.0000 0.19070  0.83070  0.40150  Biso   1.000  H
  C1       1.0000 0.86830  0.54080  0.82220  Biso   1.000  C
  C2       1.0000 0.02230  0.42780  0.76880  Biso   1.000  C
  C3       1.0000 0.06850  0.46300  0.67290  Biso   1.000  C
  C4       1.0000 0.20390  0.35760  0.62090  Biso   1.000  C
  C5       1.0000 0.29010  0.21480  0.66410  Biso   1.000  C
  C6       1.0000 0.24630  0.17800  0.76030  Biso   1.000  C
  C7       1.0000 0.11110  0.28520  0.81270  Biso   1.000  C
  C8       1.0000 0.34370  0.02350  0.80780  Biso   1.000  C
  C9       1.0000 0.55560  0.31960  0.88150  Biso   1.000  C
  C10      1.0000 0.60680  0.33070  0.77680  Biso   1.000  C
  C11      1.0000 0.54900  0.43810  0.70090  Biso   1.000  C
  C12      1.0000 0.73660  0.23660  0.64170  Biso   1.000  C
  C13      1.0000 0.41620  0.59630  0.69040  Biso   1.000  C
  C14      1.0000 0.13170  0.45920  0.17780  Biso   1.000  C
  C15      1.0000 0.97770  0.57220  0.23120  Biso   1.000  C
  C16      1.0000 0.93150  0.53700  0.32710  Biso   1.000  C
  C17      1.0000 0.79610  0.64240  0.37910  Biso   1.000  C
  C18      1.0000 0.70990  0.78520  0.33590  Biso   1.000  C
  C19      1.0000 0.75370  0.82200  0.23970  Biso   1.000  C
  C20      1.0000 0.88890  0.71480  0.18730  Biso   1.000  C
  C21      1.0000 0.65630  0.97650  0.19220  Biso   1.000  C
  C22      1.0000 0.44440  0.68040  0.11850  Biso   1.000  C
  C23      1.0000 0.39320  0.66930  0.22320  Biso   1.000  C
  C24      1.0000 0.45100  0.56190  0.29910  Biso   1.000  C
  C25      1.0000 0.26340  0.76340  0.35830  Biso   1.000  C
  C26      1.0000 0.58380  0.40370  0.30960  Biso   1.000  C
  N1       1.0000 0.26430  0.39870  0.52410  Biso   1.000  N
  N2       1.0000 0.72540  0.20410  0.73680  Biso   1.000  N
  N3       1.0000 0.63160  0.37570  0.61730  Biso   1.000  N
  N4       1.0000 0.73570  0.60130  0.47590  Biso   1.000  N
  N5       1.0000 0.27460  0.79590  0.26320  Biso   1.000  N
  N6       1.0000 0.36840  0.62430  0.38270  Biso   1.000  N
  O1       1.0000 0.76820  0.65830  0.77560  Biso   1.000  O
  O2       1.0000 0.83380  0.51600  0.91000  Biso   1.000  O
  O3       1.0000 0.48480  0.93690  0.76630  Biso   1.000  O
  O4       1.0000 0.28090  0.98330  0.88990  Biso   1.000  O
  O5       1.0000 0.47540  0.43870  0.92240  Biso   1.000  O
  O6       1.0000 0.59510  0.19050  0.92490  Biso   1.000  O
  O7       1.0000 0.35250  0.66870  0.76220  Biso   1.000  O
  O8       1.0000 0.37410  0.64590  0.60500  Biso   1.000  O
  O9       1.0000 0.71440  0.85700  0.94810  Biso   1.000  O
  O10      1.0000 0.15820  0.71020  0.95000  Biso   1.000  O
  O11      1.0000 0.23180  0.34170  0.22440  Biso   1.000  O
  O12      1.0000 0.16620  0.48400  0.09000  Biso   1.000  O
  O13      1.0000 0.51520  0.06310  0.23370  Biso   1.000  O
  O14      1.0000 0.71910  0.01670  0.11010  Biso   1.000  O
  O15      1.0000 0.52460  0.56130  0.07760  Biso   1.000  O
  O16      1.0000 0.40490  0.80950  0.07510  Biso   1.000  O
  O17      1.0000 0.64750  0.33130  0.23780  Biso   1.000  O
  O18      1.0000 0.62590  0.35410  0.39500  Biso   1.000  O
  O19      1.0000 0.28560  0.14300  0.05190  Biso   1.000  O
  O20      1.0000 0.84180  0.28980  0.05000  Biso   1.000  O
