data_image0
_cell_length_a       13.9921
_cell_length_b       13.9921
_cell_length_c       25.705
_cell_angle_alpha    90
_cell_angle_beta     90
_cell_angle_gamma    120

_symmetry_space_group_name_H-M    "P 1"
_symmetry_int_tables_number       1

loop_
  _symmetry_equiv_pos_as_xyz
  'x, y, z'

loop_
  _atom_site_label
  _atom_site_occupancy
  _atom_site_fract_x
  _atom_site_fract_y
  _atom_site_fract_z
  _atom_site_thermal_displace_type
  _atom_site_B_iso_or_equiv
  _atom_site_type_symbol
  O1       1.0000 0.15000  0.12010  0.44972  Biso   1.000  O
  C1       1.0000 0.24930  0.18160  0.43700  Biso   1.000  C
  C2       1.0000 0.32550  0.27330  0.47190  Biso   1.000  C
  H1       1.0000 0.38350  0.33040  0.45160  Biso   1.000  H
  H2       1.0000 0.35680  0.24580  0.49700  Biso   1.000  H
  H3       1.0000 0.28540  0.30250  0.48960  Biso   1.000  H
  N1       1.0000 0.28800  0.16830  0.39340  Biso   1.000  N
  H4       1.0000 0.35950  0.21000  0.38450  Biso   1.000  H
  C3       1.0000 0.22280  0.07960  0.35630  Biso   1.000  C
  H5       1.0000 0.24980  0.10500  0.32140  Biso   1.000  H
  H6       1.0000 0.14640  0.06190  0.35780  Biso   1.000  H
  C4       1.0000 0.22910  0.97630  0.36770  Biso   1.000  C
  H7       1.0000 0.30590  0.99500  0.36830  Biso   1.000  H
  H8       1.0000 0.19810  0.94850  0.40180  Biso   1.000  H
  C5       1.0000 0.16800  0.88730  0.32790  Biso   1.000  C
  H9       1.0000 0.20200  0.91450  0.29420  Biso   1.000  H
  H10      1.0000 0.09270  0.87280  0.32580  Biso   1.000  H
  O2       1.0000 0.81667  0.45343  0.78305  Biso   1.000  O
  C6       1.0000 0.91597  0.51493  0.77033  Biso   1.000  C
  C7       1.0000 0.99217  0.60663  0.80523  Biso   1.000  C
  H11      1.0000 0.05017  0.66373  0.78493  Biso   1.000  H
  H12      1.0000 0.02347  0.57913  0.83033  Biso   1.000  H
  H13      1.0000 0.95207  0.63583  0.82293  Biso   1.000  H
  N2       1.0000 0.95467  0.50163  0.72673  Biso   1.000  N
  H14      1.0000 0.02617  0.54333  0.71783  Biso   1.000  H
  C8       1.0000 0.88947  0.41293  0.68963  Biso   1.000  C
  H15      1.0000 0.91647  0.43833  0.65473  Biso   1.000  H
  H16      1.0000 0.81307  0.39523  0.69113  Biso   1.000  H
  C9       1.0000 0.89577  0.30963  0.70103  Biso   1.000  C
  H17      1.0000 0.97257  0.32833  0.70163  Biso   1.000  H
  H18      1.0000 0.86477  0.28183  0.73513  Biso   1.000  H
  C10      1.0000 0.83467  0.22063  0.66123  Biso   1.000  C
  H19      1.0000 0.86867  0.24783  0.62753  Biso   1.000  H
  H20      1.0000 0.75937  0.20613  0.65913  Biso   1.000  H
  O3       1.0000 0.48333  0.78677  0.11639  Biso   1.000  O
  C11      1.0000 0.58263  0.84827  0.10367  Biso   1.000  C
  C12      1.0000 0.65883  0.93997  0.13857  Biso   1.000  C
  H21      1.0000 0.71683  0.99707  0.11827  Biso   1.000  H
  H22      1.0000 0.69013  0.91247  0.16367  Biso   1.000  H
  H23      1.0000 0.61873  0.96917  0.15627  Biso   1.000  H
  N3       1.0000 0.62133  0.83497  0.06007  Biso   1.000  N
  H24      1.0000 0.69283  0.87667  0.05117  Biso   1.000  H
  C13      1.0000 0.55613  0.74627  0.02297  Biso   1.000  C
  H25      1.0000 0.58313  0.77167  0.98807  Biso   1.000  H
  H26      1.0000 0.47973  0.72857  0.02447  Biso   1.000  H
  C14      1.0000 0.56243  0.64297  0.03437  Biso   1.000  C
  H27      1.0000 0.63923  0.66167  0.03497  Biso   1.000  H
  H28      1.0000 0.53143  0.61517  0.06847  Biso   1.000  H
  C15      1.0000 0.50133  0.55397  0.99457  Biso   1.000  C
  H29      1.0000 0.53533  0.58117  0.96087  Biso   1.000  H
  H30      1.0000 0.42603  0.53947  0.99247  Biso   1.000  H
  O4       1.0000 0.87990  0.02990  0.44972  Biso   1.000  O
  C16      1.0000 0.81840  0.06770  0.43700  Biso   1.000  C
  C17      1.0000 0.72670  0.05220  0.47190  Biso   1.000  C
  H31      1.0000 0.66960  0.05310  0.45160  Biso   1.000  H
  H32      1.0000 0.75420  0.11100  0.49700  Biso   1.000  H
  H33      1.0000 0.69750  0.98290  0.48960  Biso   1.000  H
  N4       1.0000 0.83170  0.11970  0.39340  Biso   1.000  N
  H34      1.0000 0.79000  0.14950  0.38450  Biso   1.000  H
  C18      1.0000 0.92040  0.14320  0.35630  Biso   1.000  C
  H35      1.0000 0.89500  0.14480  0.32140  Biso   1.000  H
  H36      1.0000 0.93810  0.08450  0.35780  Biso   1.000  H
  C19      1.0000 0.02370  0.25280  0.36770  Biso   1.000  C
  H37      1.0000 0.00500  0.31090  0.36830  Biso   1.000  H
  H38      1.0000 0.05150  0.24960  0.40180  Biso   1.000  H
  C20      1.0000 0.11270  0.28070  0.32790  Biso   1.000  C
  H39      1.0000 0.08550  0.28750  0.29420  Biso   1.000  H
  H40      1.0000 0.12720  0.21990  0.32580  Biso   1.000  H
  O5       1.0000 0.54657  0.36323  0.78305  Biso   1.000  O
  C21      1.0000 0.48507  0.40103  0.77033  Biso   1.000  C
  C22      1.0000 0.39337  0.38553  0.80523  Biso   1.000  C
  H41      1.0000 0.33627  0.38643  0.78493  Biso   1.000  H
  H42      1.0000 0.42087  0.44433  0.83033  Biso   1.000  H
  H43      1.0000 0.36417  0.31623  0.82293  Biso   1.000  H
  N5       1.0000 0.49837  0.45303  0.72673  Biso   1.000  N
  H44      1.0000 0.45667  0.48283  0.71783  Biso   1.000  H
  C23      1.0000 0.58707  0.47653  0.68963  Biso   1.000  C
  H45      1.0000 0.56167  0.47813  0.65473  Biso   1.000  H
  H46      1.0000 0.60477  0.41783  0.69113  Biso   1.000  H
  C24      1.0000 0.69037  0.58613  0.70103  Biso   1.000  C
  H47      1.0000 0.67167  0.64423  0.70163  Biso   1.000  H
  H48      1.0000 0.71817  0.58293  0.73513  Biso   1.000  H
  C25      1.0000 0.77937  0.61403  0.66123  Biso   1.000  C
  H49      1.0000 0.75217  0.62083  0.62753  Biso   1.000  H
  H50      1.0000 0.79387  0.55323  0.65913  Biso   1.000  H
  O6       1.0000 0.21323  0.69657  0.11639  Biso   1.000  O
  C26      1.0000 0.15173  0.73437  0.10367  Biso   1.000  C
  C27      1.0000 0.06003  0.71887  0.13857  Biso   1.000  C
  H51      1.0000 0.00293  0.71977  0.11827  Biso   1.000  H
  H52      1.0000 0.08753  0.77767  0.16367  Biso   1.000  H
  H53      1.0000 0.03083  0.64957  0.15627  Biso   1.000  H
  N6       1.0000 0.16503  0.78637  0.06007  Biso   1.000  N
  H54      1.0000 0.12333  0.81617  0.05117  Biso   1.000  H
  C28      1.0000 0.25373  0.80987  0.02297  Biso   1.000  C
  H55      1.0000 0.22833  0.81147  0.98807  Biso   1.000  H
  H56      1.0000 0.27143  0.75117  0.02447  Biso   1.000  H
  C29      1.0000 0.35703  0.91947  0.03437  Biso   1.000  C
  H57      1.0000 0.33833  0.97757  0.03497  Biso   1.000  H
  H58      1.0000 0.38483  0.91627  0.06847  Biso   1.000  H
  C30      1.0000 0.44603  0.94737  0.99457  Biso   1.000  C
  H59      1.0000 0.41883  0.95417  0.96087  Biso   1.000  H
  H60      1.0000 0.46053  0.88657  0.99247  Biso   1.000  H
  O7       1.0000 0.97010  0.85000  0.44972  Biso   1.000  O
  C31      1.0000 0.93230  0.75070  0.43700  Biso   1.000  C
  C32      1.0000 0.94780  0.67450  0.47190  Biso   1.000  C
  H61      1.0000 0.94690  0.61650  0.45160  Biso   1.000  H
  H62      1.0000 0.88900  0.64320  0.49700  Biso   1.000  H
  H63      1.0000 0.01710  0.71460  0.48960  Biso   1.000  H
  N7       1.0000 0.88030  0.71200  0.39340  Biso   1.000  N
  H64      1.0000 0.85050  0.64050  0.38450  Biso   1.000  H
  C33      1.0000 0.85680  0.77720  0.35630  Biso   1.000  C
  H65      1.0000 0.85520  0.75020  0.32140  Biso   1.000  H
  H66      1.0000 0.91550  0.85360  0.35780  Biso   1.000  H
  C34      1.0000 0.74720  0.77090  0.36770  Biso   1.000  C
  H67      1.0000 0.68910  0.69410  0.36830  Biso   1.000  H
  H68      1.0000 0.75040  0.80190  0.40180  Biso   1.000  H
  C35      1.0000 0.71930  0.83200  0.32790  Biso   1.000  C
  H69      1.0000 0.71250  0.79800  0.29420  Biso   1.000  H
  H70      1.0000 0.78010  0.90730  0.32580  Biso   1.000  H
  O8       1.0000 0.63677  0.18333  0.78305  Biso   1.000  O
  C36      1.0000 0.59897  0.08403  0.77033  Biso   1.000  C
  C37      1.0000 0.61447  0.00783  0.80523  Biso   1.000  C
  H71      1.0000 0.61357  0.94983  0.78493  Biso   1.000  H
  H72      1.0000 0.55567  0.97653  0.83033  Biso   1.000  H
  H73      1.0000 0.68377  0.04793  0.82293  Biso   1.000  H
  N8       1.0000 0.54697  0.04533  0.72673  Biso   1.000  N
  H74      1.0000 0.51717  0.97383  0.71783  Biso   1.000  H
  C38      1.0000 0.52347  0.11053  0.68963  Biso   1.000  C
  H75      1.0000 0.52187  0.08353  0.65473  Biso   1.000  H
  H76      1.0000 0.58217  0.18693  0.69113  Biso   1.000  H
  C39      1.0000 0.41387  0.10423  0.70103  Biso   1.000  C
  H77      1.0000 0.35577  0.02743  0.70163  Biso   1.000  H
  H78      1.0000 0.41707  0.13523  0.73513  Biso   1.000  H
  C40      1.0000 0.38597  0.16533  0.66123  Biso   1.000  C
  H79      1.0000 0.37917  0.13133  0.62753  Biso   1.000  H
  H80      1.0000 0.44677  0.24063  0.65913  Biso   1.000  H
  O9       1.0000 0.30343  0.51667  0.11639  Biso   1.000  O
  C41      1.0000 0.26563  0.41737  0.10367  Biso   1.000  C
  C42      1.0000 0.28113  0.34117  0.13857  Biso   1.000  C
  H81      1.0000 0.28023  0.28317  0.11827  Biso   1.000  H
  H82      1.0000 0.22233  0.30987  0.16367  Biso   1.000  H
  H83      1.0000 0.35043  0.38127  0.15627  Biso   1.000  H
  N9       1.0000 0.21363  0.37867  0.06007  Biso   1.000  N
  H84      1.0000 0.18383  0.30717  0.05117  Biso   1.000  H
  C43      1.0000 0.19013  0.44387  0.02297  Biso   1.000  C
  H85      1.0000 0.18853  0.41687  0.98807  Biso   1.000  H
  H86      1.0000 0.24883  0.52027  0.02447  Biso   1.000  H
  C44      1.0000 0.08053  0.43757  0.03437  Biso   1.000  C
  H87      1.0000 0.02243  0.36077  0.03497  Biso   1.000  H
  H88      1.0000 0.08373  0.46857  0.06847  Biso   1.000  H
  C45      1.0000 0.05263  0.49867  0.99457  Biso   1.000  C
  H89      1.0000 0.04583  0.46467  0.96087  Biso   1.000  H
  H90      1.0000 0.11343  0.57397  0.99247  Biso   1.000  H
  O10      1.0000 0.85000  0.87990  0.55028  Biso   1.000  O
  C46      1.0000 0.75070  0.81840  0.56300  Biso   1.000  C
  C47      1.0000 0.67450  0.72670  0.52810  Biso   1.000  C
  H91      1.0000 0.61650  0.66960  0.54840  Biso   1.000  H
  H92      1.0000 0.64320  0.75420  0.50300  Biso   1.000  H
  H93      1.0000 0.71460  0.69750  0.51040  Biso   1.000  H
  N10      1.0000 0.71200  0.83170  0.60660  Biso   1.000  N
  H94      1.0000 0.64050  0.79000  0.61550  Biso   1.000  H
  C48      1.0000 0.77720  0.92040  0.64370  Biso   1.000  C
  H95      1.0000 0.75020  0.89500  0.67860  Biso   1.000  H
  H96      1.0000 0.85360  0.93810  0.64220  Biso   1.000  H
  C49      1.0000 0.77090  0.02370  0.63230  Biso   1.000  C
  H97      1.0000 0.69410  0.00500  0.63170  Biso   1.000  H
  H98      1.0000 0.80190  0.05150  0.59820  Biso   1.000  H
  C50      1.0000 0.83200  0.11270  0.67210  Biso   1.000  C
  H99      1.0000 0.79800  0.08550  0.70580  Biso   1.000  H
  H100     1.0000 0.90730  0.12720  0.67420  Biso   1.000  H
  O11      1.0000 0.51667  0.21323  0.88361  Biso   1.000  O
  C51      1.0000 0.41737  0.15173  0.89633  Biso   1.000  C
  C52      1.0000 0.34117  0.06003  0.86143  Biso   1.000  C
  H101     1.0000 0.28317  0.00293  0.88173  Biso   1.000  H
  H102     1.0000 0.30987  0.08753  0.83633  Biso   1.000  H
  H103     1.0000 0.38127  0.03083  0.84373  Biso   1.000  H
  N11      1.0000 0.37867  0.16503  0.93993  Biso   1.000  N
  H104     1.0000 0.30717  0.12333  0.94883  Biso   1.000  H
  C53      1.0000 0.44387  0.25373  0.97703  Biso   1.000  C
  H105     1.0000 0.41687  0.22833  0.01193  Biso   1.000  H
  H106     1.0000 0.52027  0.27143  0.97553  Biso   1.000  H
  C54      1.0000 0.43757  0.35703  0.96563  Biso   1.000  C
  H107     1.0000 0.36077  0.33833  0.96503  Biso   1.000  H
  H108     1.0000 0.46857  0.38483  0.93153  Biso   1.000  H
  C55      1.0000 0.49867  0.44603  0.00543  Biso   1.000  C
  H109     1.0000 0.46467  0.41883  0.03913  Biso   1.000  H
  H110     1.0000 0.57397  0.46053  0.00753  Biso   1.000  H
  O12      1.0000 0.18333  0.54657  0.21695  Biso   1.000  O
  C56      1.0000 0.08403  0.48507  0.22967  Biso   1.000  C
  C57      1.0000 0.00783  0.39337  0.19477  Biso   1.000  C
  H111     1.0000 0.94983  0.33627  0.21507  Biso   1.000  H
  H112     1.0000 0.97653  0.42087  0.16967  Biso   1.000  H
  H113     1.0000 0.04793  0.36417  0.17707  Biso   1.000  H
  N12      1.0000 0.04533  0.49837  0.27327  Biso   1.000  N
  H114     1.0000 0.97383  0.45667  0.28217  Biso   1.000  H
  C58      1.0000 0.11053  0.58707  0.31037  Biso   1.000  C
  H115     1.0000 0.08353  0.56167  0.34527  Biso   1.000  H
  H116     1.0000 0.18693  0.60477  0.30887  Biso   1.000  H
  C59      1.0000 0.10423  0.69037  0.29897  Biso   1.000  C
  H117     1.0000 0.02743  0.67167  0.29837  Biso   1.000  H
  H118     1.0000 0.13523  0.71817  0.26487  Biso   1.000  H
  C60      1.0000 0.16533  0.77937  0.33877  Biso   1.000  C
  H119     1.0000 0.13133  0.75217  0.37247  Biso   1.000  H
  H120     1.0000 0.24063  0.79387  0.34087  Biso   1.000  H
  O13      1.0000 0.12010  0.97010  0.55028  Biso   1.000  O
  C61      1.0000 0.18160  0.93230  0.56300  Biso   1.000  C
  C62      1.0000 0.27330  0.94780  0.52810  Biso   1.000  C
  H121     1.0000 0.33040  0.94690  0.54840  Biso   1.000  H
  H122     1.0000 0.24580  0.88900  0.50300  Biso   1.000  H
  H123     1.0000 0.30250  0.01710  0.51040  Biso   1.000  H
  N13      1.0000 0.16830  0.88030  0.60660  Biso   1.000  N
  H124     1.0000 0.21000  0.85050  0.61550  Biso   1.000  H
  C63      1.0000 0.07960  0.85680  0.64370  Biso   1.000  C
  H125     1.0000 0.10500  0.85520  0.67860  Biso   1.000  H
  H126     1.0000 0.06190  0.91550  0.64220  Biso   1.000  H
  C64      1.0000 0.97630  0.74720  0.63230  Biso   1.000  C
  H127     1.0000 0.99500  0.68910  0.63170  Biso   1.000  H
  H128     1.0000 0.94850  0.75040  0.59820  Biso   1.000  H
  C65      1.0000 0.88730  0.71930  0.67210  Biso   1.000  C
  H129     1.0000 0.91450  0.71250  0.70580  Biso   1.000  H
  H130     1.0000 0.87280  0.78010  0.67420  Biso   1.000  H
  O14      1.0000 0.78677  0.30343  0.88361  Biso   1.000  O
  C66      1.0000 0.84827  0.26563  0.89633  Biso   1.000  C
  C67      1.0000 0.93997  0.28113  0.86143  Biso   1.000  C
  H131     1.0000 0.99707  0.28023  0.88173  Biso   1.000  H
  H132     1.0000 0.91247  0.22233  0.83633  Biso   1.000  H
  H133     1.0000 0.96917  0.35043  0.84373  Biso   1.000  H
  N14      1.0000 0.83497  0.21363  0.93993  Biso   1.000  N
  H134     1.0000 0.87667  0.18383  0.94883  Biso   1.000  H
  C68      1.0000 0.74627  0.19013  0.97703  Biso   1.000  C
  H135     1.0000 0.77167  0.18853  0.01193  Biso   1.000  H
  H136     1.0000 0.72857  0.24883  0.97553  Biso   1.000  H
  C69      1.0000 0.64297  0.08053  0.96563  Biso   1.000  C
  H137     1.0000 0.66167  0.02243  0.96503  Biso   1.000  H
  H138     1.0000 0.61517  0.08373  0.93153  Biso   1.000  H
  C70      1.0000 0.55397  0.05263  0.00543  Biso   1.000  C
  H139     1.0000 0.58117  0.04583  0.03913  Biso   1.000  H
  H140     1.0000 0.53947  0.11343  0.00753  Biso   1.000  H
  O15      1.0000 0.45343  0.63677  0.21695  Biso   1.000  O
  C71      1.0000 0.51493  0.59897  0.22967  Biso   1.000  C
  C72      1.0000 0.60663  0.61447  0.19477  Biso   1.000  C
  H141     1.0000 0.66373  0.61357  0.21507  Biso   1.000  H
  H142     1.0000 0.57913  0.55567  0.16967  Biso   1.000  H
  H143     1.0000 0.63583  0.68377  0.17707  Biso   1.000  H
  N15      1.0000 0.50163  0.54697  0.27327  Biso   1.000  N
  H144     1.0000 0.54333  0.51717  0.28217  Biso   1.000  H
  C73      1.0000 0.41293  0.52347  0.31037  Biso   1.000  C
  H145     1.0000 0.43833  0.52187  0.34527  Biso   1.000  H
  H146     1.0000 0.39523  0.58217  0.30887  Biso   1.000  H
  C74      1.0000 0.30963  0.41387  0.29897  Biso   1.000  C
  H147     1.0000 0.32833  0.35577  0.29837  Biso   1.000  H
  H148     1.0000 0.28183  0.41707  0.26487  Biso   1.000  H
  C75      1.0000 0.22063  0.38597  0.33877  Biso   1.000  C
  H149     1.0000 0.24783  0.37917  0.37247  Biso   1.000  H
  H150     1.0000 0.20613  0.44677  0.34087  Biso   1.000  H
  O16      1.0000 0.02990  0.15000  0.55028  Biso   1.000  O
  C76      1.0000 0.06770  0.24930  0.56300  Biso   1.000  C
  C77      1.0000 0.05220  0.32550  0.52810  Biso   1.000  C
  H151     1.0000 0.05310  0.38350  0.54840  Biso   1.000  H
  H152     1.0000 0.11100  0.35680  0.50300  Biso   1.000  H
  H153     1.0000 0.98290  0.28540  0.51040  Biso   1.000  H
  N16      1.0000 0.11970  0.28800  0.60660  Biso   1.000  N
  H154     1.0000 0.14950  0.35950  0.61550  Biso   1.000  H
  C78      1.0000 0.14320  0.22280  0.64370  Biso   1.000  C
  H155     1.0000 0.14480  0.24980  0.67860  Biso   1.000  H
  H156     1.0000 0.08450  0.14640  0.64220  Biso   1.000  H
  C79      1.0000 0.25280  0.22910  0.63230  Biso   1.000  C
  H157     1.0000 0.31090  0.30590  0.63170  Biso   1.000  H
  H158     1.0000 0.24960  0.19810  0.59820  Biso   1.000  H
  C80      1.0000 0.28070  0.16800  0.67210  Biso   1.000  C
  H159     1.0000 0.28750  0.20200  0.70580  Biso   1.000  H
  H160     1.0000 0.21990  0.09270  0.67420  Biso   1.000  H
  O17      1.0000 0.69657  0.48333  0.88361  Biso   1.000  O
  C81      1.0000 0.73437  0.58263  0.89633  Biso   1.000  C
  C82      1.0000 0.71887  0.65883  0.86143  Biso   1.000  C
  H161     1.0000 0.71977  0.71683  0.88173  Biso   1.000  H
  H162     1.0000 0.77767  0.69013  0.83633  Biso   1.000  H
  H163     1.0000 0.64957  0.61873  0.84373  Biso   1.000  H
  N17      1.0000 0.78637  0.62133  0.93993  Biso   1.000  N
  H164     1.0000 0.81617  0.69283  0.94883  Biso   1.000  H
  C83      1.0000 0.80987  0.55613  0.97703  Biso   1.000  C
  H165     1.0000 0.81147  0.58313  0.01193  Biso   1.000  H
  H166     1.0000 0.75117  0.47973  0.97553  Biso   1.000  H
  C84      1.0000 0.91947  0.56243  0.96563  Biso   1.000  C
  H167     1.0000 0.97757  0.63923  0.96503  Biso   1.000  H
  H168     1.0000 0.91627  0.53143  0.93153  Biso   1.000  H
  C85      1.0000 0.94737  0.50133  0.00543  Biso   1.000  C
  H169     1.0000 0.95417  0.53533  0.03913  Biso   1.000  H
  H170     1.0000 0.88657  0.42603  0.00753  Biso   1.000  H
  O18      1.0000 0.36323  0.81667  0.21695  Biso   1.000  O
  C86      1.0000 0.40103  0.91597  0.22967  Biso   1.000  C
  C87      1.0000 0.38553  0.99217  0.19477  Biso   1.000  C
  H171     1.0000 0.38643  0.05017  0.21507  Biso   1.000  H
  H172     1.0000 0.44433  0.02347  0.16967  Biso   1.000  H
  H173     1.0000 0.31623  0.95207  0.17707  Biso   1.000  H
  N18      1.0000 0.45303  0.95467  0.27327  Biso   1.000  N
  H174     1.0000 0.48283  0.02617  0.28217  Biso   1.000  H
  C88      1.0000 0.47653  0.88947  0.31037  Biso   1.000  C
  H175     1.0000 0.47813  0.91647  0.34527  Biso   1.000  H
  H176     1.0000 0.41783  0.81307  0.30887  Biso   1.000  H
  C89      1.0000 0.58613  0.89577  0.29897  Biso   1.000  C
  H177     1.0000 0.64423  0.97257  0.29837  Biso   1.000  H
  H178     1.0000 0.58293  0.86477  0.26487  Biso   1.000  H
  C90      1.0000 0.61403  0.83467  0.33877  Biso   1.000  C
  H179     1.0000 0.62083  0.86867  0.37247  Biso   1.000  H
  H180     1.0000 0.55323  0.75937  0.34087  Biso   1.000  H
  Nd1      1.0000 0.00000  0.00000  0.50000  Biso   1.000  Nd
  Nd2      1.0000 0.66667  0.33333  0.83333  Biso   1.000  Nd
  Nd3      1.0000 0.33333  0.66667  0.16667  Biso   1.000  Nd
