data_image0
_cell_length_a       10.09
_cell_length_b       16.362
_cell_length_c       24.453
_cell_angle_alpha    106.75
_cell_angle_beta     92.97
_cell_angle_gamma    103.16

_symmetry_space_group_name_H-M    P 1
_symmetry_int_tables_number       1

loop_
  _symmetry_equiv_pos_as_xyz
  'x, y, z'

loop_
  _atom_site_label
  _atom_site_occupancy
  _atom_site_fract_x
  _atom_site_fract_y
  _atom_site_fract_z
  _atom_site_thermal_displace_type
  _atom_site_B_iso_or_equiv
  _atom_site_type_symbol
  Co1      1.0000 0.59872  0.15569  0.03782  Biso   1.000  Co
  Co2      1.0000 0.04104  0.65138  0.54054  Biso   1.000  Co
  H1       1.0000 0.24530  0.99990  0.09880  Biso   1.000  H
  H2       1.0000 0.84880  0.00220  0.09830  Biso   1.000  H
  H3       1.0000 0.10200  0.16470  0.03120  Biso   1.000  H
  H4       1.0000 0.90790  0.97300  0.19260  Biso   1.000  H
  H5       1.0000 0.86330  0.85900  0.23330  Biso   1.000  H
  H6       1.0000 0.08520  0.73180  0.12320  Biso   1.000  H
  H7       1.0000 0.12780  0.84480  0.08370  Biso   1.000  H
  H8       1.0000 0.64270  0.48050  0.09980  Biso   1.000  H
  H9       1.0000 0.55330  0.33730  0.04900  Biso   1.000  H
  H10      1.0000 0.79410  0.25970  0.14080  Biso   1.000  H
  H11      1.0000 0.89350  0.40210  0.19660  Biso   1.000  H
  H12      1.0000 0.03280  0.53320  0.32990  Biso   1.000  H
  H13      1.0000 0.06470  0.53990  0.42350  Biso   1.000  H
  H14      1.0000 0.93850  0.75350  0.47060  Biso   1.000  H
  H15      1.0000 0.91860  0.75760  0.37750  Biso   1.000  H
  H16      1.0000 0.25610  0.85330  0.32330  Biso   1.000  H
  H17      1.0000 0.53890  0.65990  0.53420  Biso   1.000  H
  H18      1.0000 0.29170  0.49130  0.59830  Biso   1.000  H
  H19      1.0000 0.69170  0.49980  0.60220  Biso   1.000  H
  H20      1.0000 0.58220  0.33990  0.57930  Biso   1.000  H
  H21      1.0000 0.55210  0.22540  0.61970  Biso   1.000  H
  H22      1.0000 0.33590  0.34820  0.73490  Biso   1.000  H
  H23      1.0000 0.35640  0.45800  0.69240  Biso   1.000  H
  H24      1.0000 0.63500  0.25480  0.86300  Biso   1.000  H
  H25      1.0000 0.69740  0.25560  0.95500  Biso   1.000  H
  H26      1.0000 0.43320  0.03300  0.93170  Biso   1.000  H
  H27      1.0000 0.37020  0.02370  0.83890  Biso   1.000  H
  H28      1.0000 0.36780  0.89190  0.69310  Biso   1.000  H
  H29      1.0000 0.25980  0.75130  0.63610  Biso   1.000  H
  H30      1.0000 0.98390  0.83350  0.56730  Biso   1.000  H
  H31      1.0000 0.08180  0.97610  0.62010  Biso   1.000  H
  H32      1.0000 0.72380  0.38560  0.79960  Biso   1.000  H
  C1       1.0000 0.33740  0.12610  0.05062  Biso   1.000  C
  C2       1.0000 0.19680  0.08920  0.06358  Biso   1.000  C
  C3       1.0000 0.17300  0.02240  0.09004  Biso   1.000  C
  C4       1.0000 0.04380  0.98930  0.10337  Biso   1.000  C
  C5       1.0000 0.93600  0.02350  0.08954  Biso   1.000  C
  C6       1.0000 0.95770  0.08920  0.06291  Biso   1.000  C
  C7       1.0000 0.08790  0.12150  0.04954  Biso   1.000  C
  C8       1.0000 0.84170  0.12440  0.04713  Biso   1.000  C
  C9       1.0000 0.01900  0.91850  0.13118  Biso   1.000  C
  C10      1.0000 0.96780  0.78210  0.18107  Biso   1.000  C
  C11      1.0000 0.94160  0.92370  0.17810  Biso   1.000  C
  C12      1.0000 0.91520  0.85560  0.20280  Biso   1.000  C
  C13      1.0000 0.04770  0.77960  0.13700  Biso   1.000  C
  C14      1.0000 0.07260  0.84760  0.11320  Biso   1.000  C
  C15      1.0000 0.93710  0.70660  0.20519  Biso   1.000  C
  C16      1.0000 0.86950  0.62350  0.16913  Biso   1.000  C
  C17      1.0000 0.84690  0.55090  0.19146  Biso   1.000  C
  C18      1.0000 0.94830  0.64210  0.28193  Biso   1.000  C
  C19      1.0000 0.97770  0.71600  0.26251  Biso   1.000  C
  C20      1.0000 0.78150  0.45990  0.15490  Biso   1.000  C
  C21      1.0000 0.67610  0.43700  0.10910  Biso   1.000  C
  C22      1.0000 0.62390  0.35090  0.07870  Biso   1.000  C
  C23      1.0000 0.76470  0.30530  0.13250  Biso   1.000  C
  C24      1.0000 0.82490  0.39070  0.16650  Biso   1.000  C
  C25      1.0000 0.97920  0.64670  0.34235  Biso   1.000  C
  C26      1.0000 0.01810  0.58120  0.35807  Biso   1.000  C
  C27      1.0000 0.03580  0.58510  0.41455  Biso   1.000  C
  C28      1.0000 0.96390  0.71070  0.44190  Biso   1.000  C
  C29      1.0000 0.94890  0.71240  0.38590  Biso   1.000  C
  C30      1.0000 0.07680  0.80070  0.29880  Biso   1.000  C
  C31      1.0000 0.77770  0.62710  0.55623  Biso   1.000  C
  C32      1.0000 0.63810  0.58670  0.56699  Biso   1.000  C
  C33      1.0000 0.52610  0.61580  0.55177  Biso   1.000  C
  C34      1.0000 0.39630  0.57960  0.56258  Biso   1.000  C
  C35      1.0000 0.37840  0.51420  0.58979  Biso   1.000  C
  C36      1.0000 0.48840  0.48260  0.60447  Biso   1.000  C
  C37      1.0000 0.61730  0.51990  0.59269  Biso   1.000  C
  C38      1.0000 0.27850  0.61160  0.54571  Biso   1.000  C
  C39      1.0000 0.47030  0.41040  0.63048  Biso   1.000  C
  C40      1.0000 0.53010  0.34090  0.60968  Biso   1.000  C
  C41      1.0000 0.51260  0.27200  0.63418  Biso   1.000  C
  C42      1.0000 0.43560  0.27330  0.68038  Biso   1.000  C
  C43      1.0000 0.38210  0.34490  0.70266  Biso   1.000  C
  C44      1.0000 0.39630  0.41160  0.67773  Biso   1.000  C
  C45      1.0000 0.41360  0.19810  0.70428  Biso   1.000  C
  C46      1.0000 0.45920  0.20960  0.76107  Biso   1.000  C
  C47      1.0000 0.43750  0.13630  0.78103  Biso   1.000  C
  C48      1.0000 0.32420  0.04410  0.69289  Biso   1.000  C
  C49      1.0000 0.34310  0.11410  0.67007  Biso   1.000  C
  C50      1.0000 0.48700  0.14110  0.84042  Biso   1.000  C
  C51      1.0000 0.59020  0.20910  0.87610  Biso   1.000  C
  C52      1.0000 0.62720  0.20930  0.93171  Biso   1.000  C
  C53      1.0000 0.47400  0.07920  0.91823  Biso   1.000  C
  C54      1.0000 0.43410  0.07380  0.86228  Biso   1.000  C
  C55      1.0000 0.24990  0.95280  0.65848  Biso   1.000  C
  C56      1.0000 0.29410  0.88270  0.66570  Biso   1.000  C
  C57      1.0000 0.22690  0.79790  0.63140  Biso   1.000  C
  C58      1.0000 0.06560  0.84620  0.59110  Biso   1.000  C
  C59      1.0000 0.12380  0.93190  0.62230  Biso   1.000  C
  C60      1.0000 0.55000  0.29930  0.79430  Biso   1.000  C
  N1       1.0000 0.88540  0.56060  0.24633  Biso   1.000  N
  N2       1.0000 0.66610  0.28460  0.08824  Biso   1.000  N
  N3       1.0000 0.36890  0.05510  0.74775  Biso   1.000  N
  N4       1.0000 0.56630  0.14595  0.95336  Biso   1.000  N
  N5       1.0000 0.11960  0.77920  0.59278  Biso   1.000  N
  N6       1.0000 0.01460  0.64860  0.45658  Biso   1.000  N
  O1       1.0000 0.43210  0.08958  0.06041  Biso   1.000  O
  O2       1.0000 0.36010  0.18989  0.03231  Biso   1.000  O
  O3       1.0000 0.72510  0.09318  0.06209  Biso   1.000  O
  O4       1.0000 0.85760  0.18131  0.02239  Biso   1.000  O
  O5       1.0000 0.16230  0.58282  0.56054  Biso   1.000  O
  O6       1.0000 0.29530  0.66630  0.51882  Biso   1.000  O
  O7       1.0000 0.80080  0.69299  0.53992  Biso   1.000  O
  O8       1.0000 0.87350  0.59054  0.56497  Biso   1.000  O
  O9       1.0000 0.21300  0.80530  0.30130  Biso   1.000  O
  O10      1.0000 0.02920  0.86350  0.32680  Biso   1.000  O
  O11      1.0000 0.69820  0.33200  0.78460  Biso   1.000  O
  O12      1.0000 0.49800  0.35050  0.83410  Biso   1.000  O
  Co3      1.0000 0.40128  0.84431  0.96218  Biso   1.000  Co
  Co4      1.0000 0.95896  0.34862  0.45946  Biso   1.000  Co
  H33      1.0000 0.75470  0.00010  0.90120  Biso   1.000  H
  H34      1.0000 0.15120  0.99780  0.90170  Biso   1.000  H
  H35      1.0000 0.89800  0.83530  0.96880  Biso   1.000  H
  H36      1.0000 0.09210  0.02700  0.80740  Biso   1.000  H
  H37      1.0000 0.13670  0.14100  0.76670  Biso   1.000  H
  H38      1.0000 0.91480  0.26820  0.87680  Biso   1.000  H
  H39      1.0000 0.87220  0.15520  0.91630  Biso   1.000  H
  H40      1.0000 0.35730  0.51950  0.90020  Biso   1.000  H
  H41      1.0000 0.44670  0.66270  0.95100  Biso   1.000  H
  H42      1.0000 0.20590  0.74030  0.85920  Biso   1.000  H
  H43      1.0000 0.10650  0.59790  0.80340  Biso   1.000  H
  H44      1.0000 0.96720  0.46680  0.67010  Biso   1.000  H
  H45      1.0000 0.93530  0.46010  0.57650  Biso   1.000  H
  H46      1.0000 0.06150  0.24650  0.52940  Biso   1.000  H
  H47      1.0000 0.08140  0.24240  0.62250  Biso   1.000  H
  H48      1.0000 0.74390  0.14670  0.67670  Biso   1.000  H
  H49      1.0000 0.46110  0.34010  0.46580  Biso   1.000  H
  H50      1.0000 0.70830  0.50870  0.40170  Biso   1.000  H
  H51      1.0000 0.30830  0.50020  0.39780  Biso   1.000  H
  H52      1.0000 0.41780  0.66010  0.42070  Biso   1.000  H
  H53      1.0000 0.44790  0.77460  0.38030  Biso   1.000  H
  H54      1.0000 0.66410  0.65180  0.26510  Biso   1.000  H
  H55      1.0000 0.64360  0.54200  0.30760  Biso   1.000  H
  H56      1.0000 0.36500  0.74520  0.13700  Biso   1.000  H
  H57      1.0000 0.30260  0.74440  0.04500  Biso   1.000  H
  H58      1.0000 0.56680  0.96700  0.06830  Biso   1.000  H
  H59      1.0000 0.62980  0.97630  0.16110  Biso   1.000  H
  H60      1.0000 0.63220  0.10810  0.30690  Biso   1.000  H
  H61      1.0000 0.74020  0.24870  0.36390  Biso   1.000  H
  H62      1.0000 0.01610  0.16650  0.43270  Biso   1.000  H
  H63      1.0000 0.91820  0.02390  0.37990  Biso   1.000  H
  H64      1.0000 0.27620  0.61440  0.20040  Biso   1.000  H
  C61      1.0000 0.66260  0.87390  0.94938  Biso   1.000  C
  C62      1.0000 0.80320  0.91080  0.93642  Biso   1.000  C
  C63      1.0000 0.82700  0.97760  0.90996  Biso   1.000  C
  C64      1.0000 0.95620  0.01070  0.89663  Biso   1.000  C
  C65      1.0000 0.06400  0.97650  0.91046  Biso   1.000  C
  C66      1.0000 0.04230  0.91080  0.93709  Biso   1.000  C
  C67      1.0000 0.91210  0.87850  0.95046  Biso   1.000  C
  C68      1.0000 0.15830  0.87560  0.95287  Biso   1.000  C
  C69      1.0000 0.98100  0.08150  0.86882  Biso   1.000  C
  C70      1.0000 0.03220  0.21790  0.81893  Biso   1.000  C
  C71      1.0000 0.05840  0.07630  0.82190  Biso   1.000  C
  C72      1.0000 0.08480  0.14440  0.79720  Biso   1.000  C
  C73      1.0000 0.95230  0.22040  0.86300  Biso   1.000  C
  C74      1.0000 0.92740  0.15240  0.88680  Biso   1.000  C
  C75      1.0000 0.06290  0.29340  0.79481  Biso   1.000  C
  C76      1.0000 0.13050  0.37650  0.83087  Biso   1.000  C
  C77      1.0000 0.15310  0.44910  0.80854  Biso   1.000  C
  C78      1.0000 0.05170  0.35790  0.71807  Biso   1.000  C
  C79      1.0000 0.02230  0.28400  0.73749  Biso   1.000  C
  C80      1.0000 0.21850  0.54010  0.84510  Biso   1.000  C
  C81      1.0000 0.32390  0.56300  0.89090  Biso   1.000  C
  C82      1.0000 0.37610  0.64910  0.92130  Biso   1.000  C
  C83      1.0000 0.23530  0.69470  0.86750  Biso   1.000  C
  C84      1.0000 0.17510  0.60930  0.83350  Biso   1.000  C
  C85      1.0000 0.02080  0.35330  0.65765  Biso   1.000  C
  C86      1.0000 0.98190  0.41880  0.64193  Biso   1.000  C
  C87      1.0000 0.96420  0.41490  0.58545  Biso   1.000  C
  C88      1.0000 0.03610  0.28930  0.55810  Biso   1.000  C
  C89      1.0000 0.05110  0.28760  0.61410  Biso   1.000  C
  C90      1.0000 0.92320  0.19930  0.70120  Biso   1.000  C
  C91      1.0000 0.22230  0.37290  0.44377  Biso   1.000  C
  C92      1.0000 0.36190  0.41330  0.43301  Biso   1.000  C
  C93      1.0000 0.47390  0.38420  0.44823  Biso   1.000  C
  C94      1.0000 0.60370  0.42040  0.43742  Biso   1.000  C
  C95      1.0000 0.62160  0.48580  0.41021  Biso   1.000  C
  C96      1.0000 0.51160  0.51740  0.39553  Biso   1.000  C
  C97      1.0000 0.38270  0.48010  0.40731  Biso   1.000  C
  C98      1.0000 0.72150  0.38840  0.45429  Biso   1.000  C
  C99      1.0000 0.52970  0.58960  0.36952  Biso   1.000  C
  C100     1.0000 0.46990  0.65910  0.39032  Biso   1.000  C
  C101     1.0000 0.48740  0.72800  0.36582  Biso   1.000  C
  C102     1.0000 0.56440  0.72670  0.31962  Biso   1.000  C
  C103     1.0000 0.61790  0.65510  0.29734  Biso   1.000  C
  C104     1.0000 0.60370  0.58840  0.32227  Biso   1.000  C
  C105     1.0000 0.58640  0.80190  0.29572  Biso   1.000  C
  C106     1.0000 0.54080  0.79040  0.23893  Biso   1.000  C
  C107     1.0000 0.56250  0.86370  0.21897  Biso   1.000  C
  C108     1.0000 0.67580  0.95590  0.30711  Biso   1.000  C
  C109     1.0000 0.65690  0.88590  0.32993  Biso   1.000  C
  C110     1.0000 0.51300  0.85890  0.15958  Biso   1.000  C
  C111     1.0000 0.40980  0.79090  0.12390  Biso   1.000  C
  C112     1.0000 0.37280  0.79070  0.06829  Biso   1.000  C
  C113     1.0000 0.52600  0.92080  0.08177  Biso   1.000  C
  C114     1.0000 0.56590  0.92620  0.13772  Biso   1.000  C
  C115     1.0000 0.75010  0.04720  0.34152  Biso   1.000  C
  C116     1.0000 0.70590  0.11730  0.33430  Biso   1.000  C
  C117     1.0000 0.77310  0.20210  0.36860  Biso   1.000  C
  C118     1.0000 0.93440  0.15380  0.40890  Biso   1.000  C
  C119     1.0000 0.87620  0.06810  0.37770  Biso   1.000  C
  C120     1.0000 0.45000  0.70070  0.20570  Biso   1.000  C
  N7       1.0000 0.11460  0.43940  0.75367  Biso   1.000  N
  N8       1.0000 0.33390  0.71540  0.91176  Biso   1.000  N
  N9       1.0000 0.63110  0.94490  0.25225  Biso   1.000  N
  N10      1.0000 0.43370  0.85405  0.04664  Biso   1.000  N
  N11      1.0000 0.88040  0.22080  0.40722  Biso   1.000  N
  N12      1.0000 0.98540  0.35140  0.54342  Biso   1.000  N
  O13      1.0000 0.56790  0.91042  0.93959  Biso   1.000  O
  O14      1.0000 0.63990  0.81011  0.96769  Biso   1.000  O
  O15      1.0000 0.27490  0.90682  0.93791  Biso   1.000  O
  O16      1.0000 0.14240  0.81869  0.97761  Biso   1.000  O
  O17      1.0000 0.83770  0.41718  0.43946  Biso   1.000  O
  O18      1.0000 0.70470  0.33370  0.48118  Biso   1.000  O
  O19      1.0000 0.19920  0.30701  0.46008  Biso   1.000  O
  O20      1.0000 0.12650  0.40946  0.43503  Biso   1.000  O
  O21      1.0000 0.78700  0.19470  0.69870  Biso   1.000  O
  O22      1.0000 0.97080  0.13650  0.67320  Biso   1.000  O
  O23      1.0000 0.30180  0.66800  0.21540  Biso   1.000  O
  O24      1.0000 0.50200  0.64950  0.16590  Biso   1.000  O
