data_image0
_cell_length_a       9.858
_cell_length_b       12.565
_cell_length_c       29.618
_cell_angle_alpha    90
_cell_angle_beta     90
_cell_angle_gamma    105.695

_symmetry_space_group_name_H-M    P 1
_symmetry_int_tables_number       1

loop_
  _symmetry_equiv_pos_as_xyz
  'x, y, z'

loop_
  _atom_site_label
  _atom_site_occupancy
  _atom_site_fract_x
  _atom_site_fract_y
  _atom_site_fract_z
  _atom_site_thermal_displace_type
  _atom_site_B_iso_or_equiv
  _atom_site_type_symbol
  Co1      1.0000 0.96198  0.64291  0.94246  Biso   1.000  Co
  Co2      1.0000 0.53802  0.35709  0.44246  Biso   1.000  Co
  H1       1.0000 0.59720  0.12710  0.19990  Biso   1.000  H
  H2       1.0000 0.28810  0.71870  0.04910  Biso   1.000  H
  H3       1.0000 0.68960  0.70070  0.05440  Biso   1.000  H
  H4       1.0000 0.46420  0.61980  0.93930  Biso   1.000  H
  H5       1.0000 0.67440  0.70680  0.12420  Biso   1.000  H
  H6       1.0000 0.68460  0.75890  0.20000  Biso   1.000  H
  H7       1.0000 0.35420  0.88520  0.18160  Biso   1.000  H
  H8       1.0000 0.34390  0.83390  0.10590  Biso   1.000  H
  H9       1.0000 0.53690  0.68930  0.26370  Biso   1.000  H
  H10      1.0000 0.31040  0.98490  0.37480  Biso   1.000  H
  H11      1.0000 0.32880  0.14290  0.41750  Biso   1.000  H
  H12      1.0000 0.69940  0.28700  0.36470  Biso   1.000  H
  H13      1.0000 0.68150  0.13930  0.31670  Biso   1.000  H
  H14      1.0000 0.43250  0.71430  0.40750  Biso   1.000  H
  H15      1.0000 0.44510  0.56430  0.45090  Biso   1.000  H
  H16      1.0000 0.67610  0.47130  0.36020  Biso   1.000  H
  H17      1.0000 0.66210  0.61220  0.31230  Biso   1.000  H
  H18      1.0000 0.90280  0.87290  0.69990  Biso   1.000  H
  H19      1.0000 0.21190  0.28130  0.54910  Biso   1.000  H
  H20      1.0000 0.81040  0.29930  0.55440  Biso   1.000  H
  H21      1.0000 0.03580  0.38020  0.43930  Biso   1.000  H
  H22      1.0000 0.82560  0.29320  0.62420  Biso   1.000  H
  H23      1.0000 0.81540  0.24110  0.70000  Biso   1.000  H
  H24      1.0000 0.14580  0.11480  0.68160  Biso   1.000  H
  H25      1.0000 0.15610  0.16610  0.60590  Biso   1.000  H
  H26      1.0000 0.96310  0.31070  0.76370  Biso   1.000  H
  H27      1.0000 0.18960  0.01510  0.87480  Biso   1.000  H
  H28      1.0000 0.17120  0.85710  0.91750  Biso   1.000  H
  H29      1.0000 0.80060  0.71300  0.86470  Biso   1.000  H
  H30      1.0000 0.81850  0.86070  0.81670  Biso   1.000  H
  H31      1.0000 0.06750  0.28570  0.90750  Biso   1.000  H
  H32      1.0000 0.05490  0.43570  0.95090  Biso   1.000  H
  H33      1.0000 0.82390  0.52870  0.86020  Biso   1.000  H
  H34      1.0000 0.83790  0.38780  0.81230  Biso   1.000  H
  C1       1.0000 0.23010  0.66430  0.96260  Biso   1.000  C
  C2       1.0000 0.35980  0.66850  0.99010  Biso   1.000  C
  C3       1.0000 0.36820  0.70430  0.03530  Biso   1.000  C
  C4       1.0000 0.49070  0.71870  0.05980  Biso   1.000  C
  C5       1.0000 0.60390  0.69240  0.03840  Biso   1.000  C
  C6       1.0000 0.59370  0.65430  0.99410  Biso   1.000  C
  C7       1.0000 0.47070  0.64390  0.96980  Biso   1.000  C
  C8       1.0000 0.71930  0.63460  0.97120  Biso   1.000  C
  C9       1.0000 0.50370  0.76020  0.10710  Biso   1.000  C
  C10      1.0000 0.60710  0.74140  0.13570  Biso   1.000  C
  C11      1.0000 0.61320  0.77270  0.18120  Biso   1.000  C
  C12      1.0000 0.51680  0.82340  0.19920  Biso   1.000  C
  C13      1.0000 0.41840  0.84720  0.17030  Biso   1.000  C
  C14      1.0000 0.41220  0.81630  0.12500  Biso   1.000  C
  C15      1.0000 0.51560  0.84200  0.24880  Biso   1.000  C
  C16      1.0000 0.52620  0.75580  0.27660  Biso   1.000  C
  C17      1.0000 0.52140  0.76640  0.32280  Biso   1.000  C
  C18      1.0000 0.49900  0.94250  0.31680  Biso   1.000  C
  C19      1.0000 0.50310  0.93840  0.26960  Biso   1.000  C
  C20      1.0000 0.49420  0.03680  0.24190  Biso   1.000  C
  C21      1.0000 0.50000  0.04370  0.34170  Biso   1.000  C
  C22      1.0000 0.39100  0.04630  0.37210  Biso   1.000  C
  C23      1.0000 0.40410  0.14080  0.39780  Biso   1.000  C
  C24      1.0000 0.61860  0.22540  0.36650  Biso   1.000  C
  C25      1.0000 0.60990  0.13620  0.33850  Biso   1.000  C
  C26      1.0000 0.53510  0.67590  0.35350  Biso   1.000  C
  C27      1.0000 0.47820  0.66250  0.39590  Biso   1.000  C
  C28      1.0000 0.48760  0.57330  0.42190  Biso   1.000  C
  C29      1.0000 0.62050  0.51900  0.36890  Biso   1.000  C
  C30      1.0000 0.61400  0.60300  0.34050  Biso   1.000  C
  C31      1.0000 0.26990  0.33570  0.46260  Biso   1.000  C
  C32      1.0000 0.14020  0.33150  0.49010  Biso   1.000  C
  C33      1.0000 0.13180  0.29570  0.53530  Biso   1.000  C
  C34      1.0000 0.00930  0.28130  0.55980  Biso   1.000  C
  C35      1.0000 0.89610  0.30760  0.53840  Biso   1.000  C
  C36      1.0000 0.90630  0.34570  0.49410  Biso   1.000  C
  C37      1.0000 0.02930  0.35610  0.46980  Biso   1.000  C
  C38      1.0000 0.78070  0.36540  0.47120  Biso   1.000  C
  C39      1.0000 0.99630  0.23980  0.60710  Biso   1.000  C
  C40      1.0000 0.89290  0.25860  0.63570  Biso   1.000  C
  C41      1.0000 0.88680  0.22730  0.68120  Biso   1.000  C
  C42      1.0000 0.98320  0.17660  0.69920  Biso   1.000  C
  C43      1.0000 0.08160  0.15280  0.67030  Biso   1.000  C
  C44      1.0000 0.08780  0.18370  0.62500  Biso   1.000  C
  C45      1.0000 0.98440  0.15800  0.74880  Biso   1.000  C
  C46      1.0000 0.97380  0.24420  0.77660  Biso   1.000  C
  C47      1.0000 0.97860  0.23360  0.82280  Biso   1.000  C
  C48      1.0000 0.00100  0.05750  0.81680  Biso   1.000  C
  C49      1.0000 0.99690  0.06160  0.76960  Biso   1.000  C
  C50      1.0000 0.00580  0.96320  0.74190  Biso   1.000  C
  C51      1.0000 0.00000  0.95630  0.84170  Biso   1.000  C
  C52      1.0000 0.10900  0.95370  0.87210  Biso   1.000  C
  C53      1.0000 0.09590  0.85920  0.89780  Biso   1.000  C
  C54      1.0000 0.88140  0.77460  0.86650  Biso   1.000  C
  C55      1.0000 0.89010  0.86380  0.83850  Biso   1.000  C
  C56      1.0000 0.96490  0.32410  0.85350  Biso   1.000  C
  C57      1.0000 0.02180  0.33750  0.89590  Biso   1.000  C
  C58      1.0000 0.01240  0.42670  0.92190  Biso   1.000  C
  C59      1.0000 0.87950  0.48100  0.86890  Biso   1.000  C
  C60      1.0000 0.88600  0.39700  0.84050  Biso   1.000  C
  N1       1.0000 0.50530  0.85770  0.34291  Biso   1.000  N
  N2       1.0000 0.51540  0.22850  0.39675  Biso   1.000  N
  N3       1.0000 0.55270  0.50050  0.40829  Biso   1.000  N
  N4       1.0000 0.99470  0.14230  0.84291  Biso   1.000  N
  N5       1.0000 0.98460  0.77150  0.89675  Biso   1.000  N
  N6       1.0000 0.94730  0.49950  0.90829  Biso   1.000  N
  O1       1.0000 0.12190  0.66400  0.98373  Biso   1.000  O
  O2       1.0000 0.23760  0.65990  0.92046  Biso   1.000  O
  O3       1.0000 0.83040  0.65180  0.99280  Biso   1.000  O
  O4       1.0000 0.71430  0.60690  0.93075  Biso   1.000  O
  O5       1.0000 0.38240  0.06050  0.23904  Biso   1.000  O
  O6       1.0000 0.61470  0.08970  0.22160  Biso   1.000  O
  O7       1.0000 0.37810  0.33600  0.48373  Biso   1.000  O
  O8       1.0000 0.26240  0.34010  0.42046  Biso   1.000  O
  O9       1.0000 0.66960  0.34820  0.49280  Biso   1.000  O
  O10      1.0000 0.78570  0.39310  0.43075  Biso   1.000  O
  O11      1.0000 0.11760  0.93950  0.73904  Biso   1.000  O
  O12      1.0000 0.88530  0.91030  0.72160  Biso   1.000  O
  Co3      1.0000 0.03802  0.35709  0.05754  Biso   1.000  Co
  Co4      1.0000 0.46198  0.64291  0.55754  Biso   1.000  Co
  H35      1.0000 0.40280  0.87290  0.80010  Biso   1.000  H
  H36      1.0000 0.71190  0.28130  0.95090  Biso   1.000  H
  H37      1.0000 0.31040  0.29930  0.94560  Biso   1.000  H
  H38      1.0000 0.53580  0.38020  0.06070  Biso   1.000  H
  H39      1.0000 0.32560  0.29320  0.87580  Biso   1.000  H
  H40      1.0000 0.31540  0.24110  0.80000  Biso   1.000  H
  H41      1.0000 0.64580  0.11480  0.81840  Biso   1.000  H
  H42      1.0000 0.65610  0.16610  0.89410  Biso   1.000  H
  H43      1.0000 0.46310  0.31070  0.73630  Biso   1.000  H
  H44      1.0000 0.68960  0.01510  0.62520  Biso   1.000  H
  H45      1.0000 0.67120  0.85710  0.58250  Biso   1.000  H
  H46      1.0000 0.30060  0.71300  0.63530  Biso   1.000  H
  H47      1.0000 0.31850  0.86070  0.68330  Biso   1.000  H
  H48      1.0000 0.56750  0.28570  0.59250  Biso   1.000  H
  H49      1.0000 0.55490  0.43570  0.54910  Biso   1.000  H
  H50      1.0000 0.32390  0.52870  0.63980  Biso   1.000  H
  H51      1.0000 0.33790  0.38780  0.68770  Biso   1.000  H
  H52      1.0000 0.09720  0.12710  0.30010  Biso   1.000  H
  H53      1.0000 0.78810  0.71870  0.45090  Biso   1.000  H
  H54      1.0000 0.18960  0.70070  0.44560  Biso   1.000  H
  H55      1.0000 0.96420  0.61980  0.56070  Biso   1.000  H
  H56      1.0000 0.17440  0.70680  0.37580  Biso   1.000  H
  H57      1.0000 0.18460  0.75890  0.30000  Biso   1.000  H
  H58      1.0000 0.85420  0.88520  0.31840  Biso   1.000  H
  H59      1.0000 0.84390  0.83390  0.39410  Biso   1.000  H
  H60      1.0000 0.03690  0.68930  0.23630  Biso   1.000  H
  H61      1.0000 0.81040  0.98490  0.12520  Biso   1.000  H
  H62      1.0000 0.82880  0.14290  0.08250  Biso   1.000  H
  H63      1.0000 0.19940  0.28700  0.13530  Biso   1.000  H
  H64      1.0000 0.18150  0.13930  0.18330  Biso   1.000  H
  H65      1.0000 0.93250  0.71430  0.09250  Biso   1.000  H
  H66      1.0000 0.94510  0.56430  0.04910  Biso   1.000  H
  H67      1.0000 0.17610  0.47130  0.13980  Biso   1.000  H
  H68      1.0000 0.16210  0.61220  0.18770  Biso   1.000  H
  C61      1.0000 0.76990  0.33570  0.03740  Biso   1.000  C
  C62      1.0000 0.64020  0.33150  0.00990  Biso   1.000  C
  C63      1.0000 0.63180  0.29570  0.96470  Biso   1.000  C
  C64      1.0000 0.50930  0.28130  0.94020  Biso   1.000  C
  C65      1.0000 0.39610  0.30760  0.96160  Biso   1.000  C
  C66      1.0000 0.40630  0.34570  0.00590  Biso   1.000  C
  C67      1.0000 0.52930  0.35610  0.03020  Biso   1.000  C
  C68      1.0000 0.28070  0.36540  0.02880  Biso   1.000  C
  C69      1.0000 0.49630  0.23980  0.89290  Biso   1.000  C
  C70      1.0000 0.39290  0.25860  0.86430  Biso   1.000  C
  C71      1.0000 0.38680  0.22730  0.81880  Biso   1.000  C
  C72      1.0000 0.48320  0.17660  0.80080  Biso   1.000  C
  C73      1.0000 0.58160  0.15280  0.82970  Biso   1.000  C
  C74      1.0000 0.58780  0.18370  0.87500  Biso   1.000  C
  C75      1.0000 0.48440  0.15800  0.75120  Biso   1.000  C
  C76      1.0000 0.47380  0.24420  0.72340  Biso   1.000  C
  C77      1.0000 0.47860  0.23360  0.67720  Biso   1.000  C
  C78      1.0000 0.50100  0.05750  0.68320  Biso   1.000  C
  C79      1.0000 0.49690  0.06160  0.73040  Biso   1.000  C
  C80      1.0000 0.50580  0.96320  0.75810  Biso   1.000  C
  C81      1.0000 0.50000  0.95630  0.65830  Biso   1.000  C
  C82      1.0000 0.60900  0.95370  0.62790  Biso   1.000  C
  C83      1.0000 0.59590  0.85920  0.60220  Biso   1.000  C
  C84      1.0000 0.38140  0.77460  0.63350  Biso   1.000  C
  C85      1.0000 0.39010  0.86380  0.66150  Biso   1.000  C
  C86      1.0000 0.46490  0.32410  0.64650  Biso   1.000  C
  C87      1.0000 0.52180  0.33750  0.60410  Biso   1.000  C
  C88      1.0000 0.51240  0.42670  0.57810  Biso   1.000  C
  C89      1.0000 0.37950  0.48100  0.63110  Biso   1.000  C
  C90      1.0000 0.38600  0.39700  0.65950  Biso   1.000  C
  C91      1.0000 0.73010  0.66430  0.53740  Biso   1.000  C
  C92      1.0000 0.85980  0.66850  0.50990  Biso   1.000  C
  C93      1.0000 0.86820  0.70430  0.46470  Biso   1.000  C
  C94      1.0000 0.99070  0.71870  0.44020  Biso   1.000  C
  C95      1.0000 0.10390  0.69240  0.46160  Biso   1.000  C
  C96      1.0000 0.09370  0.65430  0.50590  Biso   1.000  C
  C97      1.0000 0.97070  0.64390  0.53020  Biso   1.000  C
  C98      1.0000 0.21930  0.63460  0.52880  Biso   1.000  C
  C99      1.0000 0.00370  0.76020  0.39290  Biso   1.000  C
  C100     1.0000 0.10710  0.74140  0.36430  Biso   1.000  C
  C101     1.0000 0.11320  0.77270  0.31880  Biso   1.000  C
  C102     1.0000 0.01680  0.82340  0.30080  Biso   1.000  C
  C103     1.0000 0.91840  0.84720  0.32970  Biso   1.000  C
  C104     1.0000 0.91220  0.81630  0.37500  Biso   1.000  C
  C105     1.0000 0.01560  0.84200  0.25120  Biso   1.000  C
  C106     1.0000 0.02620  0.75580  0.22340  Biso   1.000  C
  C107     1.0000 0.02140  0.76640  0.17720  Biso   1.000  C
  C108     1.0000 0.99900  0.94250  0.18320  Biso   1.000  C
  C109     1.0000 0.00310  0.93840  0.23040  Biso   1.000  C
  C110     1.0000 0.99420  0.03680  0.25810  Biso   1.000  C
  C111     1.0000 0.00000  0.04370  0.15830  Biso   1.000  C
  C112     1.0000 0.89100  0.04630  0.12790  Biso   1.000  C
  C113     1.0000 0.90410  0.14080  0.10220  Biso   1.000  C
  C114     1.0000 0.11860  0.22540  0.13350  Biso   1.000  C
  C115     1.0000 0.10990  0.13620  0.16150  Biso   1.000  C
  C116     1.0000 0.03510  0.67590  0.14650  Biso   1.000  C
  C117     1.0000 0.97820  0.66250  0.10410  Biso   1.000  C
  C118     1.0000 0.98760  0.57330  0.07810  Biso   1.000  C
  C119     1.0000 0.12050  0.51900  0.13110  Biso   1.000  C
  C120     1.0000 0.11400  0.60300  0.15950  Biso   1.000  C
  N7       1.0000 0.49470  0.14230  0.65709  Biso   1.000  N
  N8       1.0000 0.48460  0.77150  0.60325  Biso   1.000  N
  N9       1.0000 0.44730  0.49950  0.59171  Biso   1.000  N
  N10      1.0000 0.00530  0.85770  0.15709  Biso   1.000  N
  N11      1.0000 0.01540  0.22850  0.10325  Biso   1.000  N
  N12      1.0000 0.05270  0.50050  0.09171  Biso   1.000  N
  O13      1.0000 0.87810  0.33600  0.01627  Biso   1.000  O
  O14      1.0000 0.76240  0.34010  0.07954  Biso   1.000  O
  O15      1.0000 0.16960  0.34820  0.00720  Biso   1.000  O
  O16      1.0000 0.28570  0.39310  0.06925  Biso   1.000  O
  O17      1.0000 0.61760  0.93950  0.76096  Biso   1.000  O
  O18      1.0000 0.38530  0.91030  0.77840  Biso   1.000  O
  O19      1.0000 0.62190  0.66400  0.51627  Biso   1.000  O
  O20      1.0000 0.73760  0.65990  0.57954  Biso   1.000  O
  O21      1.0000 0.33040  0.65180  0.50720  Biso   1.000  O
  O22      1.0000 0.21430  0.60690  0.56925  Biso   1.000  O
  O23      1.0000 0.88240  0.06050  0.26096  Biso   1.000  O
  O24      1.0000 0.11470  0.08970  0.27840  Biso   1.000  O
