data_image0
_cell_length_a       10.7731
_cell_length_b       12.4199
_cell_length_c       13.5326
_cell_angle_alpha    99.0989
_cell_angle_beta     90
_cell_angle_gamma    115.703

_symmetry_space_group_name_H-M    P 1
_symmetry_int_tables_number       1

loop_
  _symmetry_equiv_pos_as_xyz
  'x, y, z'

loop_
  _atom_site_label
  _atom_site_occupancy
  _atom_site_fract_x
  _atom_site_fract_y
  _atom_site_fract_z
  _atom_site_thermal_displace_type
  _atom_site_B_iso_or_equiv
  _atom_site_type_symbol
  Cd1      1.0000 0.93517  0.40610  0.85865  Biso   1.000  Cd
  Cd2      1.0000 0.52907  0.59390  0.64135  Biso   1.000  Cd
  Cd3      1.0000 0.06483  0.59390  0.14135  Biso   1.000  Cd
  Cd4      1.0000 0.47093  0.40610  0.35865  Biso   1.000  Cd
  H1       1.0000 0.80480  0.11340  0.83730  Biso   1.000  H
  H2       1.0000 0.63350  0.95420  0.89370  Biso   1.000  H
  H3       1.0000 0.68690  0.33680  0.98700  Biso   1.000  H
  H4       1.0000 0.52000  0.18520  0.05280  Biso   1.000  H
  H5       1.0000 0.29590  0.57260  0.83210  Biso   1.000  H
  H6       1.0000 0.69140  0.88660  0.66270  Biso   1.000  H
  H7       1.0000 0.67930  0.04580  0.60630  Biso   1.000  H
  H8       1.0000 0.35010  0.66320  0.51300  Biso   1.000  H
  H9       1.0000 0.33480  0.81480  0.44720  Biso   1.000  H
  H10      1.0000 0.72330  0.42740  0.66790  Biso   1.000  H
  H11      1.0000 0.19520  0.88660  0.16270  Biso   1.000  H
  H12      1.0000 0.36650  0.04580  0.10630  Biso   1.000  H
  H13      1.0000 0.31310  0.66320  0.01300  Biso   1.000  H
  H14      1.0000 0.48000  0.81480  0.94720  Biso   1.000  H
  H15      1.0000 0.70410  0.42740  0.16790  Biso   1.000  H
  H16      1.0000 0.30860  0.11340  0.33730  Biso   1.000  H
  H17      1.0000 0.32070  0.95420  0.39370  Biso   1.000  H
  H18      1.0000 0.64990  0.33680  0.48700  Biso   1.000  H
  H19      1.0000 0.66520  0.18520  0.55280  Biso   1.000  H
  H20      1.0000 0.27670  0.57260  0.33210  Biso   1.000  H
  C1       1.0000 0.74660  0.12920  0.88190  Biso   1.000  C
  C2       1.0000 0.64290  0.03240  0.91550  Biso   1.000  C
  C3       1.0000 0.67910  0.25860  0.96940  Biso   1.000  C
  C4       1.0000 0.57600  0.16700  0.00750  Biso   1.000  C
  C5       1.0000 0.55540  0.05020  0.97960  Biso   1.000  C
  C6       1.0000 0.24980  0.51900  0.77360  Biso   1.000  C
  C7       1.0000 0.21130  0.42060  0.62470  Biso   1.000  C
  C8       1.0000 0.24460  0.38340  0.52300  Biso   1.000  C
  C9       1.0000 0.08870  0.38180  0.66990  Biso   1.000  C
  C10      1.0000 0.94890  0.29040  0.63530  Biso   1.000  C
  C11      1.0000 0.61740  0.87080  0.61810  Biso   1.000  C
  C12      1.0000 0.61050  0.96760  0.58450  Biso   1.000  C
  C13      1.0000 0.42050  0.74140  0.53060  Biso   1.000  C
  C14      1.0000 0.40900  0.83300  0.49250  Biso   1.000  C
  C15      1.0000 0.50520  0.94980  0.52040  Biso   1.000  C
  C16      1.0000 0.73080  0.48100  0.72640  Biso   1.000  C
  C17      1.0000 0.79070  0.57940  0.87530  Biso   1.000  C
  C18      1.0000 0.86120  0.61660  0.97700  Biso   1.000  C
  C19      1.0000 0.70690  0.61820  0.83010  Biso   1.000  C
  C20      1.0000 0.65850  0.70960  0.86470  Biso   1.000  C
  C21      1.0000 0.25340  0.87080  0.11810  Biso   1.000  C
  C22      1.0000 0.35710  0.96760  0.08450  Biso   1.000  C
  C23      1.0000 0.32090  0.74140  0.03060  Biso   1.000  C
  C24      1.0000 0.42400  0.83300  0.99250  Biso   1.000  C
  C25      1.0000 0.44460  0.94980  0.02040  Biso   1.000  C
  C26      1.0000 0.75020  0.48100  0.22640  Biso   1.000  C
  C27      1.0000 0.78870  0.57940  0.37530  Biso   1.000  C
  C28      1.0000 0.75540  0.61660  0.47700  Biso   1.000  C
  C29      1.0000 0.91130  0.61820  0.33010  Biso   1.000  C
  C30      1.0000 0.05110  0.70960  0.36470  Biso   1.000  C
  C31      1.0000 0.38260  0.12920  0.38190  Biso   1.000  C
  C32      1.0000 0.38950  0.03240  0.41550  Biso   1.000  C
  C33      1.0000 0.57950  0.25860  0.46940  Biso   1.000  C
  C34      1.0000 0.59100  0.16700  0.50750  Biso   1.000  C
  C35      1.0000 0.49480  0.05020  0.47960  Biso   1.000  C
  C36      1.0000 0.26920  0.51900  0.27360  Biso   1.000  C
  C37      1.0000 0.20930  0.42060  0.12470  Biso   1.000  C
  C38      1.0000 0.13880  0.38340  0.02300  Biso   1.000  C
  C39      1.0000 0.29310  0.38180  0.16990  Biso   1.000  C
  C40      1.0000 0.34150  0.29040  0.13530  Biso   1.000  C
  N1       1.0000 0.76730  0.24160  0.90950  Biso   1.000  N
  N2       1.0000 0.11450  0.44660  0.76520  Biso   1.000  N
  N3       1.0000 0.31270  0.50720  0.69090  Biso   1.000  N
  N4       1.0000 0.52570  0.75840  0.59050  Biso   1.000  N
  N5       1.0000 0.66790  0.55340  0.73480  Biso   1.000  N
  N6       1.0000 0.80550  0.49280  0.80910  Biso   1.000  N
  N7       1.0000 0.23270  0.75840  0.09050  Biso   1.000  N
  N8       1.0000 0.88550  0.55340  0.23480  Biso   1.000  N
  N9       1.0000 0.68730  0.49280  0.30910  Biso   1.000  N
  N10      1.0000 0.47430  0.24160  0.40950  Biso   1.000  N
  N11      1.0000 0.33210  0.44660  0.26520  Biso   1.000  N
  N12      1.0000 0.19450  0.50720  0.19090  Biso   1.000  N
  O1       1.0000 0.85470  0.27140  0.69180  Biso   1.000  O
  O2       1.0000 0.93060  0.22940  0.54660  Biso   1.000  O
  O3       1.0000 0.15290  0.29800  0.46550  Biso   1.000  O
  O4       1.0000 0.36790  0.43940  0.50330  Biso   1.000  O
  O5       1.0000 0.58330  0.72860  0.80820  Biso   1.000  O
  O6       1.0000 0.70120  0.77060  0.95340  Biso   1.000  O
  O7       1.0000 0.85490  0.70200  0.03450  Biso   1.000  O
  O8       1.0000 0.92850  0.56060  0.99670  Biso   1.000  O
  O9       1.0000 0.14530  0.72860  0.30820  Biso   1.000  O
  O10      1.0000 0.06940  0.77060  0.45340  Biso   1.000  O
  O11      1.0000 0.84710  0.70200  0.53450  Biso   1.000  O
  O12      1.0000 0.63210  0.56060  0.49670  Biso   1.000  O
  O13      1.0000 0.41670  0.27140  0.19180  Biso   1.000  O
  O14      1.0000 0.29880  0.22940  0.04660  Biso   1.000  O
  O15      1.0000 0.14510  0.29800  0.96550  Biso   1.000  O
  O16      1.0000 0.07150  0.43940  0.00330  Biso   1.000  O
