data_image0
_cell_length_a       7.8733
_cell_length_b       10.1432
_cell_length_c       13.528
_cell_angle_alpha    68.355
_cell_angle_beta     79.645
_cell_angle_gamma    70.702

_symmetry_space_group_name_H-M    P 1
_symmetry_int_tables_number       1

loop_
  _symmetry_equiv_pos_as_xyz
  'x, y, z'

loop_
  _atom_site_label
  _atom_site_occupancy
  _atom_site_fract_x
  _atom_site_fract_y
  _atom_site_fract_z
  _atom_site_thermal_displace_type
  _atom_site_B_iso_or_equiv
  _atom_site_type_symbol
  Cd1      1.0000 0.82667  0.65590  0.54336  Biso   1.000  Cd
  Cd2      1.0000 0.17333  0.34410  0.45664  Biso   1.000  Cd
  Cd3      1.0000 0.50000  0.00000  0.50000  Biso   1.000  Cd
  H1       1.0000 0.85330  0.13180  0.55650  Biso   1.000  H
  H2       1.0000 0.79750  0.22290  0.82870  Biso   1.000  H
  H3       1.0000 0.83030  0.81570  0.84190  Biso   1.000  H
  H4       1.0000 0.60230  0.16680  0.97320  Biso   1.000  H
  H5       1.0000 0.55090  0.11190  0.15660  Biso   1.000  H
  H6       1.0000 0.88730  0.70390  0.19690  Biso   1.000  H
  H7       1.0000 0.93570  0.75930  0.01270  Biso   1.000  H
  H8       1.0000 0.58690  0.22240  0.27940  Biso   1.000  H
  H9       1.0000 0.72340  0.35440  0.13700  Biso   1.000  H
  H10      1.0000 0.65650  0.52390  0.12190  Biso   1.000  H
  H11      1.0000 0.84590  0.42770  0.16580  Biso   1.000  H
  H12      1.0000 0.57620  0.46560  0.40070  Biso   1.000  H
  H13      1.0000 0.75220  0.49720  0.33480  Biso   1.000  H
  H14      1.0000 0.56300  0.59440  0.29100  Biso   1.000  H
  H15      1.0000 0.14670  0.86820  0.44350  Biso   1.000  H
  H16      1.0000 0.20250  0.77710  0.17130  Biso   1.000  H
  H17      1.0000 0.16970  0.18430  0.15810  Biso   1.000  H
  H18      1.0000 0.39770  0.83320  0.02680  Biso   1.000  H
  H19      1.0000 0.44910  0.88810  0.84340  Biso   1.000  H
  H20      1.0000 0.11270  0.29610  0.80310  Biso   1.000  H
  H21      1.0000 0.06430  0.24070  0.98730  Biso   1.000  H
  H22      1.0000 0.41310  0.77760  0.72060  Biso   1.000  H
  H23      1.0000 0.27660  0.64560  0.86300  Biso   1.000  H
  H24      1.0000 0.34350  0.47610  0.87810  Biso   1.000  H
  H25      1.0000 0.15410  0.57230  0.83420  Biso   1.000  H
  H26      1.0000 0.42380  0.53440  0.59930  Biso   1.000  H
  H27      1.0000 0.24780  0.50280  0.66520  Biso   1.000  H
  H28      1.0000 0.43700  0.40560  0.70900  Biso   1.000  H
  C1       1.0000 0.83980  0.95770  0.69070  Biso   1.000  C
  C2       1.0000 0.84230  0.10210  0.63050  Biso   1.000  C
  C3       1.0000 0.82790  0.20250  0.68260  Biso   1.000  C
  C4       1.0000 0.80900  0.15580  0.79440  Biso   1.000  C
  C5       1.0000 0.80690  0.01230  0.85510  Biso   1.000  C
  C6       1.0000 0.82620  0.91340  0.80230  Biso   1.000  C
  C7       1.0000 0.77630  0.97110  0.97420  Biso   1.000  C
  C8       1.0000 0.66050  0.07340  0.01810  Biso   1.000  C
  C9       1.0000 0.62810  0.04080  0.12840  Biso   1.000  C
  C10      1.0000 0.71260  0.90150  0.19450  Biso   1.000  C
  C11      1.0000 0.82900  0.79710  0.15180  Biso   1.000  C
  C12      1.0000 0.85980  0.83060  0.04100  Biso   1.000  C
  C13      1.0000 0.84320  0.84980  0.63850  Biso   1.000  C
  C14      1.0000 0.83790  0.35460  0.62410  Biso   1.000  C
  C15      1.0000 0.68490  0.86770  0.31480  Biso   1.000  C
  C16      1.0000 0.57800  0.28230  0.31930  Biso   1.000  C
  C17      1.0000 0.72400  0.42800  0.16540  Biso   1.000  C
  C18      1.0000 0.63200  0.49650  0.33030  Biso   1.000  C
  C19      1.0000 0.16020  0.04230  0.30930  Biso   1.000  C
  C20      1.0000 0.15770  0.89790  0.36950  Biso   1.000  C
  C21      1.0000 0.17210  0.79750  0.31740  Biso   1.000  C
  C22      1.0000 0.19100  0.84420  0.20560  Biso   1.000  C
  C23      1.0000 0.19310  0.98770  0.14490  Biso   1.000  C
  C24      1.0000 0.17380  0.08660  0.19770  Biso   1.000  C
  C25      1.0000 0.22370  0.02890  0.02580  Biso   1.000  C
  C26      1.0000 0.33950  0.92660  0.98190  Biso   1.000  C
  C27      1.0000 0.37190  0.95920  0.87160  Biso   1.000  C
  C28      1.0000 0.28740  0.09850  0.80550  Biso   1.000  C
  C29      1.0000 0.17100  0.20290  0.84820  Biso   1.000  C
  C30      1.0000 0.14020  0.16940  0.95900  Biso   1.000  C
  C31      1.0000 0.15680  0.15020  0.36150  Biso   1.000  C
  C32      1.0000 0.16210  0.64540  0.37590  Biso   1.000  C
  C33      1.0000 0.31510  0.13230  0.68520  Biso   1.000  C
  C34      1.0000 0.42200  0.71770  0.68070  Biso   1.000  C
  C35      1.0000 0.27600  0.57200  0.83460  Biso   1.000  C
  C36      1.0000 0.36800  0.50350  0.66970  Biso   1.000  C
  N1       1.0000 0.64000  0.39450  0.27630  Biso   1.000  N
  N2       1.0000 0.36000  0.60550  0.72370  Biso   1.000  N
  O1       1.0000 0.88390  0.71610  0.68620  Biso   1.000  O
  O2       1.0000 0.79850  0.90040  0.54170  Biso   1.000  O
  O3       1.0000 0.88110  0.39670  0.52110  Biso   1.000  O
  O4       1.0000 0.79780  0.44670  0.67230  Biso   1.000  O
  O5       1.0000 0.58060  0.97140  0.34540  Biso   1.000  O
  O6       1.0000 0.76570  0.74360  0.37200  Biso   1.000  O
  O7       1.0000 0.50170  0.24750  0.41640  Biso   1.000  O
  O8       1.0000 0.11610  0.28390  0.31380  Biso   1.000  O
  O9       1.0000 0.20150  0.09960  0.45830  Biso   1.000  O
  O10      1.0000 0.11890  0.60330  0.47890  Biso   1.000  O
  O11      1.0000 0.20220  0.55330  0.32770  Biso   1.000  O
  O12      1.0000 0.41940  0.02860  0.65460  Biso   1.000  O
  O13      1.0000 0.23430  0.25640  0.62800  Biso   1.000  O
  O14      1.0000 0.49830  0.75250  0.58360  Biso   1.000  O
