data_image0
_cell_length_a       5.0483
_cell_length_b       10.2114
_cell_length_c       10.2114
_cell_angle_alpha    97.6989
_cell_angle_beta     96.6359
_cell_angle_gamma    83.3641

_symmetry_space_group_name_H-M    P 1
_symmetry_int_tables_number       1

loop_
  _symmetry_equiv_pos_as_xyz
  'x, y, z'

loop_
  _atom_site_label
  _atom_site_occupancy
  _atom_site_fract_x
  _atom_site_fract_y
  _atom_site_fract_z
  _atom_site_thermal_displace_type
  _atom_site_B_iso_or_equiv
  _atom_site_type_symbol
  Ba1      1.0000 0.66105  0.10554  0.89446  Biso   1.000  Ba
  Ba2      1.0000 0.33895  0.89446  0.10554  Biso   1.000  Ba
  U1       1.0000 0.50000  0.00000  0.50000  Biso   1.000  U
  U2       1.0000 0.50000  0.50000  0.00000  Biso   1.000  U
  P1       1.0000 0.09730  0.88009  0.70393  Biso   1.000  P
  P2       1.0000 0.90270  0.70393  0.88009  Biso   1.000  P
  P3       1.0000 0.90270  0.11991  0.29607  Biso   1.000  P
  P4       1.0000 0.09730  0.29607  0.11991  Biso   1.000  P
  H1       1.0000 0.14860  0.65250  0.70030  Biso   1.000  H
  H2       1.0000 0.85140  0.70030  0.65250  Biso   1.000  H
  H3       1.0000 0.85140  0.34750  0.29970  Biso   1.000  H
  H4       1.0000 0.14860  0.29970  0.34750  Biso   1.000  H
  C1       1.0000 0.00000  0.71900  0.71900  Biso   1.000  C
  C2       1.0000 0.00000  0.28100  0.28100  Biso   1.000  C
  O1       1.0000 0.36500  0.13226  0.61426  Biso   1.000  O
  O2       1.0000 0.27480  0.85951  0.58771  Biso   1.000  O
  O3       1.0000 0.22520  0.94442  0.83262  Biso   1.000  O
  O4       1.0000 0.83180  0.96435  0.66375  Biso   1.000  O
  O5       1.0000 0.63500  0.61426  0.13226  Biso   1.000  O
  O6       1.0000 0.72520  0.58771  0.85951  Biso   1.000  O
  O7       1.0000 0.77480  0.83262  0.94442  Biso   1.000  O
  O8       1.0000 0.16820  0.66375  0.96435  Biso   1.000  O
  O9       1.0000 0.63500  0.86774  0.38574  Biso   1.000  O
  O10      1.0000 0.72520  0.14049  0.41229  Biso   1.000  O
  O11      1.0000 0.77480  0.05558  0.16738  Biso   1.000  O
  O12      1.0000 0.16820  0.03565  0.33625  Biso   1.000  O
  O13      1.0000 0.36500  0.38574  0.86774  Biso   1.000  O
  O14      1.0000 0.27480  0.41229  0.14049  Biso   1.000  O
  O15      1.0000 0.22520  0.16738  0.05558  Biso   1.000  O
  O16      1.0000 0.83180  0.33625  0.03565  Biso   1.000  O
  O17      1.0000 0.87820  0.26320  0.73680  Biso   1.000  O
  O18      1.0000 0.12180  0.73680  0.26320  Biso   1.000  O
