data_image0
_cell_length_a       11.001
_cell_length_b       11.001
_cell_length_c       6.333
_cell_angle_alpha    90
_cell_angle_beta     90
_cell_angle_gamma    120

_symmetry_space_group_name_H-M    "P 1"
_symmetry_int_tables_number       1

loop_
  _symmetry_equiv_pos_as_xyz
  'x, y, z'

loop_
  _atom_site_label
  _atom_site_occupancy
  _atom_site_fract_x
  _atom_site_fract_y
  _atom_site_fract_z
  _atom_site_thermal_displace_type
  _atom_site_B_iso_or_equiv
  _atom_site_type_symbol
  O1       1.0000 0.01500  0.80400  0.12400  Biso   1.000  O
  O2       1.0000 0.00300  0.77500  0.91600  Biso   1.000  O
  O3       1.0000 0.19700  0.97800  0.12400  Biso   1.000  O
  O4       1.0000 0.23100  0.01000  0.95300  Biso   1.000  O
  O5       1.0000 0.92600  0.07100  0.66800  Biso   1.000  O
  O6       1.0000 0.86800  0.93700  0.31800  Biso   1.000  O
  O7       1.0000 0.34500  0.89900  0.95000  Biso   1.000  O
  O8       1.0000 0.32100  0.85800  0.13100  Biso   1.000  O
  O9       1.0000 0.10300  0.65100  0.93000  Biso   1.000  O
  O10      1.0000 0.13500  0.69100  0.12000  Biso   1.000  O
  O11      1.0000 0.26900  0.53400  0.31500  Biso   1.000  O
  O12      1.0000 0.40100  0.59300  0.66800  Biso   1.000  O
  C1       1.0000 0.11100  0.78000  0.04900  Biso   1.000  C
  C2       1.0000 0.22800  0.89600  0.04500  Biso   1.000  C
  C3       1.0000 0.94100  0.02100  0.49400  Biso   1.000  C
  C4       1.0000 0.32200  0.59400  0.49400  Biso   1.000  C
  O13      1.0000 0.19600  0.21100  0.12400  Biso   1.000  O
  O14      1.0000 0.22500  0.22800  0.91600  Biso   1.000  O
  O15      1.0000 0.02200  0.21900  0.12400  Biso   1.000  O
  O16      1.0000 0.99000  0.22100  0.95300  Biso   1.000  O
  O17      1.0000 0.92900  0.85500  0.66800  Biso   1.000  O
  O18      1.0000 0.06300  0.93100  0.31800  Biso   1.000  O
  O19      1.0000 0.10100  0.44600  0.95000  Biso   1.000  O
  O20      1.0000 0.14200  0.46300  0.13100  Biso   1.000  O
  O21      1.0000 0.34900  0.45200  0.93000  Biso   1.000  O
  O22      1.0000 0.30900  0.44400  0.12000  Biso   1.000  O
  O23      1.0000 0.46600  0.73500  0.31500  Biso   1.000  O
  O24      1.0000 0.40700  0.80800  0.66800  Biso   1.000  O
  C5       1.0000 0.22000  0.33100  0.04900  Biso   1.000  C
  C6       1.0000 0.10400  0.33200  0.04500  Biso   1.000  C
  C7       1.0000 0.97900  0.92000  0.49400  Biso   1.000  C
  C8       1.0000 0.40600  0.72800  0.49400  Biso   1.000  C
  O25      1.0000 0.78900  0.98500  0.12400  Biso   1.000  O
  O26      1.0000 0.77200  0.99700  0.91600  Biso   1.000  O
  O27      1.0000 0.78100  0.80300  0.12400  Biso   1.000  O
  O28      1.0000 0.77900  0.76900  0.95300  Biso   1.000  O
  O29      1.0000 0.14500  0.07400  0.66800  Biso   1.000  O
  O30      1.0000 0.06900  0.13200  0.31800  Biso   1.000  O
  O31      1.0000 0.55400  0.65500  0.95000  Biso   1.000  O
  O32      1.0000 0.53700  0.67900  0.13100  Biso   1.000  O
  O33      1.0000 0.54800  0.89700  0.93000  Biso   1.000  O
  O34      1.0000 0.55600  0.86500  0.12000  Biso   1.000  O
  O35      1.0000 0.26500  0.73100  0.31500  Biso   1.000  O
  O36      1.0000 0.19200  0.59900  0.66800  Biso   1.000  O
  C9       1.0000 0.66900  0.88900  0.04900  Biso   1.000  C
  C10      1.0000 0.66800  0.77200  0.04500  Biso   1.000  C
  C11      1.0000 0.08000  0.05900  0.49400  Biso   1.000  C
  C12      1.0000 0.27200  0.67800  0.49400  Biso   1.000  C
  Np1      1.0000 0.00000  0.00000  0.99170  Biso   1.000  Np
  Np2      1.0000 0.33333  0.66667  0.99170  Biso   1.000  Np
