data_image0
_cell_length_a       5.0328
_cell_length_b       11.176
_cell_length_c       12.6797
_cell_angle_alpha    91.8477
_cell_angle_beta     101.447
_cell_angle_gamma    80.6499

_symmetry_space_group_name_H-M    P 1
_symmetry_int_tables_number       1

loop_
  _symmetry_equiv_pos_as_xyz
  'x, y, z'

loop_
  _atom_site_label
  _atom_site_occupancy
  _atom_site_fract_x
  _atom_site_fract_y
  _atom_site_fract_z
  _atom_site_thermal_displace_type
  _atom_site_B_iso_or_equiv
  _atom_site_type_symbol
  Cu1      1.0000 0.39944  0.19775  0.22700  Biso   1.000  Cu
  Cu2      1.0000 0.17244  0.69775  0.77300  Biso   1.000  Cu
  H1       1.0000 0.58490  0.58990  0.45540  Biso   1.000  H
  H2       1.0000 0.17050  0.41060  0.87300  Biso   1.000  H
  H3       1.0000 0.40840  0.27300  0.00260  Biso   1.000  H
  H4       1.0000 0.63380  0.51440  0.06680  Biso   1.000  H
  H5       1.0000 0.89410  0.37750  0.19260  Biso   1.000  H
  H6       1.0000 0.09660  0.35730  0.51100  Biso   1.000  H
  H7       1.0000 0.03430  0.46730  0.66460  Biso   1.000  H
  H8       1.0000 0.50630  0.69270  0.60900  Biso   1.000  H
  H9       1.0000 0.12950  0.08990  0.54460  Biso   1.000  H
  H10      1.0000 0.29750  0.91060  0.12700  Biso   1.000  H
  H11      1.0000 0.40580  0.77300  0.99740  Biso   1.000  H
  H12      1.0000 0.56700  0.01440  0.93320  Biso   1.000  H
  H13      1.0000 0.70150  0.87750  0.80740  Biso   1.000  H
  H14      1.0000 0.58560  0.85730  0.48900  Biso   1.000  H
  H15      1.0000 0.36970  0.96730  0.33540  Biso   1.000  H
  H16      1.0000 0.89730  0.19270  0.39100  Biso   1.000  H
  C1       1.0000 0.34667  0.46160  0.46454  Biso   1.000  C
  C2       1.0000 0.40057  0.39150  0.36494  Biso   1.000  C
  C3       1.0000 0.47090  0.56360  0.49620  Biso   1.000  C
  C4       1.0000 0.10830  0.40510  0.93680  Biso   1.000  C
  C5       1.0000 0.25185  0.32320  0.01570  Biso   1.000  C
  C6       1.0000 0.79173  0.46680  0.05206  Biso   1.000  C
  C7       1.0000 0.87069  0.47890  0.95378  Biso   1.000  C
  C8       1.0000 0.70780  0.56760  0.86900  Biso   1.000  C
  C9       1.0000 0.94889  0.38390  0.12738  Biso   1.000  C
  C10      1.0000 0.18126  0.42520  0.52892  Biso   1.000  C
  C11      1.0000 0.14403  0.49230  0.62126  Biso   1.000  C
  C12      1.0000 0.42262  0.62500  0.58844  Biso   1.000  C
  C13      1.0000 0.88213  0.96160  0.53546  Biso   1.000  C
  C14      1.0000 0.03563  0.89150  0.63506  Biso   1.000  C
  C15      1.0000 0.97470  0.06360  0.50380  Biso   1.000  C
  C16      1.0000 0.17150  0.90510  0.06320  Biso   1.000  C
  C17      1.0000 0.23615  0.82320  0.98430  Biso   1.000  C
  C18      1.0000 0.73967  0.96680  0.94794  Biso   1.000  C
  C19      1.0000 0.91691  0.97890  0.04622  Biso   1.000  C
  C20      1.0000 0.83880  0.06760  0.13100  Biso   1.000  C
  C21      1.0000 0.82151  0.88390  0.87262  Biso   1.000  C
  C22      1.0000 0.65234  0.92520  0.47108  Biso   1.000  C
  C23      1.0000 0.52277  0.99230  0.37874  Biso   1.000  C
  C24      1.0000 0.83418  0.12500  0.41156  Biso   1.000  C
  N1       1.0000 0.17558  0.31290  0.10996  Biso   1.000  N
  N2       1.0000 0.25922  0.59050  0.64964  Biso   1.000  N
  N3       1.0000 0.06562  0.81290  0.89004  Biso   1.000  N
  N4       1.0000 0.60958  0.09050  0.35036  Biso   1.000  N
  O1       1.0000 0.26903  0.30300  0.34086  Biso   1.000  O
  O2       1.0000 0.81706  0.59750  0.79712  Biso   1.000  O
  O3       1.0000 0.56588  0.42010  0.31536  Biso   1.000  O
  O4       1.0000 0.46036  0.60420  0.87852  Biso   1.000  O
  O5       1.0000 0.92817  0.80300  0.65914  Biso   1.000  O
  O6       1.0000 0.01994  0.09750  0.20288  Biso   1.000  O
  O7       1.0000 0.25052  0.92010  0.68464  Biso   1.000  O
  O8       1.0000 0.58184  0.10420  0.12148  Biso   1.000  O
