data_image0
_cell_length_a       5.653
_cell_length_b       6.627
_cell_length_c       9.391
_cell_angle_alpha    70.788
_cell_angle_beta     75.836
_cell_angle_gamma    89.68

_symmetry_space_group_name_H-M    "P 1"
_symmetry_int_tables_number       1

loop_
  _symmetry_equiv_pos_as_xyz
  'x, y, z'

loop_
  _atom_site_label
  _atom_site_occupancy
  _atom_site_fract_x
  _atom_site_fract_y
  _atom_site_fract_z
  _atom_site_thermal_displace_type
  _atom_site_B_iso_or_equiv
  _atom_site_type_symbol
  In1      1.0000 0.28640  0.33170  0.83940  Biso   1.000  In
  P1       1.0000 0.30600  0.79020  0.92400  Biso   1.000  P
  O1       1.0000 0.27700  0.65400  0.82460  Biso   1.000  O
  O2       1.0000 0.44780  0.24020  0.03050  Biso   1.000  O
  O3       1.0000 0.90700  0.25500  0.93130  Biso   1.000  O
  O4       1.0000 0.68400  0.97490  0.18990  Biso   1.000  O
  O5       1.0000 0.18910  0.44190  0.60450  Biso   1.000  O
  O6       1.0000 0.63990  0.42600  0.65500  Biso   1.000  O
  C1       1.0000 0.37200  0.50600  0.48740  Biso   1.000  C
  In2      1.0000 0.71360  0.66830  0.16060  Biso   1.000  In
  P2       1.0000 0.69400  0.20980  0.07600  Biso   1.000  P
  O7       1.0000 0.72300  0.34600  0.17540  Biso   1.000  O
  O8       1.0000 0.55220  0.75980  0.96950  Biso   1.000  O
  O9       1.0000 0.09300  0.74500  0.06870  Biso   1.000  O
  O10      1.0000 0.31600  0.02510  0.81010  Biso   1.000  O
  O11      1.0000 0.81090  0.55810  0.39550  Biso   1.000  O
  O12      1.0000 0.36010  0.57400  0.34500  Biso   1.000  O
  C2       1.0000 0.62800  0.49400  0.51260  Biso   1.000  C
