data_image0
_cell_length_a       16.3784
_cell_length_b       16.3784
_cell_length_c       16.3784
_cell_angle_alpha    105.439
_cell_angle_beta     105.439
_cell_angle_gamma    105.439

_symmetry_space_group_name_H-M    P 1
_symmetry_int_tables_number       1

loop_
  _symmetry_equiv_pos_as_xyz
  'x, y, z'

loop_
  _atom_site_label
  _atom_site_occupancy
  _atom_site_fract_x
  _atom_site_fract_y
  _atom_site_fract_z
  _atom_site_thermal_displace_type
  _atom_site_B_iso_or_equiv
  _atom_site_type_symbol
  Cu1      1.0000 0.56912  0.25054  0.93296  Biso   1.000  Cu
  Cu2      1.0000 0.74947  0.43087  0.06707  Biso   1.000  Cu
  Cu3      1.0000 0.93296  0.56912  0.25054  Biso   1.000  Cu
  Cu4      1.0000 0.06707  0.74947  0.43087  Biso   1.000  Cu
  Cu5      1.0000 0.25054  0.93296  0.56912  Biso   1.000  Cu
  Cu6      1.0000 0.43087  0.06707  0.74947  Biso   1.000  Cu
  Cu7      1.0000 0.43088  0.74946  0.06704  Biso   1.000  Cu
  Cu8      1.0000 0.25053  0.56913  0.93293  Biso   1.000  Cu
  Cu9      1.0000 0.06704  0.43088  0.74946  Biso   1.000  Cu
  Cu10     1.0000 0.93293  0.25053  0.56913  Biso   1.000  Cu
  Cu11     1.0000 0.74946  0.06704  0.43088  Biso   1.000  Cu
  Cu12     1.0000 0.56913  0.93293  0.25053  Biso   1.000  Cu
  H1       1.0000 0.47240  0.90700  0.75060  Biso   1.000  H
  H2       1.0000 0.38320  0.86610  0.76610  Biso   1.000  H
  H3       1.0000 0.61680  0.23310  0.13390  Biso   1.000  H
  H4       1.0000 0.52810  0.24960  0.09330  Biso   1.000  H
  H5       1.0000 0.60400  0.80000  0.86010  Biso   1.000  H
  H6       1.0000 0.61160  0.90150  0.89950  Biso   1.000  H
  H7       1.0000 0.60370  0.85990  0.79930  Biso   1.000  H
  H8       1.0000 0.45480  0.74260  0.68240  Biso   1.000  H
  H9       1.0000 0.37120  0.71100  0.71090  Biso   1.000  H
  H10      1.0000 0.45400  0.68190  0.74180  Biso   1.000  H
  H11      1.0000 0.39310  0.28890  0.01800  Biso   1.000  H
  H12      1.0000 0.39990  0.24270  0.92540  Biso   1.000  H
  H13      1.0000 0.75740  0.60030  0.07460  Biso   1.000  H
  H14      1.0000 0.71060  0.60720  0.98220  Biso   1.000  H
  H15      1.0000 0.29850  0.23470  0.78550  Biso   1.000  H
  H16      1.0000 0.33260  0.34020  0.81150  Biso   1.000  H
  H17      1.0000 0.22910  0.28470  0.78030  Biso   1.000  H
  H18      1.0000 0.23350  0.23440  0.97770  Biso   1.000  H
  H19      1.0000 0.22720  0.16650  0.88690  Biso   1.000  H
  H20      1.0000 0.16620  0.22530  0.88520  Biso   1.000  H
  H21      1.0000 0.75060  0.47240  0.90700  Biso   1.000  H
  H22      1.0000 0.76610  0.38320  0.86610  Biso   1.000  H
  H23      1.0000 0.13390  0.61680  0.23310  Biso   1.000  H
  H24      1.0000 0.09330  0.52810  0.24960  Biso   1.000  H
  H25      1.0000 0.86010  0.60400  0.80000  Biso   1.000  H
  H26      1.0000 0.89950  0.61160  0.90150  Biso   1.000  H
  H27      1.0000 0.79930  0.60370  0.85990  Biso   1.000  H
  H28      1.0000 0.68240  0.45480  0.74260  Biso   1.000  H
  H29      1.0000 0.71090  0.37120  0.71100  Biso   1.000  H
  H30      1.0000 0.74180  0.45400  0.68190  Biso   1.000  H
  H31      1.0000 0.01800  0.39310  0.28890  Biso   1.000  H
  H32      1.0000 0.92540  0.39990  0.24270  Biso   1.000  H
  H33      1.0000 0.07460  0.75740  0.60030  Biso   1.000  H
  H34      1.0000 0.98220  0.71060  0.60720  Biso   1.000  H
  H35      1.0000 0.78550  0.29850  0.23470  Biso   1.000  H
  H36      1.0000 0.81150  0.33260  0.34020  Biso   1.000  H
  H37      1.0000 0.78030  0.22910  0.28470  Biso   1.000  H
  H38      1.0000 0.97770  0.23350  0.23440  Biso   1.000  H
  H39      1.0000 0.88690  0.22720  0.16650  Biso   1.000  H
  H40      1.0000 0.88520  0.16620  0.22530  Biso   1.000  H
  H41      1.0000 0.90700  0.75060  0.47240  Biso   1.000  H
  H42      1.0000 0.86610  0.76610  0.38320  Biso   1.000  H
  H43      1.0000 0.23310  0.13390  0.61680  Biso   1.000  H
  H44      1.0000 0.24960  0.09330  0.52810  Biso   1.000  H
  H45      1.0000 0.80000  0.86010  0.60400  Biso   1.000  H
  H46      1.0000 0.90150  0.89950  0.61160  Biso   1.000  H
  H47      1.0000 0.85990  0.79930  0.60370  Biso   1.000  H
  H48      1.0000 0.74260  0.68240  0.45480  Biso   1.000  H
  H49      1.0000 0.71100  0.71090  0.37120  Biso   1.000  H
  H50      1.0000 0.68190  0.74180  0.45400  Biso   1.000  H
  H51      1.0000 0.28890  0.01800  0.39310  Biso   1.000  H
  H52      1.0000 0.24270  0.92540  0.39990  Biso   1.000  H
  H53      1.0000 0.60030  0.07460  0.75740  Biso   1.000  H
  H54      1.0000 0.60720  0.98220  0.71060  Biso   1.000  H
  H55      1.0000 0.23470  0.78550  0.29850  Biso   1.000  H
  H56      1.0000 0.34020  0.81150  0.33260  Biso   1.000  H
  H57      1.0000 0.28470  0.78030  0.22910  Biso   1.000  H
  H58      1.0000 0.23440  0.97770  0.23350  Biso   1.000  H
  H59      1.0000 0.16650  0.88690  0.22720  Biso   1.000  H
  H60      1.0000 0.22530  0.88520  0.16620  Biso   1.000  H
  H61      1.0000 0.52760  0.09300  0.24940  Biso   1.000  H
  H62      1.0000 0.61680  0.13390  0.23390  Biso   1.000  H
  H63      1.0000 0.38320  0.76690  0.86610  Biso   1.000  H
  H64      1.0000 0.47190  0.75040  0.90670  Biso   1.000  H
  H65      1.0000 0.39600  0.20000  0.13990  Biso   1.000  H
  H66      1.0000 0.38840  0.09850  0.10050  Biso   1.000  H
  H67      1.0000 0.39630  0.14010  0.20070  Biso   1.000  H
  H68      1.0000 0.54520  0.25740  0.31760  Biso   1.000  H
  H69      1.0000 0.62880  0.28900  0.28910  Biso   1.000  H
  H70      1.0000 0.54600  0.31810  0.25820  Biso   1.000  H
  H71      1.0000 0.60690  0.71110  0.98200  Biso   1.000  H
  H72      1.0000 0.60010  0.75730  0.07460  Biso   1.000  H
  H73      1.0000 0.24260  0.39970  0.92540  Biso   1.000  H
  H74      1.0000 0.28940  0.39280  0.01780  Biso   1.000  H
  H75      1.0000 0.70150  0.76530  0.21450  Biso   1.000  H
  H76      1.0000 0.66740  0.65980  0.18850  Biso   1.000  H
  H77      1.0000 0.77090  0.71530  0.21970  Biso   1.000  H
  H78      1.0000 0.76650  0.76560  0.02230  Biso   1.000  H
  H79      1.0000 0.77280  0.83350  0.11310  Biso   1.000  H
  H80      1.0000 0.83380  0.77470  0.11480  Biso   1.000  H
  H81      1.0000 0.24940  0.52760  0.09300  Biso   1.000  H
  H82      1.0000 0.23390  0.61680  0.13390  Biso   1.000  H
  H83      1.0000 0.86610  0.38320  0.76690  Biso   1.000  H
  H84      1.0000 0.90670  0.47190  0.75040  Biso   1.000  H
  H85      1.0000 0.13990  0.39600  0.20000  Biso   1.000  H
  H86      1.0000 0.10050  0.38840  0.09850  Biso   1.000  H
  H87      1.0000 0.20070  0.39630  0.14010  Biso   1.000  H
  H88      1.0000 0.31760  0.54520  0.25740  Biso   1.000  H
  H89      1.0000 0.28910  0.62880  0.28900  Biso   1.000  H
  H90      1.0000 0.25820  0.54600  0.31810  Biso   1.000  H
  H91      1.0000 0.98200  0.60690  0.71110  Biso   1.000  H
  H92      1.0000 0.07460  0.60010  0.75730  Biso   1.000  H
  H93      1.0000 0.92540  0.24260  0.39970  Biso   1.000  H
  H94      1.0000 0.01780  0.28940  0.39280  Biso   1.000  H
  H95      1.0000 0.21450  0.70150  0.76530  Biso   1.000  H
  H96      1.0000 0.18850  0.66740  0.65980  Biso   1.000  H
  H97      1.0000 0.21970  0.77090  0.71530  Biso   1.000  H
  H98      1.0000 0.02230  0.76650  0.76560  Biso   1.000  H
  H99      1.0000 0.11310  0.77280  0.83350  Biso   1.000  H
  H100     1.0000 0.11480  0.83380  0.77470  Biso   1.000  H
  H101     1.0000 0.09300  0.24940  0.52760  Biso   1.000  H
  H102     1.0000 0.13390  0.23390  0.61680  Biso   1.000  H
  H103     1.0000 0.76690  0.86610  0.38320  Biso   1.000  H
  H104     1.0000 0.75040  0.90670  0.47190  Biso   1.000  H
  H105     1.0000 0.20000  0.13990  0.39600  Biso   1.000  H
  H106     1.0000 0.09850  0.10050  0.38840  Biso   1.000  H
  H107     1.0000 0.14010  0.20070  0.39630  Biso   1.000  H
  H108     1.0000 0.25740  0.31760  0.54520  Biso   1.000  H
  H109     1.0000 0.28900  0.28910  0.62880  Biso   1.000  H
  H110     1.0000 0.31810  0.25820  0.54600  Biso   1.000  H
  H111     1.0000 0.71110  0.98200  0.60690  Biso   1.000  H
  H112     1.0000 0.75730  0.07460  0.60010  Biso   1.000  H
  H113     1.0000 0.39970  0.92540  0.24260  Biso   1.000  H
  H114     1.0000 0.39280  0.01780  0.28940  Biso   1.000  H
  H115     1.0000 0.76530  0.21450  0.70150  Biso   1.000  H
  H116     1.0000 0.65980  0.18850  0.66740  Biso   1.000  H
  H117     1.0000 0.71530  0.21970  0.77090  Biso   1.000  H
  H118     1.0000 0.76560  0.02230  0.76650  Biso   1.000  H
  H119     1.0000 0.83350  0.11310  0.77280  Biso   1.000  H
  H120     1.0000 0.77470  0.11480  0.83380  Biso   1.000  H
  C1       1.0000 0.52345  0.12309  0.02757  Biso   1.000  C
  C2       1.0000 0.51190  0.03816  0.03819  Biso   1.000  C
  C3       1.0000 0.47667  0.97291  0.87719  Biso   1.000  C
  C4       1.0000 0.44836  0.89000  0.79365  Biso   1.000  C
  C5       1.0000 0.48097  0.81574  0.81589  Biso   1.000  C
  C6       1.0000 0.55159  0.20608  0.10997  Biso   1.000  C
  C7       1.0000 0.58458  0.84680  0.84652  Biso   1.000  C
  C8       1.0000 0.43624  0.73004  0.73002  Biso   1.000  C
  C9       1.0000 0.62261  0.52704  0.01904  Biso   1.000  C
  C10      1.0000 0.53793  0.53766  0.00889  Biso   1.000  C
  C11      1.0000 0.47311  0.37733  0.98120  Biso   1.000  C
  C12      1.0000 0.39333  0.29561  0.96150  Biso   1.000  C
  C13      1.0000 0.30042  0.30086  0.91200  Biso   1.000  C
  C14      1.0000 0.70441  0.60693  0.03882  Biso   1.000  C
  C15      1.0000 0.28898  0.28902  0.81360  Biso   1.000  C
  C16      1.0000 0.22494  0.22486  0.91510  Biso   1.000  C
  C17      1.0000 0.02757  0.52345  0.12309  Biso   1.000  C
  C18      1.0000 0.03819  0.51190  0.03816  Biso   1.000  C
  C19      1.0000 0.87719  0.47667  0.97291  Biso   1.000  C
  C20      1.0000 0.79365  0.44836  0.89000  Biso   1.000  C
  C21      1.0000 0.81589  0.48097  0.81574  Biso   1.000  C
  C22      1.0000 0.10997  0.55159  0.20608  Biso   1.000  C
  C23      1.0000 0.84652  0.58458  0.84680  Biso   1.000  C
  C24      1.0000 0.73002  0.43624  0.73004  Biso   1.000  C
  C25      1.0000 0.01904  0.62261  0.52704  Biso   1.000  C
  C26      1.0000 0.00889  0.53793  0.53766  Biso   1.000  C
  C27      1.0000 0.98120  0.47311  0.37733  Biso   1.000  C
  C28      1.0000 0.96150  0.39333  0.29561  Biso   1.000  C
  C29      1.0000 0.91200  0.30042  0.30086  Biso   1.000  C
  C30      1.0000 0.03882  0.70441  0.60693  Biso   1.000  C
  C31      1.0000 0.81360  0.28898  0.28902  Biso   1.000  C
  C32      1.0000 0.91510  0.22494  0.22486  Biso   1.000  C
  C33      1.0000 0.12309  0.02757  0.52345  Biso   1.000  C
  C34      1.0000 0.03816  0.03819  0.51190  Biso   1.000  C
  C35      1.0000 0.97291  0.87719  0.47667  Biso   1.000  C
  C36      1.0000 0.89000  0.79365  0.44836  Biso   1.000  C
  C37      1.0000 0.81574  0.81589  0.48097  Biso   1.000  C
  C38      1.0000 0.20608  0.10997  0.55159  Biso   1.000  C
  C39      1.0000 0.84680  0.84652  0.58458  Biso   1.000  C
  C40      1.0000 0.73004  0.73002  0.43624  Biso   1.000  C
  C41      1.0000 0.52704  0.01904  0.62261  Biso   1.000  C
  C42      1.0000 0.53766  0.00889  0.53793  Biso   1.000  C
  C43      1.0000 0.37733  0.98120  0.47311  Biso   1.000  C
  C44      1.0000 0.29561  0.96150  0.39333  Biso   1.000  C
  C45      1.0000 0.30086  0.91200  0.30042  Biso   1.000  C
  C46      1.0000 0.60693  0.03882  0.70441  Biso   1.000  C
  C47      1.0000 0.28902  0.81360  0.28898  Biso   1.000  C
  C48      1.0000 0.22486  0.91510  0.22494  Biso   1.000  C
  C49      1.0000 0.47655  0.87691  0.97243  Biso   1.000  C
  C50      1.0000 0.48810  0.96184  0.96181  Biso   1.000  C
  C51      1.0000 0.52333  0.02709  0.12281  Biso   1.000  C
  C52      1.0000 0.55164  0.11000  0.20635  Biso   1.000  C
  C53      1.0000 0.51903  0.18426  0.18411  Biso   1.000  C
  C54      1.0000 0.44841  0.79392  0.89003  Biso   1.000  C
  C55      1.0000 0.41542  0.15320  0.15348  Biso   1.000  C
  C56      1.0000 0.56376  0.26996  0.26998  Biso   1.000  C
  C57      1.0000 0.37739  0.47296  0.98096  Biso   1.000  C
  C58      1.0000 0.46207  0.46234  0.99111  Biso   1.000  C
  C59      1.0000 0.52689  0.62267  0.01880  Biso   1.000  C
  C60      1.0000 0.60667  0.70439  0.03850  Biso   1.000  C
  C61      1.0000 0.69958  0.69914  0.08800  Biso   1.000  C
  C62      1.0000 0.29559  0.39307  0.96118  Biso   1.000  C
  C63      1.0000 0.71102  0.71098  0.18640  Biso   1.000  C
  C64      1.0000 0.77506  0.77514  0.08490  Biso   1.000  C
  C65      1.0000 0.97243  0.47655  0.87691  Biso   1.000  C
  C66      1.0000 0.96181  0.48810  0.96184  Biso   1.000  C
  C67      1.0000 0.12281  0.52333  0.02709  Biso   1.000  C
  C68      1.0000 0.20635  0.55164  0.11000  Biso   1.000  C
  C69      1.0000 0.18411  0.51903  0.18426  Biso   1.000  C
  C70      1.0000 0.89003  0.44841  0.79392  Biso   1.000  C
  C71      1.0000 0.15348  0.41542  0.15320  Biso   1.000  C
  C72      1.0000 0.26998  0.56376  0.26996  Biso   1.000  C
  C73      1.0000 0.98096  0.37739  0.47296  Biso   1.000  C
  C74      1.0000 0.99111  0.46207  0.46234  Biso   1.000  C
  C75      1.0000 0.01880  0.52689  0.62267  Biso   1.000  C
  C76      1.0000 0.03850  0.60667  0.70439  Biso   1.000  C
  C77      1.0000 0.08800  0.69958  0.69914  Biso   1.000  C
  C78      1.0000 0.96118  0.29559  0.39307  Biso   1.000  C
  C79      1.0000 0.18640  0.71102  0.71098  Biso   1.000  C
  C80      1.0000 0.08490  0.77506  0.77514  Biso   1.000  C
  C81      1.0000 0.87691  0.97243  0.47655  Biso   1.000  C
  C82      1.0000 0.96184  0.96181  0.48810  Biso   1.000  C
  C83      1.0000 0.02709  0.12281  0.52333  Biso   1.000  C
  C84      1.0000 0.11000  0.20635  0.55164  Biso   1.000  C
  C85      1.0000 0.18426  0.18411  0.51903  Biso   1.000  C
  C86      1.0000 0.79392  0.89003  0.44841  Biso   1.000  C
  C87      1.0000 0.15320  0.15348  0.41542  Biso   1.000  C
  C88      1.0000 0.26996  0.26998  0.56376  Biso   1.000  C
  C89      1.0000 0.47296  0.98096  0.37739  Biso   1.000  C
  C90      1.0000 0.46234  0.99111  0.46207  Biso   1.000  C
  C91      1.0000 0.62267  0.01880  0.52689  Biso   1.000  C
  C92      1.0000 0.70439  0.03850  0.60667  Biso   1.000  C
  C93      1.0000 0.69914  0.08800  0.69958  Biso   1.000  C
  C94      1.0000 0.39307  0.96118  0.29559  Biso   1.000  C
  C95      1.0000 0.71098  0.18640  0.71102  Biso   1.000  C
  C96      1.0000 0.77514  0.08490  0.77506  Biso   1.000  C
  I1       1.0000 0.73861  0.26139  0.99999  Biso   1.000  I
  I2       1.0000 0.50001  0.23807  0.76197  Biso   1.000  I
  I3       1.0000 0.99999  0.73861  0.26139  Biso   1.000  I
  I4       1.0000 0.76197  0.50001  0.23807  Biso   1.000  I
  I5       1.0000 0.26139  0.99999  0.73861  Biso   1.000  I
  I6       1.0000 0.23807  0.76197  0.50001  Biso   1.000  I
  I7       1.0000 0.26139  0.73861  0.00001  Biso   1.000  I
  I8       1.0000 0.49999  0.76193  0.23803  Biso   1.000  I
  I9       1.0000 0.00001  0.26139  0.73861  Biso   1.000  I
  I10      1.0000 0.23803  0.49999  0.76193  Biso   1.000  I
  I11      1.0000 0.73861  0.00001  0.26139  Biso   1.000  I
  I12      1.0000 0.76193  0.23803  0.49999  Biso   1.000  I
  N1       1.0000 0.51267  0.12970  0.94678  Biso   1.000  N
  N2       1.0000 0.48762  0.05359  0.87061  Biso   1.000  N
  N3       1.0000 0.62939  0.44701  0.01180  Biso   1.000  N
  N4       1.0000 0.55302  0.37064  0.98805  Biso   1.000  N
  N5       1.0000 0.94678  0.51267  0.12970  Biso   1.000  N
  N6       1.0000 0.87061  0.48762  0.05359  Biso   1.000  N
  N7       1.0000 0.01180  0.62939  0.44701  Biso   1.000  N
  N8       1.0000 0.98805  0.55302  0.37064  Biso   1.000  N
  N9       1.0000 0.12970  0.94678  0.51267  Biso   1.000  N
  N10      1.0000 0.05359  0.87061  0.48762  Biso   1.000  N
  N11      1.0000 0.44701  0.01180  0.62939  Biso   1.000  N
  N12      1.0000 0.37064  0.98805  0.55302  Biso   1.000  N
  N13      1.0000 0.48733  0.87030  0.05322  Biso   1.000  N
  N14      1.0000 0.51238  0.94641  0.12939  Biso   1.000  N
  N15      1.0000 0.37061  0.55299  0.98820  Biso   1.000  N
  N16      1.0000 0.44698  0.62936  0.01195  Biso   1.000  N
  N17      1.0000 0.05322  0.48733  0.87030  Biso   1.000  N
  N18      1.0000 0.12939  0.51238  0.94641  Biso   1.000  N
  N19      1.0000 0.98820  0.37061  0.55299  Biso   1.000  N
  N20      1.0000 0.01195  0.44698  0.62936  Biso   1.000  N
  N21      1.0000 0.87030  0.05322  0.48733  Biso   1.000  N
  N22      1.0000 0.94641  0.12939  0.51238  Biso   1.000  N
  N23      1.0000 0.55299  0.98820  0.37061  Biso   1.000  N
  N24      1.0000 0.62936  0.01195  0.44698  Biso   1.000  N
