data_image0
_cell_length_a       11.0317
_cell_length_b       13.8934
_cell_length_c       18.2911
_cell_angle_alpha    73.6588
_cell_angle_beta     72.4487
_cell_angle_gamma    66.6084

_symmetry_space_group_name_H-M    P 1
_symmetry_int_tables_number       1

loop_
  _symmetry_equiv_pos_as_xyz
  'x, y, z'

loop_
  _atom_site_label
  _atom_site_occupancy
  _atom_site_fract_x
  _atom_site_fract_y
  _atom_site_fract_z
  _atom_site_thermal_displace_type
  _atom_site_B_iso_or_equiv
  _atom_site_type_symbol
  Cu1      1.0000 0.40765  0.73701  0.60499  Biso   1.000  Cu
  Cu2      1.0000 0.59333  0.74092  0.74686  Biso   1.000  Cu
  Cu3      1.0000 0.74965  0.76299  0.89501  Biso   1.000  Cu
  Cu4      1.0000 0.08111  0.75908  0.75314  Biso   1.000  Cu
  Cu5      1.0000 0.59235  0.26299  0.39501  Biso   1.000  Cu
  Cu6      1.0000 0.40667  0.25908  0.25314  Biso   1.000  Cu
  Cu7      1.0000 0.25035  0.23701  0.10499  Biso   1.000  Cu
  Cu8      1.0000 0.91889  0.24092  0.24686  Biso   1.000  Cu
  H1       1.0000 0.94770  0.76580  0.98760  Biso   1.000  H
  H2       1.0000 0.76660  0.55460  0.03780  Biso   1.000  H
  H3       1.0000 0.90100  0.50660  0.13560  Biso   1.000  H
  H4       1.0000 0.10620  0.56790  0.13550  Biso   1.000  H
  H5       1.0000 0.11100  0.67830  0.07930  Biso   1.000  H
  H6       1.0000 0.00250  0.56500  0.27020  Biso   1.000  H
  H7       1.0000 0.93260  0.84840  0.12460  Biso   1.000  H
  H8       1.0000 0.48320  0.78020  0.02760  Biso   1.000  H
  H9       1.0000 0.55330  0.01040  0.85580  Biso   1.000  H
  H10      1.0000 0.32240  0.08450  0.93230  Biso   1.000  H
  H11      1.0000 0.25020  0.86760  0.09700  Biso   1.000  H
  H12      1.0000 0.22370  0.99030  0.09490  Biso   1.000  H
  H13      1.0000 0.20010  0.87460  0.94960  Biso   1.000  H
  H14      1.0000 0.99030  0.07840  0.09940  Biso   1.000  H
  H15      1.0000 0.70110  0.73420  0.51240  Biso   1.000  H
  H16      1.0000 0.35900  0.94540  0.46220  Biso   1.000  H
  H17      1.0000 0.54320  0.99340  0.36440  Biso   1.000  H
  H18      1.0000 0.80960  0.93210  0.36450  Biso   1.000  H
  H19      1.0000 0.86860  0.82170  0.42070  Biso   1.000  H
  H20      1.0000 0.83770  0.93500  0.22980  Biso   1.000  H
  H21      1.0000 0.90560  0.65160  0.37540  Biso   1.000  H
  H22      1.0000 0.29100  0.71980  0.47240  Biso   1.000  H
  H23      1.0000 0.41950  0.48960  0.64420  Biso   1.000  H
  H24      1.0000 0.33920  0.41550  0.56770  Biso   1.000  H
  H25      1.0000 0.21480  0.63240  0.40300  Biso   1.000  H
  H26      1.0000 0.30890  0.50970  0.40510  Biso   1.000  H
  H27      1.0000 0.02430  0.62540  0.55040  Biso   1.000  H
  H28      1.0000 0.16810  0.42160  0.40060  Biso   1.000  H
  H29      1.0000 0.05230  0.23420  0.01240  Biso   1.000  H
  H30      1.0000 0.23340  0.44540  0.96220  Biso   1.000  H
  H31      1.0000 0.09900  0.49340  0.86440  Biso   1.000  H
  H32      1.0000 0.89380  0.43210  0.86450  Biso   1.000  H
  H33      1.0000 0.88900  0.32170  0.92070  Biso   1.000  H
  H34      1.0000 0.99750  0.43500  0.72980  Biso   1.000  H
  H35      1.0000 0.06740  0.15160  0.87540  Biso   1.000  H
  H36      1.0000 0.51680  0.21980  0.97240  Biso   1.000  H
  H37      1.0000 0.44670  0.98960  0.14420  Biso   1.000  H
  H38      1.0000 0.67760  0.91550  0.06770  Biso   1.000  H
  H39      1.0000 0.74980  0.13240  0.90300  Biso   1.000  H
  H40      1.0000 0.77630  0.00970  0.90510  Biso   1.000  H
  H41      1.0000 0.79990  0.12540  0.05040  Biso   1.000  H
  H42      1.0000 0.00970  0.92160  0.90060  Biso   1.000  H
  H43      1.0000 0.29890  0.26580  0.48760  Biso   1.000  H
  H44      1.0000 0.64100  0.05460  0.53780  Biso   1.000  H
  H45      1.0000 0.45680  0.00660  0.63560  Biso   1.000  H
  H46      1.0000 0.19040  0.06790  0.63550  Biso   1.000  H
  H47      1.0000 0.13140  0.17830  0.57930  Biso   1.000  H
  H48      1.0000 0.16230  0.06500  0.77020  Biso   1.000  H
  H49      1.0000 0.09440  0.34840  0.62460  Biso   1.000  H
  H50      1.0000 0.70900  0.28020  0.52760  Biso   1.000  H
  H51      1.0000 0.58050  0.51040  0.35580  Biso   1.000  H
  H52      1.0000 0.66080  0.58450  0.43230  Biso   1.000  H
  H53      1.0000 0.78520  0.36760  0.59700  Biso   1.000  H
  H54      1.0000 0.69110  0.49030  0.59490  Biso   1.000  H
  H55      1.0000 0.97570  0.37460  0.44960  Biso   1.000  H
  H56      1.0000 0.83190  0.57840  0.59940  Biso   1.000  H
  W1       1.0000 0.84438  0.74198  0.74474  Biso   1.000  W
  W2       1.0000 0.33110  0.75802  0.75526  Biso   1.000  W
  W3       1.0000 0.15562  0.25802  0.25526  Biso   1.000  W
  W4       1.0000 0.66890  0.24198  0.24474  Biso   1.000  W
  C1       1.0000 0.91770  0.70680  0.01240  Biso   1.000  C
  C2       1.0000 0.82020  0.59250  0.03990  Biso   1.000  C
  C3       1.0000 0.89410  0.56550  0.09330  Biso   1.000  C
  C4       1.0000 0.04980  0.64190  0.11670  Biso   1.000  C
  C5       1.0000 0.97900  0.69900  0.18580  Biso   1.000  C
  C6       1.0000 0.96930  0.64080  0.26160  Biso   1.000  C
  C7       1.0000 0.92850  0.80740  0.17600  Biso   1.000  C
  C8       1.0000 0.47220  0.84740  0.99380  Biso   1.000  C
  C9       1.0000 0.50980  0.97250  0.90070  Biso   1.000  C
  C10      1.0000 0.38330  0.01350  0.94230  Biso   1.000  C
  C11      1.0000 0.23800  0.93850  0.06270  Biso   1.000  C
  C12      1.0000 0.11480  0.97150  0.02910  Biso   1.000  C
  C13      1.0000 0.11830  0.92610  0.97030  Biso   1.000  C
  C14      1.0000 0.99460  0.04620  0.05880  Biso   1.000  C
  C15      1.0000 0.63690  0.79320  0.48760  Biso   1.000  C
  C16      1.0000 0.45260  0.90750  0.46010  Biso   1.000  C
  C17      1.0000 0.55290  0.93450  0.40670  Biso   1.000  C
  C18      1.0000 0.80840  0.85810  0.38330  Biso   1.000  C
  C19      1.0000 0.86380  0.80100  0.31420  Biso   1.000  C
  C20      1.0000 0.87170  0.85920  0.23840  Biso   1.000  C
  C21      1.0000 0.91190  0.69260  0.32400  Biso   1.000  C
  C22      1.0000 0.31340  0.65260  0.50620  Biso   1.000  C
  C23      1.0000 0.38300  0.52750  0.59930  Biso   1.000  C
  C24      1.0000 0.33910  0.48650  0.55770  Biso   1.000  C
  C25      1.0000 0.23920  0.56150  0.43730  Biso   1.000  C
  C26      1.0000 0.11540  0.52850  0.47090  Biso   1.000  C
  C27      1.0000 0.01470  0.57390  0.52970  Biso   1.000  C
  C28      1.0000 0.09960  0.45380  0.44120  Biso   1.000  C
  C29      1.0000 0.08230  0.29320  0.98760  Biso   1.000  C
  C30      1.0000 0.17980  0.40750  0.96010  Biso   1.000  C
  C31      1.0000 0.10590  0.43450  0.90670  Biso   1.000  C
  C32      1.0000 0.95020  0.35810  0.88330  Biso   1.000  C
  C33      1.0000 0.02100  0.30100  0.81420  Biso   1.000  C
  C34      1.0000 0.03070  0.35920  0.73840  Biso   1.000  C
  C35      1.0000 0.07150  0.19260  0.82400  Biso   1.000  C
  C36      1.0000 0.52780  0.15260  0.00620  Biso   1.000  C
  C37      1.0000 0.49020  0.02750  0.09930  Biso   1.000  C
  C38      1.0000 0.61670  0.98650  0.05770  Biso   1.000  C
  C39      1.0000 0.76200  0.06150  0.93730  Biso   1.000  C
  C40      1.0000 0.88520  0.02850  0.97090  Biso   1.000  C
  C41      1.0000 0.88170  0.07390  0.02970  Biso   1.000  C
  C42      1.0000 0.00540  0.95380  0.94120  Biso   1.000  C
  C43      1.0000 0.36310  0.20680  0.51240  Biso   1.000  C
  C44      1.0000 0.54740  0.09250  0.53990  Biso   1.000  C
  C45      1.0000 0.44710  0.06550  0.59330  Biso   1.000  C
  C46      1.0000 0.19160  0.14190  0.61670  Biso   1.000  C
  C47      1.0000 0.13620  0.19900  0.68580  Biso   1.000  C
  C48      1.0000 0.12830  0.14080  0.76160  Biso   1.000  C
  C49      1.0000 0.08810  0.30740  0.67600  Biso   1.000  C
  C50      1.0000 0.68660  0.34740  0.49380  Biso   1.000  C
  C51      1.0000 0.61700  0.47250  0.40070  Biso   1.000  C
  C52      1.0000 0.66090  0.51350  0.44230  Biso   1.000  C
  C53      1.0000 0.76080  0.43850  0.56270  Biso   1.000  C
  C54      1.0000 0.88460  0.47150  0.52910  Biso   1.000  C
  C55      1.0000 0.98530  0.42610  0.47030  Biso   1.000  C
  C56      1.0000 0.90040  0.54620  0.55880  Biso   1.000  C
  S1       1.0000 0.38784  0.86163  0.79921  Biso   1.000  S
  S2       1.0000 0.73161  0.64441  0.83679  Biso   1.000  S
  S3       1.0000 0.52133  0.63670  0.70284  Biso   1.000  S
  S4       1.0000 0.20534  0.67824  0.84922  Biso   1.000  S
  S5       1.0000 0.04868  0.63837  0.70079  Biso   1.000  S
  S6       1.0000 0.21281  0.85559  0.66321  Biso   1.000  S
  S7       1.0000 0.86087  0.86330  0.79716  Biso   1.000  S
  S8       1.0000 0.73280  0.82176  0.65078  Biso   1.000  S
  S9       1.0000 0.61216  0.13837  0.20079  Biso   1.000  S
  S10      1.0000 0.26839  0.35559  0.16321  Biso   1.000  S
  S11      1.0000 0.47867  0.36330  0.29716  Biso   1.000  S
  S12      1.0000 0.79466  0.32176  0.15078  Biso   1.000  S
  S13      1.0000 0.95132  0.36163  0.29921  Biso   1.000  S
  S14      1.0000 0.78719  0.14441  0.33679  Biso   1.000  S
  S15      1.0000 0.13913  0.13670  0.20284  Biso   1.000  S
  S16      1.0000 0.26720  0.17824  0.34922  Biso   1.000  S
  N1       1.0000 0.83320  0.68370  0.98830  Biso   1.000  N
  N2       1.0000 0.95690  0.63780  0.07600  Biso   1.000  N
  N3       1.0000 0.56500  0.86860  0.93320  Biso   1.000  N
  N4       1.0000 0.36010  0.93380  0.00120  Biso   1.000  N
  N5       1.0000 0.50520  0.81630  0.51170  Biso   1.000  N
  N6       1.0000 0.67070  0.86220  0.42400  Biso   1.000  N
  N7       1.0000 0.36680  0.63140  0.56680  Biso   1.000  N
  N8       1.0000 0.29510  0.56620  0.49880  Biso   1.000  N
  N9       1.0000 0.16680  0.31630  0.01170  Biso   1.000  N
  N10      1.0000 0.04310  0.36220  0.92400  Biso   1.000  N
  N11      1.0000 0.43500  0.13140  0.06680  Biso   1.000  N
  N12      1.0000 0.63990  0.06620  0.99880  Biso   1.000  N
  N13      1.0000 0.49480  0.18370  0.48830  Biso   1.000  N
  N14      1.0000 0.32930  0.13780  0.57600  Biso   1.000  N
  N15      1.0000 0.63320  0.36860  0.43320  Biso   1.000  N
  N16      1.0000 0.70490  0.43380  0.50120  Biso   1.000  N
