data_image0
_cell_length_a       16.2782
_cell_length_b       16.2782
_cell_length_c       30.4992
_cell_angle_alpha    90
_cell_angle_beta     90
_cell_angle_gamma    90

_symmetry_space_group_name_H-M    P 1
_symmetry_int_tables_number       1

loop_
  _symmetry_equiv_pos_as_xyz
  'x, y, z'

loop_
  _atom_site_label
  _atom_site_occupancy
  _atom_site_fract_x
  _atom_site_fract_y
  _atom_site_fract_z
  _atom_site_thermal_displace_type
  _atom_site_B_iso_or_equiv
  _atom_site_type_symbol
  Zn1      1.0000 0.63883  0.90996  0.79613  Biso   1.000  Zn
  Zn2      1.0000 0.62468  0.88600  0.89970  Biso   1.000  Zn
  Zn3      1.0000 0.86117  0.59004  0.79613  Biso   1.000  Zn
  Zn4      1.0000 0.87532  0.61400  0.89970  Biso   1.000  Zn
  Zn5      1.0000 0.59004  0.63883  0.79613  Biso   1.000  Zn
  Zn6      1.0000 0.61400  0.62468  0.89970  Biso   1.000  Zn
  Zn7      1.0000 0.90996  0.86117  0.79613  Biso   1.000  Zn
  Zn8      1.0000 0.88600  0.87532  0.89970  Biso   1.000  Zn
  Zn9      1.0000 0.36117  0.40996  0.70387  Biso   1.000  Zn
  Zn10     1.0000 0.37532  0.38600  0.60030  Biso   1.000  Zn
  Zn11     1.0000 0.13883  0.09004  0.70387  Biso   1.000  Zn
  Zn12     1.0000 0.12468  0.11400  0.60030  Biso   1.000  Zn
  Zn13     1.0000 0.40996  0.13883  0.70387  Biso   1.000  Zn
  Zn14     1.0000 0.38600  0.12468  0.60030  Biso   1.000  Zn
  Zn15     1.0000 0.09004  0.36117  0.70387  Biso   1.000  Zn
  Zn16     1.0000 0.11400  0.37532  0.60030  Biso   1.000  Zn
  Zn17     1.0000 0.36117  0.09004  0.20387  Biso   1.000  Zn
  Zn18     1.0000 0.37532  0.11400  0.10030  Biso   1.000  Zn
  Zn19     1.0000 0.13883  0.40996  0.20387  Biso   1.000  Zn
  Zn20     1.0000 0.12468  0.38600  0.10030  Biso   1.000  Zn
  Zn21     1.0000 0.40996  0.36117  0.20387  Biso   1.000  Zn
  Zn22     1.0000 0.38600  0.37532  0.10030  Biso   1.000  Zn
  Zn23     1.0000 0.09004  0.13883  0.20387  Biso   1.000  Zn
  Zn24     1.0000 0.11400  0.12468  0.10030  Biso   1.000  Zn
  Zn25     1.0000 0.63883  0.59004  0.29613  Biso   1.000  Zn
  Zn26     1.0000 0.62468  0.61400  0.39970  Biso   1.000  Zn
  Zn27     1.0000 0.86117  0.90996  0.29613  Biso   1.000  Zn
  Zn28     1.0000 0.87532  0.88600  0.39970  Biso   1.000  Zn
  Zn29     1.0000 0.59004  0.86117  0.29613  Biso   1.000  Zn
  Zn30     1.0000 0.61400  0.87532  0.39970  Biso   1.000  Zn
  Zn31     1.0000 0.90996  0.63883  0.29613  Biso   1.000  Zn
  Zn32     1.0000 0.88600  0.62468  0.39970  Biso   1.000  Zn
  H1       1.0000 0.38760  0.97850  0.91150  Biso   1.000  H
  H2       1.0000 0.18970  0.05940  0.84470  Biso   1.000  H
  H3       1.0000 0.40350  0.01790  0.78060  Biso   1.000  H
  H4       1.0000 0.31990  0.05220  0.96710  Biso   1.000  H
  H5       1.0000 0.10670  0.99530  0.02880  Biso   1.000  H
  H6       1.0000 0.04960  0.95800  0.96150  Biso   1.000  H
  H7       1.0000 0.12550  0.96890  0.89760  Biso   1.000  H
  H8       1.0000 0.72860  0.84900  0.84340  Biso   1.000  H
  H9       1.0000 0.11240  0.52150  0.91150  Biso   1.000  H
  H10      1.0000 0.31030  0.44060  0.84470  Biso   1.000  H
  H11      1.0000 0.09650  0.48210  0.78060  Biso   1.000  H
  H12      1.0000 0.18010  0.44780  0.96710  Biso   1.000  H
  H13      1.0000 0.39330  0.50470  0.02880  Biso   1.000  H
  H14      1.0000 0.45040  0.54200  0.96150  Biso   1.000  H
  H15      1.0000 0.37450  0.53110  0.89760  Biso   1.000  H
  H16      1.0000 0.77140  0.65100  0.84340  Biso   1.000  H
  H17      1.0000 0.52150  0.38760  0.91150  Biso   1.000  H
  H18      1.0000 0.44060  0.18970  0.84470  Biso   1.000  H
  H19      1.0000 0.48210  0.40350  0.78060  Biso   1.000  H
  H20      1.0000 0.44780  0.31990  0.96710  Biso   1.000  H
  H21      1.0000 0.50470  0.10670  0.02880  Biso   1.000  H
  H22      1.0000 0.54200  0.04960  0.96150  Biso   1.000  H
  H23      1.0000 0.53110  0.12550  0.89760  Biso   1.000  H
  H24      1.0000 0.65100  0.72860  0.84340  Biso   1.000  H
  H25      1.0000 0.97850  0.11240  0.91150  Biso   1.000  H
  H26      1.0000 0.05940  0.31030  0.84470  Biso   1.000  H
  H27      1.0000 0.01790  0.09650  0.78060  Biso   1.000  H
  H28      1.0000 0.05220  0.18010  0.96710  Biso   1.000  H
  H29      1.0000 0.99530  0.39330  0.02880  Biso   1.000  H
  H30      1.0000 0.95800  0.45040  0.96150  Biso   1.000  H
  H31      1.0000 0.96890  0.37450  0.89760  Biso   1.000  H
  H32      1.0000 0.84900  0.77140  0.84340  Biso   1.000  H
  H33      1.0000 0.61240  0.47850  0.58850  Biso   1.000  H
  H34      1.0000 0.81030  0.55940  0.65530  Biso   1.000  H
  H35      1.0000 0.59650  0.51790  0.71940  Biso   1.000  H
  H36      1.0000 0.68010  0.55220  0.53290  Biso   1.000  H
  H37      1.0000 0.89330  0.49530  0.47120  Biso   1.000  H
  H38      1.0000 0.95040  0.45800  0.53850  Biso   1.000  H
  H39      1.0000 0.87450  0.46890  0.60240  Biso   1.000  H
  H40      1.0000 0.27140  0.34900  0.65660  Biso   1.000  H
  H41      1.0000 0.88760  0.02150  0.58850  Biso   1.000  H
  H42      1.0000 0.68970  0.94060  0.65530  Biso   1.000  H
  H43      1.0000 0.90350  0.98210  0.71940  Biso   1.000  H
  H44      1.0000 0.81990  0.94780  0.53290  Biso   1.000  H
  H45      1.0000 0.60670  0.00470  0.47120  Biso   1.000  H
  H46      1.0000 0.54960  0.04200  0.53850  Biso   1.000  H
  H47      1.0000 0.62550  0.03110  0.60240  Biso   1.000  H
  H48      1.0000 0.22860  0.15100  0.65660  Biso   1.000  H
  H49      1.0000 0.47850  0.88760  0.58850  Biso   1.000  H
  H50      1.0000 0.55940  0.68970  0.65530  Biso   1.000  H
  H51      1.0000 0.51790  0.90350  0.71940  Biso   1.000  H
  H52      1.0000 0.55220  0.81990  0.53290  Biso   1.000  H
  H53      1.0000 0.49530  0.60670  0.47120  Biso   1.000  H
  H54      1.0000 0.45800  0.54960  0.53850  Biso   1.000  H
  H55      1.0000 0.46890  0.62550  0.60240  Biso   1.000  H
  H56      1.0000 0.34900  0.22860  0.65660  Biso   1.000  H
  H57      1.0000 0.02150  0.61240  0.58850  Biso   1.000  H
  H58      1.0000 0.94060  0.81030  0.65530  Biso   1.000  H
  H59      1.0000 0.98210  0.59650  0.71940  Biso   1.000  H
  H60      1.0000 0.94780  0.68010  0.53290  Biso   1.000  H
  H61      1.0000 0.00470  0.89330  0.47120  Biso   1.000  H
  H62      1.0000 0.04200  0.95040  0.53850  Biso   1.000  H
  H63      1.0000 0.03110  0.87450  0.60240  Biso   1.000  H
  H64      1.0000 0.15100  0.27140  0.65660  Biso   1.000  H
  H65      1.0000 0.61240  0.02150  0.08850  Biso   1.000  H
  H66      1.0000 0.81030  0.94060  0.15530  Biso   1.000  H
  H67      1.0000 0.59650  0.98210  0.21940  Biso   1.000  H
  H68      1.0000 0.68010  0.94780  0.03290  Biso   1.000  H
  H69      1.0000 0.89330  0.00470  0.97120  Biso   1.000  H
  H70      1.0000 0.95040  0.04200  0.03850  Biso   1.000  H
  H71      1.0000 0.87450  0.03110  0.10240  Biso   1.000  H
  H72      1.0000 0.27140  0.15100  0.15660  Biso   1.000  H
  H73      1.0000 0.88760  0.47850  0.08850  Biso   1.000  H
  H74      1.0000 0.68970  0.55940  0.15530  Biso   1.000  H
  H75      1.0000 0.90350  0.51790  0.21940  Biso   1.000  H
  H76      1.0000 0.81990  0.55220  0.03290  Biso   1.000  H
  H77      1.0000 0.60670  0.49530  0.97120  Biso   1.000  H
  H78      1.0000 0.54960  0.45800  0.03850  Biso   1.000  H
  H79      1.0000 0.62550  0.46890  0.10240  Biso   1.000  H
  H80      1.0000 0.22860  0.34900  0.15660  Biso   1.000  H
  H81      1.0000 0.47850  0.61240  0.08850  Biso   1.000  H
  H82      1.0000 0.55940  0.81030  0.15530  Biso   1.000  H
  H83      1.0000 0.51790  0.59650  0.21940  Biso   1.000  H
  H84      1.0000 0.55220  0.68010  0.03290  Biso   1.000  H
  H85      1.0000 0.49530  0.89330  0.97120  Biso   1.000  H
  H86      1.0000 0.45800  0.95040  0.03850  Biso   1.000  H
  H87      1.0000 0.46890  0.87450  0.10240  Biso   1.000  H
  H88      1.0000 0.34900  0.27140  0.15660  Biso   1.000  H
  H89      1.0000 0.02150  0.88760  0.08850  Biso   1.000  H
  H90      1.0000 0.94060  0.68970  0.15530  Biso   1.000  H
  H91      1.0000 0.98210  0.90350  0.21940  Biso   1.000  H
  H92      1.0000 0.94780  0.81990  0.03290  Biso   1.000  H
  H93      1.0000 0.00470  0.60670  0.97120  Biso   1.000  H
  H94      1.0000 0.04200  0.54960  0.03850  Biso   1.000  H
  H95      1.0000 0.03110  0.62550  0.10240  Biso   1.000  H
  H96      1.0000 0.15100  0.22860  0.15660  Biso   1.000  H
  H97      1.0000 0.38760  0.52150  0.41150  Biso   1.000  H
  H98      1.0000 0.18970  0.44060  0.34470  Biso   1.000  H
  H99      1.0000 0.40350  0.48210  0.28060  Biso   1.000  H
  H100     1.0000 0.31990  0.44780  0.46710  Biso   1.000  H
  H101     1.0000 0.10670  0.50470  0.52880  Biso   1.000  H
  H102     1.0000 0.04960  0.54200  0.46150  Biso   1.000  H
  H103     1.0000 0.12550  0.53110  0.39760  Biso   1.000  H
  H104     1.0000 0.72860  0.65100  0.34340  Biso   1.000  H
  H105     1.0000 0.11240  0.97850  0.41150  Biso   1.000  H
  H106     1.0000 0.31030  0.05940  0.34470  Biso   1.000  H
  H107     1.0000 0.09650  0.01790  0.28060  Biso   1.000  H
  H108     1.0000 0.18010  0.05220  0.46710  Biso   1.000  H
  H109     1.0000 0.39330  0.99530  0.52880  Biso   1.000  H
  H110     1.0000 0.45040  0.95800  0.46150  Biso   1.000  H
  H111     1.0000 0.37450  0.96890  0.39760  Biso   1.000  H
  H112     1.0000 0.77140  0.84900  0.34340  Biso   1.000  H
  H113     1.0000 0.52150  0.11240  0.41150  Biso   1.000  H
  H114     1.0000 0.44060  0.31030  0.34470  Biso   1.000  H
  H115     1.0000 0.48210  0.09650  0.28060  Biso   1.000  H
  H116     1.0000 0.44780  0.18010  0.46710  Biso   1.000  H
  H117     1.0000 0.50470  0.39330  0.52880  Biso   1.000  H
  H118     1.0000 0.54200  0.45040  0.46150  Biso   1.000  H
  H119     1.0000 0.53110  0.37450  0.39760  Biso   1.000  H
  H120     1.0000 0.65100  0.77140  0.34340  Biso   1.000  H
  H121     1.0000 0.97850  0.38760  0.41150  Biso   1.000  H
  H122     1.0000 0.05940  0.18970  0.34470  Biso   1.000  H
  H123     1.0000 0.01790  0.40350  0.28060  Biso   1.000  H
  H124     1.0000 0.05220  0.31990  0.46710  Biso   1.000  H
  H125     1.0000 0.99530  0.10670  0.52880  Biso   1.000  H
  H126     1.0000 0.95800  0.04960  0.46150  Biso   1.000  H
  H127     1.0000 0.96890  0.12550  0.39760  Biso   1.000  H
  H128     1.0000 0.84900  0.72860  0.34340  Biso   1.000  H
  C1       1.0000 0.40810  0.99380  0.84610  Biso   1.000  C
  C2       1.0000 0.36230  0.99420  0.88474  Biso   1.000  C
  C3       1.0000 0.28000  0.01720  0.88463  Biso   1.000  C
  C4       1.0000 0.24560  0.04250  0.84526  Biso   1.000  C
  C5       1.0000 0.29140  0.04360  0.80605  Biso   1.000  C
  C6       1.0000 0.37220  0.01840  0.80688  Biso   1.000  C
  C7       1.0000 0.25110  0.06680  0.76416  Biso   1.000  C
  C8       1.0000 0.23100  0.01240  0.92585  Biso   1.000  C
  C9       1.0000 0.26470  0.03360  0.96586  Biso   1.000  C
  C10      1.0000 0.21930  0.02810  0.00433  Biso   1.000  C
  C11      1.0000 0.13830  0.99950  0.00265  Biso   1.000  C
  C12      1.0000 0.10450  0.97760  0.96275  Biso   1.000  C
  C13      1.0000 0.14960  0.98400  0.92479  Biso   1.000  C
  C14      1.0000 0.25650  0.05400  0.04660  Biso   1.000  C
  C15      1.0000 0.49400  0.96060  0.84592  Biso   1.000  C
  C16      1.0000 0.09190  0.50620  0.84610  Biso   1.000  C
  C17      1.0000 0.13770  0.50580  0.88474  Biso   1.000  C
  C18      1.0000 0.22000  0.48280  0.88463  Biso   1.000  C
  C19      1.0000 0.25440  0.45750  0.84526  Biso   1.000  C
  C20      1.0000 0.20860  0.45640  0.80605  Biso   1.000  C
  C21      1.0000 0.12780  0.48160  0.80688  Biso   1.000  C
  C22      1.0000 0.24890  0.43320  0.76416  Biso   1.000  C
  C23      1.0000 0.26900  0.48760  0.92585  Biso   1.000  C
  C24      1.0000 0.23530  0.46640  0.96586  Biso   1.000  C
  C25      1.0000 0.28070  0.47190  0.00433  Biso   1.000  C
  C26      1.0000 0.36170  0.50050  0.00265  Biso   1.000  C
  C27      1.0000 0.39550  0.52240  0.96275  Biso   1.000  C
  C28      1.0000 0.35040  0.51600  0.92479  Biso   1.000  C
  C29      1.0000 0.24350  0.44600  0.04660  Biso   1.000  C
  C30      1.0000 0.00600  0.53940  0.84592  Biso   1.000  C
  C31      1.0000 0.50620  0.40810  0.84610  Biso   1.000  C
  C32      1.0000 0.50580  0.36230  0.88474  Biso   1.000  C
  C33      1.0000 0.48280  0.28000  0.88463  Biso   1.000  C
  C34      1.0000 0.45750  0.24560  0.84526  Biso   1.000  C
  C35      1.0000 0.45640  0.29140  0.80605  Biso   1.000  C
  C36      1.0000 0.48160  0.37220  0.80688  Biso   1.000  C
  C37      1.0000 0.43320  0.25110  0.76416  Biso   1.000  C
  C38      1.0000 0.48760  0.23100  0.92585  Biso   1.000  C
  C39      1.0000 0.46640  0.26470  0.96586  Biso   1.000  C
  C40      1.0000 0.47190  0.21930  0.00433  Biso   1.000  C
  C41      1.0000 0.50050  0.13830  0.00265  Biso   1.000  C
  C42      1.0000 0.52240  0.10450  0.96275  Biso   1.000  C
  C43      1.0000 0.51600  0.14960  0.92479  Biso   1.000  C
  C44      1.0000 0.44600  0.25650  0.04660  Biso   1.000  C
  C45      1.0000 0.53940  0.49400  0.84592  Biso   1.000  C
  C46      1.0000 0.99380  0.09190  0.84610  Biso   1.000  C
  C47      1.0000 0.99420  0.13770  0.88474  Biso   1.000  C
  C48      1.0000 0.01720  0.22000  0.88463  Biso   1.000  C
  C49      1.0000 0.04250  0.25440  0.84526  Biso   1.000  C
  C50      1.0000 0.04360  0.20860  0.80605  Biso   1.000  C
  C51      1.0000 0.01840  0.12780  0.80688  Biso   1.000  C
  C52      1.0000 0.06680  0.24890  0.76416  Biso   1.000  C
  C53      1.0000 0.01240  0.26900  0.92585  Biso   1.000  C
  C54      1.0000 0.03360  0.23530  0.96586  Biso   1.000  C
  C55      1.0000 0.02810  0.28070  0.00433  Biso   1.000  C
  C56      1.0000 0.99950  0.36170  0.00265  Biso   1.000  C
  C57      1.0000 0.97760  0.39550  0.96275  Biso   1.000  C
  C58      1.0000 0.98400  0.35040  0.92479  Biso   1.000  C
  C59      1.0000 0.05400  0.24350  0.04660  Biso   1.000  C
  C60      1.0000 0.96060  0.00600  0.84592  Biso   1.000  C
  C61      1.0000 0.59190  0.49380  0.65390  Biso   1.000  C
  C62      1.0000 0.63770  0.49420  0.61526  Biso   1.000  C
  C63      1.0000 0.72000  0.51720  0.61537  Biso   1.000  C
  C64      1.0000 0.75440  0.54250  0.65474  Biso   1.000  C
  C65      1.0000 0.70860  0.54360  0.69395  Biso   1.000  C
  C66      1.0000 0.62780  0.51840  0.69312  Biso   1.000  C
  C67      1.0000 0.74890  0.56680  0.73584  Biso   1.000  C
  C68      1.0000 0.76900  0.51240  0.57415  Biso   1.000  C
  C69      1.0000 0.73530  0.53360  0.53414  Biso   1.000  C
  C70      1.0000 0.78070  0.52810  0.49567  Biso   1.000  C
  C71      1.0000 0.86170  0.49950  0.49735  Biso   1.000  C
  C72      1.0000 0.89550  0.47760  0.53725  Biso   1.000  C
  C73      1.0000 0.85040  0.48400  0.57521  Biso   1.000  C
  C74      1.0000 0.74350  0.55400  0.45340  Biso   1.000  C
  C75      1.0000 0.50600  0.46060  0.65408  Biso   1.000  C
  C76      1.0000 0.90810  0.00620  0.65390  Biso   1.000  C
  C77      1.0000 0.86230  0.00580  0.61526  Biso   1.000  C
  C78      1.0000 0.78000  0.98280  0.61537  Biso   1.000  C
  C79      1.0000 0.74560  0.95750  0.65474  Biso   1.000  C
  C80      1.0000 0.79140  0.95640  0.69395  Biso   1.000  C
  C81      1.0000 0.87220  0.98160  0.69312  Biso   1.000  C
  C82      1.0000 0.75110  0.93320  0.73584  Biso   1.000  C
  C83      1.0000 0.73100  0.98760  0.57415  Biso   1.000  C
  C84      1.0000 0.76470  0.96640  0.53414  Biso   1.000  C
  C85      1.0000 0.71930  0.97190  0.49567  Biso   1.000  C
  C86      1.0000 0.63830  0.00050  0.49735  Biso   1.000  C
  C87      1.0000 0.60450  0.02240  0.53725  Biso   1.000  C
  C88      1.0000 0.64960  0.01600  0.57521  Biso   1.000  C
  C89      1.0000 0.75650  0.94600  0.45340  Biso   1.000  C
  C90      1.0000 0.99400  0.03940  0.65408  Biso   1.000  C
  C91      1.0000 0.49380  0.90810  0.65390  Biso   1.000  C
  C92      1.0000 0.49420  0.86230  0.61526  Biso   1.000  C
  C93      1.0000 0.51720  0.78000  0.61537  Biso   1.000  C
  C94      1.0000 0.54250  0.74560  0.65474  Biso   1.000  C
  C95      1.0000 0.54360  0.79140  0.69395  Biso   1.000  C
  C96      1.0000 0.51840  0.87220  0.69312  Biso   1.000  C
  C97      1.0000 0.56680  0.75110  0.73584  Biso   1.000  C
  C98      1.0000 0.51240  0.73100  0.57415  Biso   1.000  C
  C99      1.0000 0.53360  0.76470  0.53414  Biso   1.000  C
  C100     1.0000 0.52810  0.71930  0.49567  Biso   1.000  C
  C101     1.0000 0.49950  0.63830  0.49735  Biso   1.000  C
  C102     1.0000 0.47760  0.60450  0.53725  Biso   1.000  C
  C103     1.0000 0.48400  0.64960  0.57521  Biso   1.000  C
  C104     1.0000 0.55400  0.75650  0.45340  Biso   1.000  C
  C105     1.0000 0.46060  0.99400  0.65408  Biso   1.000  C
  C106     1.0000 0.00620  0.59190  0.65390  Biso   1.000  C
  C107     1.0000 0.00580  0.63770  0.61526  Biso   1.000  C
  C108     1.0000 0.98280  0.72000  0.61537  Biso   1.000  C
  C109     1.0000 0.95750  0.75440  0.65474  Biso   1.000  C
  C110     1.0000 0.95640  0.70860  0.69395  Biso   1.000  C
  C111     1.0000 0.98160  0.62780  0.69312  Biso   1.000  C
  C112     1.0000 0.93320  0.74890  0.73584  Biso   1.000  C
  C113     1.0000 0.98760  0.76900  0.57415  Biso   1.000  C
  C114     1.0000 0.96640  0.73530  0.53414  Biso   1.000  C
  C115     1.0000 0.97190  0.78070  0.49567  Biso   1.000  C
  C116     1.0000 0.00050  0.86170  0.49735  Biso   1.000  C
  C117     1.0000 0.02240  0.89550  0.53725  Biso   1.000  C
  C118     1.0000 0.01600  0.85040  0.57521  Biso   1.000  C
  C119     1.0000 0.94600  0.74350  0.45340  Biso   1.000  C
  C120     1.0000 0.03940  0.50600  0.65408  Biso   1.000  C
  C121     1.0000 0.59190  0.00620  0.15390  Biso   1.000  C
  C122     1.0000 0.63770  0.00580  0.11526  Biso   1.000  C
  C123     1.0000 0.72000  0.98280  0.11537  Biso   1.000  C
  C124     1.0000 0.75440  0.95750  0.15474  Biso   1.000  C
  C125     1.0000 0.70860  0.95640  0.19395  Biso   1.000  C
  C126     1.0000 0.62780  0.98160  0.19312  Biso   1.000  C
  C127     1.0000 0.74890  0.93320  0.23584  Biso   1.000  C
  C128     1.0000 0.76900  0.98760  0.07415  Biso   1.000  C
  C129     1.0000 0.73530  0.96640  0.03414  Biso   1.000  C
  C130     1.0000 0.78070  0.97190  0.99567  Biso   1.000  C
  C131     1.0000 0.86170  0.00050  0.99735  Biso   1.000  C
  C132     1.0000 0.89550  0.02240  0.03725  Biso   1.000  C
  C133     1.0000 0.85040  0.01600  0.07521  Biso   1.000  C
  C134     1.0000 0.74350  0.94600  0.95340  Biso   1.000  C
  C135     1.0000 0.50600  0.03940  0.15408  Biso   1.000  C
  C136     1.0000 0.90810  0.49380  0.15390  Biso   1.000  C
  C137     1.0000 0.86230  0.49420  0.11526  Biso   1.000  C
  C138     1.0000 0.78000  0.51720  0.11537  Biso   1.000  C
  C139     1.0000 0.74560  0.54250  0.15474  Biso   1.000  C
  C140     1.0000 0.79140  0.54360  0.19395  Biso   1.000  C
  C141     1.0000 0.87220  0.51840  0.19312  Biso   1.000  C
  C142     1.0000 0.75110  0.56680  0.23584  Biso   1.000  C
  C143     1.0000 0.73100  0.51240  0.07415  Biso   1.000  C
  C144     1.0000 0.76470  0.53360  0.03414  Biso   1.000  C
  C145     1.0000 0.71930  0.52810  0.99567  Biso   1.000  C
  C146     1.0000 0.63830  0.49950  0.99735  Biso   1.000  C
  C147     1.0000 0.60450  0.47760  0.03725  Biso   1.000  C
  C148     1.0000 0.64960  0.48400  0.07521  Biso   1.000  C
  C149     1.0000 0.75650  0.55400  0.95340  Biso   1.000  C
  C150     1.0000 0.99400  0.46060  0.15408  Biso   1.000  C
  C151     1.0000 0.49380  0.59190  0.15390  Biso   1.000  C
  C152     1.0000 0.49420  0.63770  0.11526  Biso   1.000  C
  C153     1.0000 0.51720  0.72000  0.11537  Biso   1.000  C
  C154     1.0000 0.54250  0.75440  0.15474  Biso   1.000  C
  C155     1.0000 0.54360  0.70860  0.19395  Biso   1.000  C
  C156     1.0000 0.51840  0.62780  0.19312  Biso   1.000  C
  C157     1.0000 0.56680  0.74890  0.23584  Biso   1.000  C
  C158     1.0000 0.51240  0.76900  0.07415  Biso   1.000  C
  C159     1.0000 0.53360  0.73530  0.03414  Biso   1.000  C
  C160     1.0000 0.52810  0.78070  0.99567  Biso   1.000  C
  C161     1.0000 0.49950  0.86170  0.99735  Biso   1.000  C
  C162     1.0000 0.47760  0.89550  0.03725  Biso   1.000  C
  C163     1.0000 0.48400  0.85040  0.07521  Biso   1.000  C
  C164     1.0000 0.55400  0.74350  0.95340  Biso   1.000  C
  C165     1.0000 0.46060  0.50600  0.15408  Biso   1.000  C
  C166     1.0000 0.00620  0.90810  0.15390  Biso   1.000  C
  C167     1.0000 0.00580  0.86230  0.11526  Biso   1.000  C
  C168     1.0000 0.98280  0.78000  0.11537  Biso   1.000  C
  C169     1.0000 0.95750  0.74560  0.15474  Biso   1.000  C
  C170     1.0000 0.95640  0.79140  0.19395  Biso   1.000  C
  C171     1.0000 0.98160  0.87220  0.19312  Biso   1.000  C
  C172     1.0000 0.93320  0.75110  0.23584  Biso   1.000  C
  C173     1.0000 0.98760  0.73100  0.07415  Biso   1.000  C
  C174     1.0000 0.96640  0.76470  0.03414  Biso   1.000  C
  C175     1.0000 0.97190  0.71930  0.99567  Biso   1.000  C
  C176     1.0000 0.00050  0.63830  0.99735  Biso   1.000  C
  C177     1.0000 0.02240  0.60450  0.03725  Biso   1.000  C
  C178     1.0000 0.01600  0.64960  0.07521  Biso   1.000  C
  C179     1.0000 0.94600  0.75650  0.95340  Biso   1.000  C
  C180     1.0000 0.03940  0.99400  0.15408  Biso   1.000  C
  C181     1.0000 0.40810  0.50620  0.34610  Biso   1.000  C
  C182     1.0000 0.36230  0.50580  0.38474  Biso   1.000  C
  C183     1.0000 0.28000  0.48280  0.38463  Biso   1.000  C
  C184     1.0000 0.24560  0.45750  0.34526  Biso   1.000  C
  C185     1.0000 0.29140  0.45640  0.30605  Biso   1.000  C
  C186     1.0000 0.37220  0.48160  0.30688  Biso   1.000  C
  C187     1.0000 0.25110  0.43320  0.26416  Biso   1.000  C
  C188     1.0000 0.23100  0.48760  0.42585  Biso   1.000  C
  C189     1.0000 0.26470  0.46640  0.46586  Biso   1.000  C
  C190     1.0000 0.21930  0.47190  0.50433  Biso   1.000  C
  C191     1.0000 0.13830  0.50050  0.50265  Biso   1.000  C
  C192     1.0000 0.10450  0.52240  0.46275  Biso   1.000  C
  C193     1.0000 0.14960  0.51600  0.42479  Biso   1.000  C
  C194     1.0000 0.25650  0.44600  0.54660  Biso   1.000  C
  C195     1.0000 0.49400  0.53940  0.34592  Biso   1.000  C
  C196     1.0000 0.09190  0.99380  0.34610  Biso   1.000  C
  C197     1.0000 0.13770  0.99420  0.38474  Biso   1.000  C
  C198     1.0000 0.22000  0.01720  0.38463  Biso   1.000  C
  C199     1.0000 0.25440  0.04250  0.34526  Biso   1.000  C
  C200     1.0000 0.20860  0.04360  0.30605  Biso   1.000  C
  C201     1.0000 0.12780  0.01840  0.30688  Biso   1.000  C
  C202     1.0000 0.24890  0.06680  0.26416  Biso   1.000  C
  C203     1.0000 0.26900  0.01240  0.42585  Biso   1.000  C
  C204     1.0000 0.23530  0.03360  0.46586  Biso   1.000  C
  C205     1.0000 0.28070  0.02810  0.50433  Biso   1.000  C
  C206     1.0000 0.36170  0.99950  0.50265  Biso   1.000  C
  C207     1.0000 0.39550  0.97760  0.46275  Biso   1.000  C
  C208     1.0000 0.35040  0.98400  0.42479  Biso   1.000  C
  C209     1.0000 0.24350  0.05400  0.54660  Biso   1.000  C
  C210     1.0000 0.00600  0.96060  0.34592  Biso   1.000  C
  C211     1.0000 0.50620  0.09190  0.34610  Biso   1.000  C
  C212     1.0000 0.50580  0.13770  0.38474  Biso   1.000  C
  C213     1.0000 0.48280  0.22000  0.38463  Biso   1.000  C
  C214     1.0000 0.45750  0.25440  0.34526  Biso   1.000  C
  C215     1.0000 0.45640  0.20860  0.30605  Biso   1.000  C
  C216     1.0000 0.48160  0.12780  0.30688  Biso   1.000  C
  C217     1.0000 0.43320  0.24890  0.26416  Biso   1.000  C
  C218     1.0000 0.48760  0.26900  0.42585  Biso   1.000  C
  C219     1.0000 0.46640  0.23530  0.46586  Biso   1.000  C
  C220     1.0000 0.47190  0.28070  0.50433  Biso   1.000  C
  C221     1.0000 0.50050  0.36170  0.50265  Biso   1.000  C
  C222     1.0000 0.52240  0.39550  0.46275  Biso   1.000  C
  C223     1.0000 0.51600  0.35040  0.42479  Biso   1.000  C
  C224     1.0000 0.44600  0.24350  0.54660  Biso   1.000  C
  C225     1.0000 0.53940  0.00600  0.34592  Biso   1.000  C
  C226     1.0000 0.99380  0.40810  0.34610  Biso   1.000  C
  C227     1.0000 0.99420  0.36230  0.38474  Biso   1.000  C
  C228     1.0000 0.01720  0.28000  0.38463  Biso   1.000  C
  C229     1.0000 0.04250  0.24560  0.34526  Biso   1.000  C
  C230     1.0000 0.04360  0.29140  0.30605  Biso   1.000  C
  C231     1.0000 0.01840  0.37220  0.30688  Biso   1.000  C
  C232     1.0000 0.06680  0.25110  0.26416  Biso   1.000  C
  C233     1.0000 0.01240  0.23100  0.42585  Biso   1.000  C
  C234     1.0000 0.03360  0.26470  0.46586  Biso   1.000  C
  C235     1.0000 0.02810  0.21930  0.50433  Biso   1.000  C
  C236     1.0000 0.99950  0.13830  0.50265  Biso   1.000  C
  C237     1.0000 0.97760  0.10450  0.46275  Biso   1.000  C
  C238     1.0000 0.98400  0.14960  0.42479  Biso   1.000  C
  C239     1.0000 0.05400  0.25650  0.54660  Biso   1.000  C
  C240     1.0000 0.96060  0.49400  0.34592  Biso   1.000  C
  O1       1.0000 0.29160  0.09020  0.73184  Biso   1.000  O
  O2       1.0000 0.17320  0.05850  0.76293  Biso   1.000  O
  O3       1.0000 0.33370  0.06110  0.04762  Biso   1.000  O
  O4       1.0000 0.21410  0.06700  0.07984  Biso   1.000  O
  O5       1.0000 0.67742  0.85060  0.84701  Biso   1.000  O
  O6       1.0000 0.52438  0.94370  0.80957  Biso   1.000  O
  O7       1.0000 0.52860  0.95230  0.88272  Biso   1.000  O
  O8       1.0000 0.20840  0.40980  0.73184  Biso   1.000  O
  O9       1.0000 0.32680  0.44150  0.76293  Biso   1.000  O
  O10      1.0000 0.16630  0.43890  0.04762  Biso   1.000  O
  O11      1.0000 0.28590  0.43300  0.07984  Biso   1.000  O
  O12      1.0000 0.82258  0.64940  0.84701  Biso   1.000  O
  O13      1.0000 0.97562  0.55630  0.80957  Biso   1.000  O
  O14      1.0000 0.97140  0.54770  0.88272  Biso   1.000  O
  O15      1.0000 0.40980  0.29160  0.73184  Biso   1.000  O
  O16      1.0000 0.44150  0.17320  0.76293  Biso   1.000  O
  O17      1.0000 0.43890  0.33370  0.04762  Biso   1.000  O
  O18      1.0000 0.43300  0.21410  0.07984  Biso   1.000  O
  O19      1.0000 0.64940  0.67742  0.84701  Biso   1.000  O
  O20      1.0000 0.55630  0.52438  0.80957  Biso   1.000  O
  O21      1.0000 0.54770  0.52860  0.88272  Biso   1.000  O
  O22      1.0000 0.09020  0.20840  0.73184  Biso   1.000  O
  O23      1.0000 0.05850  0.32680  0.76293  Biso   1.000  O
  O24      1.0000 0.06110  0.16630  0.04762  Biso   1.000  O
  O25      1.0000 0.06700  0.28590  0.07984  Biso   1.000  O
  O26      1.0000 0.85060  0.82258  0.84701  Biso   1.000  O
  O27      1.0000 0.94370  0.97562  0.80957  Biso   1.000  O
  O28      1.0000 0.95230  0.97140  0.88272  Biso   1.000  O
  O29      1.0000 0.70840  0.59020  0.76816  Biso   1.000  O
  O30      1.0000 0.82680  0.55850  0.73707  Biso   1.000  O
  O31      1.0000 0.66630  0.56110  0.45238  Biso   1.000  O
  O32      1.0000 0.78590  0.56700  0.42016  Biso   1.000  O
  O33      1.0000 0.32258  0.35060  0.65299  Biso   1.000  O
  O34      1.0000 0.47562  0.44370  0.69043  Biso   1.000  O
  O35      1.0000 0.47140  0.45230  0.61728  Biso   1.000  O
  O36      1.0000 0.79160  0.90980  0.76816  Biso   1.000  O
  O37      1.0000 0.67320  0.94150  0.73707  Biso   1.000  O
  O38      1.0000 0.83370  0.93890  0.45238  Biso   1.000  O
  O39      1.0000 0.71410  0.93300  0.42016  Biso   1.000  O
  O40      1.0000 0.17742  0.14940  0.65299  Biso   1.000  O
  O41      1.0000 0.02438  0.05630  0.69043  Biso   1.000  O
  O42      1.0000 0.02860  0.04770  0.61728  Biso   1.000  O
  O43      1.0000 0.59020  0.79160  0.76816  Biso   1.000  O
  O44      1.0000 0.55850  0.67320  0.73707  Biso   1.000  O
  O45      1.0000 0.56110  0.83370  0.45238  Biso   1.000  O
  O46      1.0000 0.56700  0.71410  0.42016  Biso   1.000  O
  O47      1.0000 0.35060  0.17742  0.65299  Biso   1.000  O
  O48      1.0000 0.44370  0.02438  0.69043  Biso   1.000  O
  O49      1.0000 0.45230  0.02860  0.61728  Biso   1.000  O
  O50      1.0000 0.90980  0.70840  0.76816  Biso   1.000  O
  O51      1.0000 0.94150  0.82680  0.73707  Biso   1.000  O
  O52      1.0000 0.93890  0.66630  0.45238  Biso   1.000  O
  O53      1.0000 0.93300  0.78590  0.42016  Biso   1.000  O
  O54      1.0000 0.14940  0.32258  0.65299  Biso   1.000  O
  O55      1.0000 0.05630  0.47562  0.69043  Biso   1.000  O
  O56      1.0000 0.04770  0.47140  0.61728  Biso   1.000  O
  O57      1.0000 0.70840  0.90980  0.26816  Biso   1.000  O
  O58      1.0000 0.82680  0.94150  0.23707  Biso   1.000  O
  O59      1.0000 0.66630  0.93890  0.95238  Biso   1.000  O
  O60      1.0000 0.78590  0.93300  0.92016  Biso   1.000  O
  O61      1.0000 0.32258  0.14940  0.15299  Biso   1.000  O
  O62      1.0000 0.47562  0.05630  0.19043  Biso   1.000  O
  O63      1.0000 0.47140  0.04770  0.11728  Biso   1.000  O
  O64      1.0000 0.79160  0.59020  0.26816  Biso   1.000  O
  O65      1.0000 0.67320  0.55850  0.23707  Biso   1.000  O
  O66      1.0000 0.83370  0.56110  0.95238  Biso   1.000  O
  O67      1.0000 0.71410  0.56700  0.92016  Biso   1.000  O
  O68      1.0000 0.17742  0.35060  0.15299  Biso   1.000  O
  O69      1.0000 0.02438  0.44370  0.19043  Biso   1.000  O
  O70      1.0000 0.02860  0.45230  0.11728  Biso   1.000  O
  O71      1.0000 0.59020  0.70840  0.26816  Biso   1.000  O
  O72      1.0000 0.55850  0.82680  0.23707  Biso   1.000  O
  O73      1.0000 0.56110  0.66630  0.95238  Biso   1.000  O
  O74      1.0000 0.56700  0.78590  0.92016  Biso   1.000  O
  O75      1.0000 0.35060  0.32258  0.15299  Biso   1.000  O
  O76      1.0000 0.44370  0.47562  0.19043  Biso   1.000  O
  O77      1.0000 0.45230  0.47140  0.11728  Biso   1.000  O
  O78      1.0000 0.90980  0.79160  0.26816  Biso   1.000  O
  O79      1.0000 0.94150  0.67320  0.23707  Biso   1.000  O
  O80      1.0000 0.93890  0.83370  0.95238  Biso   1.000  O
  O81      1.0000 0.93300  0.71410  0.92016  Biso   1.000  O
  O82      1.0000 0.14940  0.17742  0.15299  Biso   1.000  O
  O83      1.0000 0.05630  0.02438  0.19043  Biso   1.000  O
  O84      1.0000 0.04770  0.02860  0.11728  Biso   1.000  O
  O85      1.0000 0.29160  0.40980  0.23184  Biso   1.000  O
  O86      1.0000 0.17320  0.44150  0.26293  Biso   1.000  O
  O87      1.0000 0.33370  0.43890  0.54762  Biso   1.000  O
  O88      1.0000 0.21410  0.43300  0.57984  Biso   1.000  O
  O89      1.0000 0.67742  0.64940  0.34701  Biso   1.000  O
  O90      1.0000 0.52438  0.55630  0.30957  Biso   1.000  O
  O91      1.0000 0.52860  0.54770  0.38272  Biso   1.000  O
  O92      1.0000 0.20840  0.09020  0.23184  Biso   1.000  O
  O93      1.0000 0.32680  0.05850  0.26293  Biso   1.000  O
  O94      1.0000 0.16630  0.06110  0.54762  Biso   1.000  O
  O95      1.0000 0.28590  0.06700  0.57984  Biso   1.000  O
  O96      1.0000 0.82258  0.85060  0.34701  Biso   1.000  O
  O97      1.0000 0.97562  0.94370  0.30957  Biso   1.000  O
  O98      1.0000 0.97140  0.95230  0.38272  Biso   1.000  O
  O99      1.0000 0.40980  0.20840  0.23184  Biso   1.000  O
  O100     1.0000 0.44150  0.32680  0.26293  Biso   1.000  O
  O101     1.0000 0.43890  0.16630  0.54762  Biso   1.000  O
  O102     1.0000 0.43300  0.28590  0.57984  Biso   1.000  O
  O103     1.0000 0.64940  0.82258  0.34701  Biso   1.000  O
  O104     1.0000 0.55630  0.97562  0.30957  Biso   1.000  O
  O105     1.0000 0.54770  0.97140  0.38272  Biso   1.000  O
  O106     1.0000 0.09020  0.29160  0.23184  Biso   1.000  O
  O107     1.0000 0.05850  0.17320  0.26293  Biso   1.000  O
  O108     1.0000 0.06110  0.33370  0.54762  Biso   1.000  O
  O109     1.0000 0.06700  0.21410  0.57984  Biso   1.000  O
  O110     1.0000 0.85060  0.67742  0.34701  Biso   1.000  O
  O111     1.0000 0.94370  0.52438  0.30957  Biso   1.000  O
  O112     1.0000 0.95230  0.52860  0.38272  Biso   1.000  O
