data_image0
_cell_length_a       10.0936
_cell_length_b       12.5108
_cell_length_c       15.1721
_cell_angle_alpha    90
_cell_angle_beta     90
_cell_angle_gamma    90

_symmetry_space_group_name_H-M    P 1
_symmetry_int_tables_number       1

loop_
  _symmetry_equiv_pos_as_xyz
  'x, y, z'

loop_
  _atom_site_label
  _atom_site_occupancy
  _atom_site_fract_x
  _atom_site_fract_y
  _atom_site_fract_z
  _atom_site_thermal_displace_type
  _atom_site_B_iso_or_equiv
  _atom_site_type_symbol
  Cd1      1.0000 0.00000  0.50000  0.00000  Biso   1.000  Cd
  Cd2      1.0000 0.50000  0.50000  0.50000  Biso   1.000  Cd
  Cd3      1.0000 0.00000  0.00000  0.50000  Biso   1.000  Cd
  Cd4      1.0000 0.50000  0.00000  0.00000  Biso   1.000  Cd
  H1       1.0000 0.37890  0.75930  0.05790  Biso   1.000  H
  H2       1.0000 0.63750  0.77620  0.87070  Biso   1.000  H
  H3       1.0000 0.51870  0.49800  0.88740  Biso   1.000  H
  H4       1.0000 0.44420  0.47920  0.72920  Biso   1.000  H
  H5       1.0000 0.71590  0.64890  0.61600  Biso   1.000  H
  H6       1.0000 0.12110  0.24070  0.55790  Biso   1.000  H
  H7       1.0000 0.86250  0.22380  0.37070  Biso   1.000  H
  H8       1.0000 0.98130  0.50200  0.38740  Biso   1.000  H
  H9       1.0000 0.05580  0.52080  0.22920  Biso   1.000  H
  H10      1.0000 0.78410  0.35110  0.11600  Biso   1.000  H
  H11      1.0000 0.62110  0.25930  0.44210  Biso   1.000  H
  H12      1.0000 0.36250  0.27620  0.62930  Biso   1.000  H
  H13      1.0000 0.48130  0.99800  0.61260  Biso   1.000  H
  H14      1.0000 0.55580  0.97920  0.77080  Biso   1.000  H
  H15      1.0000 0.28410  0.14890  0.88400  Biso   1.000  H
  H16      1.0000 0.87890  0.74070  0.94210  Biso   1.000  H
  H17      1.0000 0.13750  0.72380  0.12930  Biso   1.000  H
  H18      1.0000 0.01870  0.00200  0.11260  Biso   1.000  H
  H19      1.0000 0.94420  0.02080  0.27080  Biso   1.000  H
  H20      1.0000 0.21590  0.85110  0.38400  Biso   1.000  H
  H21      1.0000 0.62110  0.24070  0.94210  Biso   1.000  H
  H22      1.0000 0.36250  0.22380  0.12930  Biso   1.000  H
  H23      1.0000 0.48130  0.50200  0.11260  Biso   1.000  H
  H24      1.0000 0.55580  0.52080  0.27080  Biso   1.000  H
  H25      1.0000 0.28410  0.35110  0.38400  Biso   1.000  H
  H26      1.0000 0.87890  0.75930  0.44210  Biso   1.000  H
  H27      1.0000 0.13750  0.77620  0.62930  Biso   1.000  H
  H28      1.0000 0.01870  0.49800  0.61260  Biso   1.000  H
  H29      1.0000 0.94420  0.47920  0.77080  Biso   1.000  H
  H30      1.0000 0.21590  0.64890  0.88400  Biso   1.000  H
  H31      1.0000 0.37890  0.74070  0.55790  Biso   1.000  H
  H32      1.0000 0.63750  0.72380  0.37070  Biso   1.000  H
  H33      1.0000 0.51870  0.00200  0.38740  Biso   1.000  H
  H34      1.0000 0.44420  0.02080  0.22920  Biso   1.000  H
  H35      1.0000 0.71590  0.85110  0.11600  Biso   1.000  H
  H36      1.0000 0.12110  0.25930  0.05790  Biso   1.000  H
  H37      1.0000 0.86250  0.27620  0.87070  Biso   1.000  H
  H38      1.0000 0.98130  0.99800  0.88740  Biso   1.000  H
  H39      1.0000 0.05580  0.97920  0.72920  Biso   1.000  H
  H40      1.0000 0.78410  0.14890  0.61600  Biso   1.000  H
  C1       1.0000 0.43590  0.73990  0.01240  Biso   1.000  C
  C2       1.0000 0.57630  0.75110  0.91160  Biso   1.000  C
  C3       1.0000 0.58480  0.55350  0.87552  Biso   1.000  C
  C4       1.0000 0.72100  0.50960  0.90550  Biso   1.000  C
  C5       1.0000 0.51610  0.52400  0.71890  Biso   1.000  C
  C6       1.0000 0.66500  0.61610  0.65940  Biso   1.000  C
  C7       1.0000 0.06410  0.26010  0.51240  Biso   1.000  C
  C8       1.0000 0.92370  0.24890  0.41160  Biso   1.000  C
  C9       1.0000 0.91520  0.44650  0.37552  Biso   1.000  C
  C10      1.0000 0.77900  0.49040  0.40550  Biso   1.000  C
  C11      1.0000 0.98390  0.47600  0.21890  Biso   1.000  C
  C12      1.0000 0.83500  0.38390  0.15940  Biso   1.000  C
  C13      1.0000 0.56410  0.23990  0.48760  Biso   1.000  C
  C14      1.0000 0.42370  0.25110  0.58840  Biso   1.000  C
  C15      1.0000 0.41520  0.05350  0.62448  Biso   1.000  C
  C16      1.0000 0.27900  0.00960  0.59450  Biso   1.000  C
  C17      1.0000 0.48390  0.02400  0.78110  Biso   1.000  C
  C18      1.0000 0.33500  0.11610  0.84060  Biso   1.000  C
  C19      1.0000 0.93590  0.76010  0.98760  Biso   1.000  C
  C20      1.0000 0.07630  0.74890  0.08840  Biso   1.000  C
  C21      1.0000 0.08480  0.94650  0.12448  Biso   1.000  C
  C22      1.0000 0.22100  0.99040  0.09450  Biso   1.000  C
  C23      1.0000 0.01610  0.97600  0.28110  Biso   1.000  C
  C24      1.0000 0.16500  0.88390  0.34060  Biso   1.000  C
  C25      1.0000 0.56410  0.26010  0.98760  Biso   1.000  C
  C26      1.0000 0.42370  0.24890  0.08840  Biso   1.000  C
  C27      1.0000 0.41520  0.44650  0.12448  Biso   1.000  C
  C28      1.0000 0.27900  0.49040  0.09450  Biso   1.000  C
  C29      1.0000 0.48390  0.47600  0.28110  Biso   1.000  C
  C30      1.0000 0.33500  0.38390  0.34060  Biso   1.000  C
  C31      1.0000 0.93590  0.73990  0.48760  Biso   1.000  C
  C32      1.0000 0.07630  0.75110  0.58840  Biso   1.000  C
  C33      1.0000 0.08480  0.55350  0.62448  Biso   1.000  C
  C34      1.0000 0.22100  0.50960  0.59450  Biso   1.000  C
  C35      1.0000 0.01610  0.52400  0.78110  Biso   1.000  C
  C36      1.0000 0.16500  0.61610  0.84060  Biso   1.000  C
  C37      1.0000 0.43590  0.76010  0.51240  Biso   1.000  C
  C38      1.0000 0.57630  0.74890  0.41160  Biso   1.000  C
  C39      1.0000 0.58480  0.94650  0.37552  Biso   1.000  C
  C40      1.0000 0.72100  0.99040  0.40550  Biso   1.000  C
  C41      1.0000 0.51610  0.97600  0.21890  Biso   1.000  C
  C42      1.0000 0.66500  0.88390  0.15940  Biso   1.000  C
  C43      1.0000 0.06410  0.23990  0.01240  Biso   1.000  C
  C44      1.0000 0.92370  0.25110  0.91160  Biso   1.000  C
  C45      1.0000 0.91520  0.05350  0.87552  Biso   1.000  C
  C46      1.0000 0.77900  0.00960  0.90550  Biso   1.000  C
  C47      1.0000 0.98390  0.02400  0.71890  Biso   1.000  C
  C48      1.0000 0.83500  0.11610  0.65940  Biso   1.000  C
  N1       1.0000 0.54110  0.65044  0.92032  Biso   1.000  N
  N2       1.0000 0.44870  0.64120  0.98536  Biso   1.000  N
  N3       1.0000 0.51230  0.81180  0.96900  Biso   1.000  N
  N4       1.0000 0.58850  0.56983  0.78077  Biso   1.000  N
  N5       1.0000 0.68740  0.62880  0.74346  Biso   1.000  N
  N6       1.0000 0.56080  0.55100  0.64056  Biso   1.000  N
  N7       1.0000 0.95890  0.34956  0.42032  Biso   1.000  N
  N8       1.0000 0.05130  0.35880  0.48536  Biso   1.000  N
  N9       1.0000 0.98770  0.18820  0.46900  Biso   1.000  N
  N10      1.0000 0.91150  0.43017  0.28077  Biso   1.000  N
  N11      1.0000 0.81260  0.37120  0.24346  Biso   1.000  N
  N12      1.0000 0.93920  0.44900  0.14056  Biso   1.000  N
  N13      1.0000 0.45890  0.15044  0.57968  Biso   1.000  N
  N14      1.0000 0.55130  0.14120  0.51464  Biso   1.000  N
  N15      1.0000 0.48770  0.31180  0.53100  Biso   1.000  N
  N16      1.0000 0.41150  0.06983  0.71923  Biso   1.000  N
  N17      1.0000 0.31260  0.12880  0.75654  Biso   1.000  N
  N18      1.0000 0.43920  0.05100  0.85944  Biso   1.000  N
  N19      1.0000 0.04110  0.84956  0.07968  Biso   1.000  N
  N20      1.0000 0.94870  0.85880  0.01464  Biso   1.000  N
  N21      1.0000 0.01230  0.68820  0.03100  Biso   1.000  N
  N22      1.0000 0.08850  0.93017  0.21923  Biso   1.000  N
  N23      1.0000 0.18740  0.87120  0.25654  Biso   1.000  N
  N24      1.0000 0.06080  0.94900  0.35944  Biso   1.000  N
  N25      1.0000 0.45890  0.34956  0.07968  Biso   1.000  N
  N26      1.0000 0.55130  0.35880  0.01464  Biso   1.000  N
  N27      1.0000 0.48770  0.18820  0.03100  Biso   1.000  N
  N28      1.0000 0.41150  0.43017  0.21923  Biso   1.000  N
  N29      1.0000 0.31260  0.37120  0.25654  Biso   1.000  N
  N30      1.0000 0.43920  0.44900  0.35944  Biso   1.000  N
  N31      1.0000 0.04110  0.65044  0.57968  Biso   1.000  N
  N32      1.0000 0.94870  0.64120  0.51464  Biso   1.000  N
  N33      1.0000 0.01230  0.81180  0.53100  Biso   1.000  N
  N34      1.0000 0.08850  0.56983  0.71923  Biso   1.000  N
  N35      1.0000 0.18740  0.62880  0.75654  Biso   1.000  N
  N36      1.0000 0.06080  0.55100  0.85944  Biso   1.000  N
  N37      1.0000 0.54110  0.84956  0.42032  Biso   1.000  N
  N38      1.0000 0.44870  0.85880  0.48536  Biso   1.000  N
  N39      1.0000 0.51230  0.68820  0.46900  Biso   1.000  N
  N40      1.0000 0.58850  0.93017  0.28077  Biso   1.000  N
  N41      1.0000 0.68740  0.87120  0.24346  Biso   1.000  N
  N42      1.0000 0.56080  0.94900  0.14056  Biso   1.000  N
  N43      1.0000 0.95890  0.15044  0.92032  Biso   1.000  N
  N44      1.0000 0.05130  0.14120  0.98536  Biso   1.000  N
  N45      1.0000 0.98770  0.31180  0.96900  Biso   1.000  N
  N46      1.0000 0.91150  0.06983  0.78077  Biso   1.000  N
  N47      1.0000 0.81260  0.12880  0.74346  Biso   1.000  N
  N48      1.0000 0.93920  0.05100  0.64056  Biso   1.000  N
  O1       1.0000 0.77760  0.55289  0.96912  Biso   1.000  O
  O2       1.0000 0.75930  0.43288  0.86127  Biso   1.000  O
  O3       1.0000 0.72240  0.44711  0.46912  Biso   1.000  O
  O4       1.0000 0.74070  0.56712  0.36127  Biso   1.000  O
  O5       1.0000 0.22240  0.05289  0.53088  Biso   1.000  O
  O6       1.0000 0.24070  0.93288  0.63873  Biso   1.000  O
  O7       1.0000 0.27760  0.94711  0.03088  Biso   1.000  O
  O8       1.0000 0.25930  0.06712  0.13873  Biso   1.000  O
  O9       1.0000 0.22240  0.44711  0.03088  Biso   1.000  O
  O10      1.0000 0.24070  0.56712  0.13873  Biso   1.000  O
  O11      1.0000 0.27760  0.55289  0.53088  Biso   1.000  O
  O12      1.0000 0.25930  0.43288  0.63873  Biso   1.000  O
  O13      1.0000 0.77760  0.94711  0.46912  Biso   1.000  O
  O14      1.0000 0.75930  0.06712  0.36127  Biso   1.000  O
  O15      1.0000 0.72240  0.05289  0.96912  Biso   1.000  O
  O16      1.0000 0.74070  0.93288  0.86127  Biso   1.000  O
