data_image0
_cell_length_a       14.3551
_cell_length_b       14.3551
_cell_length_c       10.1132
_cell_angle_alpha    90
_cell_angle_beta     90
_cell_angle_gamma    120

_symmetry_space_group_name_H-M    "P 1"
_symmetry_int_tables_number       1

loop_
  _symmetry_equiv_pos_as_xyz
  'x, y, z'

loop_
  _atom_site_label
  _atom_site_occupancy
  _atom_site_fract_x
  _atom_site_fract_y
  _atom_site_fract_z
  _atom_site_thermal_displace_type
  _atom_site_B_iso_or_equiv
  _atom_site_type_symbol
  Sm1      1.0000 0.85662  0.44023  0.90361  Biso   1.000  Sm
  S1       1.0000 0.80665  0.66346  0.94150  Biso   1.000  S
  S2       1.0000 0.99451  0.51923  0.15421  Biso   1.000  S
  O1       1.0000 0.83140  0.70580  0.80760  Biso   1.000  O
  O2       1.0000 0.85400  0.59550  0.97170  Biso   1.000  O
  O3       1.0000 0.84830  0.75270  0.03860  Biso   1.000  O
  O4       1.0000 0.68900  0.59790  0.95950  Biso   1.000  O
  O5       1.0000 0.03080  0.54830  0.01510  Biso   1.000  O
  O6       1.0000 0.87678  0.45060  0.14980  Biso   1.000  O
  O7       1.0000 0.02840  0.61690  0.23640  Biso   1.000  O
  O8       1.0000 0.04740  0.46380  0.21630  Biso   1.000  O
  O9       1.0000 0.72230  0.44410  0.74970  Biso   1.000  O
  Sm2      1.0000 0.55977  0.41638  0.90361  Biso   1.000  Sm
  S3       1.0000 0.33654  0.14319  0.94150  Biso   1.000  S
  S4       1.0000 0.48077  0.47528  0.15421  Biso   1.000  S
  O10      1.0000 0.29420  0.12560  0.80760  Biso   1.000  O
  O11      1.0000 0.40450  0.25850  0.97170  Biso   1.000  O
  O12      1.0000 0.24730  0.09560  0.03860  Biso   1.000  O
  O13      1.0000 0.40210  0.09110  0.95950  Biso   1.000  O
  O14      1.0000 0.45170  0.48250  0.01510  Biso   1.000  O
  O15      1.0000 0.54940  0.42618  0.14980  Biso   1.000  O
  O16      1.0000 0.38310  0.41150  0.23640  Biso   1.000  O
  O17      1.0000 0.53620  0.58360  0.21630  Biso   1.000  O
  O18      1.0000 0.55590  0.27820  0.74970  Biso   1.000  O
  Sm3      1.0000 0.58362  0.14338  0.90361  Biso   1.000  Sm
  S5       1.0000 0.85681  0.19335  0.94150  Biso   1.000  S
  S6       1.0000 0.52472  0.00549  0.15421  Biso   1.000  S
  O19      1.0000 0.87440  0.16860  0.80760  Biso   1.000  O
  O20      1.0000 0.74150  0.14600  0.97170  Biso   1.000  O
  O21      1.0000 0.90440  0.15170  0.03860  Biso   1.000  O
  O22      1.0000 0.90890  0.31100  0.95950  Biso   1.000  O
  O23      1.0000 0.51750  0.96920  0.01510  Biso   1.000  O
  O24      1.0000 0.57382  0.12322  0.14980  Biso   1.000  O
  O25      1.0000 0.58850  0.97160  0.23640  Biso   1.000  O
  O26      1.0000 0.41640  0.95260  0.21630  Biso   1.000  O
  O27      1.0000 0.72180  0.27770  0.74970  Biso   1.000  O
  Sm4      1.0000 0.44023  0.85662  0.40361  Biso   1.000  Sm
  S7       1.0000 0.66346  0.80665  0.44150  Biso   1.000  S
  S8       1.0000 0.51923  0.99451  0.65421  Biso   1.000  S
  O28      1.0000 0.70580  0.83140  0.30760  Biso   1.000  O
  O29      1.0000 0.59550  0.85400  0.47170  Biso   1.000  O
  O30      1.0000 0.75270  0.84830  0.53860  Biso   1.000  O
  O31      1.0000 0.59790  0.68900  0.45950  Biso   1.000  O
  O32      1.0000 0.54830  0.03080  0.51510  Biso   1.000  O
  O33      1.0000 0.45060  0.87678  0.64980  Biso   1.000  O
  O34      1.0000 0.61690  0.02840  0.73640  Biso   1.000  O
  O35      1.0000 0.46380  0.04740  0.71630  Biso   1.000  O
  O36      1.0000 0.44410  0.72230  0.24970  Biso   1.000  O
  Sm5      1.0000 0.41638  0.55977  0.40361  Biso   1.000  Sm
  S9       1.0000 0.14319  0.33654  0.44150  Biso   1.000  S
  S10      1.0000 0.47528  0.48077  0.65421  Biso   1.000  S
  O37      1.0000 0.12560  0.29420  0.30760  Biso   1.000  O
  O38      1.0000 0.25850  0.40450  0.47170  Biso   1.000  O
  O39      1.0000 0.09560  0.24730  0.53860  Biso   1.000  O
  O40      1.0000 0.09110  0.40210  0.45950  Biso   1.000  O
  O41      1.0000 0.48250  0.45170  0.51510  Biso   1.000  O
  O42      1.0000 0.42618  0.54940  0.64980  Biso   1.000  O
  O43      1.0000 0.41150  0.38310  0.73640  Biso   1.000  O
  O44      1.0000 0.58360  0.53620  0.71630  Biso   1.000  O
  O45      1.0000 0.27820  0.55590  0.24970  Biso   1.000  O
  Sm6      1.0000 0.14338  0.58362  0.40361  Biso   1.000  Sm
  S11      1.0000 0.19335  0.85681  0.44150  Biso   1.000  S
  S12      1.0000 0.00549  0.52472  0.65421  Biso   1.000  S
  O46      1.0000 0.16860  0.87440  0.30760  Biso   1.000  O
  O47      1.0000 0.14600  0.74150  0.47170  Biso   1.000  O
  O48      1.0000 0.15170  0.90440  0.53860  Biso   1.000  O
  O49      1.0000 0.31100  0.90890  0.45950  Biso   1.000  O
  O50      1.0000 0.96920  0.51750  0.51510  Biso   1.000  O
  O51      1.0000 0.12322  0.57382  0.64980  Biso   1.000  O
  O52      1.0000 0.97160  0.58850  0.73640  Biso   1.000  O
  O53      1.0000 0.95260  0.41640  0.71630  Biso   1.000  O
  O54      1.0000 0.27770  0.72180  0.24970  Biso   1.000  O
  S13      1.0000 0.66667  0.33333  0.69164  Biso   1.000  S
  O55      1.0000 0.66667  0.33333  0.54980  Biso   1.000  O
  O56      1.0000 0.66667  0.33333  0.99020  Biso   1.000  O
  S14      1.0000 0.33333  0.66667  0.19164  Biso   1.000  S
  O57      1.0000 0.33333  0.66667  0.04980  Biso   1.000  O
  O58      1.0000 0.33333  0.66667  0.49020  Biso   1.000  O
