data_image0
_cell_length_a       11.5284
_cell_length_b       14.761
_cell_length_c       25.593
_cell_angle_alpha    90
_cell_angle_beta     90
_cell_angle_gamma    90

_symmetry_space_group_name_H-M    P 1
_symmetry_int_tables_number       1

loop_
  _symmetry_equiv_pos_as_xyz
  'x, y, z'

loop_
  _atom_site_label
  _atom_site_occupancy
  _atom_site_fract_x
  _atom_site_fract_y
  _atom_site_fract_z
  _atom_site_thermal_displace_type
  _atom_site_B_iso_or_equiv
  _atom_site_type_symbol
  Cu1      1.0000 0.50000  0.50000  0.50000  Biso   1.000  Cu
  Cu2      1.0000 0.50000  0.00000  0.00000  Biso   1.000  Cu
  Cu3      1.0000 0.50000  0.50000  0.00000  Biso   1.000  Cu
  Cu4      1.0000 0.50000  0.00000  0.50000  Biso   1.000  Cu
  Cu5      1.0000 0.00000  0.50000  0.50000  Biso   1.000  Cu
  Cu6      1.0000 0.00000  0.00000  0.00000  Biso   1.000  Cu
  Cu7      1.0000 0.00000  0.50000  0.00000  Biso   1.000  Cu
  Cu8      1.0000 0.00000  0.00000  0.50000  Biso   1.000  Cu
  Cu9      1.0000 0.68506  0.51404  0.25000  Biso   1.000  Cu
  Cu10     1.0000 0.68506  0.98596  0.25000  Biso   1.000  Cu
  Cu11     1.0000 0.31494  0.48596  0.75000  Biso   1.000  Cu
  Cu12     1.0000 0.31494  0.01404  0.75000  Biso   1.000  Cu
  H1       1.0000 0.75010  0.49920  0.48460  Biso   1.000  H
  H2       1.0000 0.57810  0.55350  0.61190  Biso   1.000  H
  H3       1.0000 0.75120  0.57850  0.65440  Biso   1.000  H
  H4       1.0000 0.92190  0.55560  0.61020  Biso   1.000  H
  H5       1.0000 0.75010  0.00080  0.01540  Biso   1.000  H
  H6       1.0000 0.57810  0.94650  0.88810  Biso   1.000  H
  H7       1.0000 0.75120  0.92150  0.84560  Biso   1.000  H
  H8       1.0000 0.92190  0.94440  0.88980  Biso   1.000  H
  H9       1.0000 0.24990  0.50080  0.98460  Biso   1.000  H
  H10      1.0000 0.42190  0.44650  0.11190  Biso   1.000  H
  H11      1.0000 0.24880  0.42150  0.15440  Biso   1.000  H
  H12      1.0000 0.07810  0.44440  0.11020  Biso   1.000  H
  H13      1.0000 0.24990  0.99920  0.51540  Biso   1.000  H
  H14      1.0000 0.42190  0.05350  0.38810  Biso   1.000  H
  H15      1.0000 0.24880  0.07850  0.34560  Biso   1.000  H
  H16      1.0000 0.07810  0.05560  0.38980  Biso   1.000  H
  H17      1.0000 0.24990  0.50080  0.51540  Biso   1.000  H
  H18      1.0000 0.42190  0.44650  0.38810  Biso   1.000  H
  H19      1.0000 0.24880  0.42150  0.34560  Biso   1.000  H
  H20      1.0000 0.07810  0.44440  0.38980  Biso   1.000  H
  H21      1.0000 0.24990  0.99920  0.98460  Biso   1.000  H
  H22      1.0000 0.42190  0.05350  0.11190  Biso   1.000  H
  H23      1.0000 0.24880  0.07850  0.15440  Biso   1.000  H
  H24      1.0000 0.07810  0.05560  0.11020  Biso   1.000  H
  H25      1.0000 0.75010  0.49920  0.01540  Biso   1.000  H
  H26      1.0000 0.57810  0.55350  0.88810  Biso   1.000  H
  H27      1.0000 0.75120  0.57850  0.84560  Biso   1.000  H
  H28      1.0000 0.92190  0.55560  0.88980  Biso   1.000  H
  H29      1.0000 0.75010  0.00080  0.48460  Biso   1.000  H
  H30      1.0000 0.57810  0.94650  0.61190  Biso   1.000  H
  H31      1.0000 0.75120  0.92150  0.65440  Biso   1.000  H
  H32      1.0000 0.92190  0.94440  0.61020  Biso   1.000  H
  W1       1.0000 0.72330  0.25000  0.38944  Biso   1.000  W
  W2       1.0000 0.72330  0.25000  0.11056  Biso   1.000  W
  W3       1.0000 0.27670  0.75000  0.88944  Biso   1.000  W
  W4       1.0000 0.27670  0.75000  0.61056  Biso   1.000  W
  W5       1.0000 0.77261  0.75000  0.40051  Biso   1.000  W
  W6       1.0000 0.77261  0.75000  0.09949  Biso   1.000  W
  W7       1.0000 0.22739  0.25000  0.90051  Biso   1.000  W
  W8       1.0000 0.22739  0.25000  0.59949  Biso   1.000  W
  C1       1.0000 0.62600  0.34290  0.43910  Biso   1.000  C
  C2       1.0000 0.84100  0.33900  0.43130  Biso   1.000  C
  C3       1.0000 0.71040  0.36160  0.33450  Biso   1.000  C
  C4       1.0000 0.63670  0.65570  0.42360  Biso   1.000  C
  C5       1.0000 0.88360  0.64210  0.42750  Biso   1.000  C
  C6       1.0000 0.73490  0.65780  0.33690  Biso   1.000  C
  C7       1.0000 0.75020  0.51390  0.51990  Biso   1.000  C
  C8       1.0000 0.64770  0.54650  0.59400  Biso   1.000  C
  C9       1.0000 0.75040  0.56060  0.61960  Biso   1.000  C
  C10      1.0000 0.85190  0.54770  0.59270  Biso   1.000  C
  C11      1.0000 0.62600  0.15710  0.06090  Biso   1.000  C
  C12      1.0000 0.84100  0.16100  0.06870  Biso   1.000  C
  C13      1.0000 0.71040  0.13840  0.16550  Biso   1.000  C
  C14      1.0000 0.63670  0.84430  0.07640  Biso   1.000  C
  C15      1.0000 0.88360  0.85790  0.07250  Biso   1.000  C
  C16      1.0000 0.73490  0.84220  0.16310  Biso   1.000  C
  C17      1.0000 0.75020  0.98610  0.98010  Biso   1.000  C
  C18      1.0000 0.64770  0.95350  0.90600  Biso   1.000  C
  C19      1.0000 0.75040  0.93940  0.88040  Biso   1.000  C
  C20      1.0000 0.85190  0.95230  0.90730  Biso   1.000  C
  C21      1.0000 0.37400  0.65710  0.93910  Biso   1.000  C
  C22      1.0000 0.15900  0.66100  0.93130  Biso   1.000  C
  C23      1.0000 0.28960  0.63840  0.83450  Biso   1.000  C
  C24      1.0000 0.36330  0.34430  0.92360  Biso   1.000  C
  C25      1.0000 0.11640  0.35790  0.92750  Biso   1.000  C
  C26      1.0000 0.26510  0.34220  0.83690  Biso   1.000  C
  C27      1.0000 0.24980  0.48610  0.01990  Biso   1.000  C
  C28      1.0000 0.35230  0.45350  0.09400  Biso   1.000  C
  C29      1.0000 0.24960  0.43940  0.11960  Biso   1.000  C
  C30      1.0000 0.14810  0.45230  0.09270  Biso   1.000  C
  C31      1.0000 0.37400  0.84290  0.56090  Biso   1.000  C
  C32      1.0000 0.15900  0.83900  0.56870  Biso   1.000  C
  C33      1.0000 0.28960  0.86160  0.66550  Biso   1.000  C
  C34      1.0000 0.36330  0.15570  0.57640  Biso   1.000  C
  C35      1.0000 0.11640  0.14210  0.57250  Biso   1.000  C
  C36      1.0000 0.26510  0.15780  0.66310  Biso   1.000  C
  C37      1.0000 0.24980  0.01390  0.48010  Biso   1.000  C
  C38      1.0000 0.35230  0.04650  0.40600  Biso   1.000  C
  C39      1.0000 0.24960  0.06060  0.38040  Biso   1.000  C
  C40      1.0000 0.14810  0.04770  0.40730  Biso   1.000  C
  C41      1.0000 0.37400  0.65710  0.56090  Biso   1.000  C
  C42      1.0000 0.15900  0.66100  0.56870  Biso   1.000  C
  C43      1.0000 0.28960  0.63840  0.66550  Biso   1.000  C
  C44      1.0000 0.36330  0.34430  0.57640  Biso   1.000  C
  C45      1.0000 0.11640  0.35790  0.57250  Biso   1.000  C
  C46      1.0000 0.26510  0.34220  0.66310  Biso   1.000  C
  C47      1.0000 0.24980  0.48610  0.48010  Biso   1.000  C
  C48      1.0000 0.35230  0.45350  0.40600  Biso   1.000  C
  C49      1.0000 0.24960  0.43940  0.38040  Biso   1.000  C
  C50      1.0000 0.14810  0.45230  0.40730  Biso   1.000  C
  C51      1.0000 0.37400  0.84290  0.93910  Biso   1.000  C
  C52      1.0000 0.15900  0.83900  0.93130  Biso   1.000  C
  C53      1.0000 0.28960  0.86160  0.83450  Biso   1.000  C
  C54      1.0000 0.36330  0.15570  0.92360  Biso   1.000  C
  C55      1.0000 0.11640  0.14210  0.92750  Biso   1.000  C
  C56      1.0000 0.26510  0.15780  0.83690  Biso   1.000  C
  C57      1.0000 0.24980  0.01390  0.01990  Biso   1.000  C
  C58      1.0000 0.35230  0.04650  0.09400  Biso   1.000  C
  C59      1.0000 0.24960  0.06060  0.11960  Biso   1.000  C
  C60      1.0000 0.14810  0.04770  0.09270  Biso   1.000  C
  C61      1.0000 0.62600  0.34290  0.06090  Biso   1.000  C
  C62      1.0000 0.84100  0.33900  0.06870  Biso   1.000  C
  C63      1.0000 0.71040  0.36160  0.16550  Biso   1.000  C
  C64      1.0000 0.63670  0.65570  0.07640  Biso   1.000  C
  C65      1.0000 0.88360  0.64210  0.07250  Biso   1.000  C
  C66      1.0000 0.73490  0.65780  0.16310  Biso   1.000  C
  C67      1.0000 0.75020  0.51390  0.98010  Biso   1.000  C
  C68      1.0000 0.64770  0.54650  0.90600  Biso   1.000  C
  C69      1.0000 0.75040  0.56060  0.88040  Biso   1.000  C
  C70      1.0000 0.85190  0.54770  0.90730  Biso   1.000  C
  C71      1.0000 0.62600  0.15710  0.43910  Biso   1.000  C
  C72      1.0000 0.84100  0.16100  0.43130  Biso   1.000  C
  C73      1.0000 0.71040  0.13840  0.33450  Biso   1.000  C
  C74      1.0000 0.63670  0.84430  0.42360  Biso   1.000  C
  C75      1.0000 0.88360  0.85790  0.42750  Biso   1.000  C
  C76      1.0000 0.73490  0.84220  0.33690  Biso   1.000  C
  C77      1.0000 0.75020  0.98610  0.51990  Biso   1.000  C
  C78      1.0000 0.64770  0.95350  0.59400  Biso   1.000  C
  C79      1.0000 0.75040  0.93940  0.61960  Biso   1.000  C
  C80      1.0000 0.85190  0.95230  0.59270  Biso   1.000  C
  C81      1.0000 0.54710  0.25000  0.35880  Biso   1.000  C
  C82      1.0000 0.88530  0.25000  0.34680  Biso   1.000  C
  C83      1.0000 0.54710  0.25000  0.14120  Biso   1.000  C
  C84      1.0000 0.88530  0.25000  0.15320  Biso   1.000  C
  C85      1.0000 0.45290  0.75000  0.85880  Biso   1.000  C
  C86      1.0000 0.11470  0.75000  0.84680  Biso   1.000  C
  C87      1.0000 0.45290  0.75000  0.64120  Biso   1.000  C
  C88      1.0000 0.11470  0.75000  0.65320  Biso   1.000  C
  C89      1.0000 0.92530  0.75000  0.35080  Biso   1.000  C
  C90      1.0000 0.76750  0.75000  0.48590  Biso   1.000  C
  C91      1.0000 0.92530  0.75000  0.14920  Biso   1.000  C
  C92      1.0000 0.76750  0.75000  0.01410  Biso   1.000  C
  C93      1.0000 0.07470  0.25000  0.85080  Biso   1.000  C
  C94      1.0000 0.23250  0.25000  0.98590  Biso   1.000  C
  C95      1.0000 0.07470  0.25000  0.64920  Biso   1.000  C
  C96      1.0000 0.23250  0.25000  0.51410  Biso   1.000  C
  N1       1.0000 0.57680  0.39630  0.46200  Biso   1.000  N
  N2       1.0000 0.90210  0.38580  0.45330  Biso   1.000  N
  N3       1.0000 0.70180  0.41950  0.30420  Biso   1.000  N
  N4       1.0000 0.57040  0.60240  0.43660  Biso   1.000  N
  N5       1.0000 0.94180  0.58620  0.44600  Biso   1.000  N
  N6       1.0000 0.71560  0.60720  0.30420  Biso   1.000  N
  N7       1.0000 0.64620  0.52240  0.54270  Biso   1.000  N
  N8       1.0000 0.85380  0.52410  0.54230  Biso   1.000  N
  N9       1.0000 0.57680  0.10370  0.03800  Biso   1.000  N
  N10      1.0000 0.90210  0.11420  0.04670  Biso   1.000  N
  N11      1.0000 0.70180  0.08050  0.19580  Biso   1.000  N
  N12      1.0000 0.57040  0.89760  0.06340  Biso   1.000  N
  N13      1.0000 0.94180  0.91380  0.05400  Biso   1.000  N
  N14      1.0000 0.71560  0.89280  0.19580  Biso   1.000  N
  N15      1.0000 0.64620  0.97760  0.95730  Biso   1.000  N
  N16      1.0000 0.85380  0.97590  0.95770  Biso   1.000  N
  N17      1.0000 0.42320  0.60370  0.96200  Biso   1.000  N
  N18      1.0000 0.09790  0.61420  0.95330  Biso   1.000  N
  N19      1.0000 0.29820  0.58050  0.80420  Biso   1.000  N
  N20      1.0000 0.42960  0.39760  0.93660  Biso   1.000  N
  N21      1.0000 0.05820  0.41380  0.94600  Biso   1.000  N
  N22      1.0000 0.28440  0.39280  0.80420  Biso   1.000  N
  N23      1.0000 0.35380  0.47760  0.04270  Biso   1.000  N
  N24      1.0000 0.14620  0.47590  0.04230  Biso   1.000  N
  N25      1.0000 0.42320  0.89630  0.53800  Biso   1.000  N
  N26      1.0000 0.09790  0.88580  0.54670  Biso   1.000  N
  N27      1.0000 0.29820  0.91950  0.69580  Biso   1.000  N
  N28      1.0000 0.42960  0.10240  0.56340  Biso   1.000  N
  N29      1.0000 0.05820  0.08620  0.55400  Biso   1.000  N
  N30      1.0000 0.28440  0.10720  0.69580  Biso   1.000  N
  N31      1.0000 0.35380  0.02240  0.45730  Biso   1.000  N
  N32      1.0000 0.14620  0.02410  0.45770  Biso   1.000  N
  N33      1.0000 0.42320  0.60370  0.53800  Biso   1.000  N
  N34      1.0000 0.09790  0.61420  0.54670  Biso   1.000  N
  N35      1.0000 0.29820  0.58050  0.69580  Biso   1.000  N
  N36      1.0000 0.42960  0.39760  0.56340  Biso   1.000  N
  N37      1.0000 0.05820  0.41380  0.55400  Biso   1.000  N
  N38      1.0000 0.28440  0.39280  0.69580  Biso   1.000  N
  N39      1.0000 0.35380  0.47760  0.45730  Biso   1.000  N
  N40      1.0000 0.14620  0.47590  0.45770  Biso   1.000  N
  N41      1.0000 0.42320  0.89630  0.96200  Biso   1.000  N
  N42      1.0000 0.09790  0.88580  0.95330  Biso   1.000  N
  N43      1.0000 0.29820  0.91950  0.80420  Biso   1.000  N
  N44      1.0000 0.42960  0.10240  0.93660  Biso   1.000  N
  N45      1.0000 0.05820  0.08620  0.94600  Biso   1.000  N
  N46      1.0000 0.28440  0.10720  0.80420  Biso   1.000  N
  N47      1.0000 0.35380  0.02240  0.04270  Biso   1.000  N
  N48      1.0000 0.14620  0.02410  0.04230  Biso   1.000  N
  N49      1.0000 0.57680  0.39630  0.03800  Biso   1.000  N
  N50      1.0000 0.90210  0.38580  0.04670  Biso   1.000  N
  N51      1.0000 0.70180  0.41950  0.19580  Biso   1.000  N
  N52      1.0000 0.57040  0.60240  0.06340  Biso   1.000  N
  N53      1.0000 0.94180  0.58620  0.05400  Biso   1.000  N
  N54      1.0000 0.71560  0.60720  0.19580  Biso   1.000  N
  N55      1.0000 0.64620  0.52240  0.95730  Biso   1.000  N
  N56      1.0000 0.85380  0.52410  0.95770  Biso   1.000  N
  N57      1.0000 0.57680  0.10370  0.46200  Biso   1.000  N
  N58      1.0000 0.90210  0.11420  0.45330  Biso   1.000  N
  N59      1.0000 0.70180  0.08050  0.30420  Biso   1.000  N
  N60      1.0000 0.57040  0.89760  0.43660  Biso   1.000  N
  N61      1.0000 0.94180  0.91380  0.44600  Biso   1.000  N
  N62      1.0000 0.71560  0.89280  0.30420  Biso   1.000  N
  N63      1.0000 0.64620  0.97760  0.54270  Biso   1.000  N
  N64      1.0000 0.85380  0.97590  0.54230  Biso   1.000  N
  N65      1.0000 0.45470  0.25000  0.34160  Biso   1.000  N
  N66      1.0000 0.97210  0.25000  0.32400  Biso   1.000  N
  N67      1.0000 0.45470  0.25000  0.15840  Biso   1.000  N
  N68      1.0000 0.97210  0.25000  0.17600  Biso   1.000  N
  N69      1.0000 0.54530  0.75000  0.84160  Biso   1.000  N
  N70      1.0000 0.02790  0.75000  0.82400  Biso   1.000  N
  N71      1.0000 0.54530  0.75000  0.65840  Biso   1.000  N
  N72      1.0000 0.02790  0.75000  0.67600  Biso   1.000  N
  N73      1.0000 0.00580  0.75000  0.32330  Biso   1.000  N
  N74      1.0000 0.76610  0.75000  0.53040  Biso   1.000  N
  N75      1.0000 0.00580  0.75000  0.17670  Biso   1.000  N
  N76      1.0000 0.76610  0.75000  0.96960  Biso   1.000  N
  N77      1.0000 0.99420  0.25000  0.82330  Biso   1.000  N
  N78      1.0000 0.23390  0.25000  0.03040  Biso   1.000  N
  N79      1.0000 0.99420  0.25000  0.67670  Biso   1.000  N
  N80      1.0000 0.23390  0.25000  0.46960  Biso   1.000  N
  O1       1.0000 0.49740  0.52610  0.25000  Biso   1.000  O
  O2       1.0000 0.49740  0.97390  0.25000  Biso   1.000  O
  O3       1.0000 0.50260  0.47390  0.75000  Biso   1.000  O
  O4       1.0000 0.50260  0.02610  0.75000  Biso   1.000  O
