data_image0
_cell_length_a       11.419
_cell_length_b       20.293
_cell_length_c       20.293
_cell_angle_alpha    75.4377
_cell_angle_beta     73.659
_cell_angle_gamma    73.659

_symmetry_space_group_name_H-M    P 1
_symmetry_int_tables_number       1

loop_
  _symmetry_equiv_pos_as_xyz
  'x, y, z'

loop_
  _atom_site_label
  _atom_site_occupancy
  _atom_site_fract_x
  _atom_site_fract_y
  _atom_site_fract_z
  _atom_site_thermal_displace_type
  _atom_site_B_iso_or_equiv
  _atom_site_type_symbol
  Cu1      1.0000 0.84803  0.61952  0.11656  Biso   1.000  Cu
  Cu2      1.0000 0.41589  0.11656  0.61952  Biso   1.000  Cu
  Cu3      1.0000 0.65197  0.38344  0.88048  Biso   1.000  Cu
  Cu4      1.0000 0.08411  0.88048  0.38344  Biso   1.000  Cu
  Cu5      1.0000 0.15197  0.38048  0.88344  Biso   1.000  Cu
  Cu6      1.0000 0.58411  0.88344  0.38048  Biso   1.000  Cu
  Cu7      1.0000 0.34803  0.61656  0.11952  Biso   1.000  Cu
  Cu8      1.0000 0.91589  0.11952  0.61656  Biso   1.000  Cu
  Cu9      1.0000 0.11350  0.88650  0.88650  Biso   1.000  Cu
  Cu10     1.0000 0.38650  0.61350  0.61350  Biso   1.000  Cu
  Cu11     1.0000 0.88650  0.11350  0.11350  Biso   1.000  Cu
  Cu12     1.0000 0.61350  0.38650  0.38650  Biso   1.000  Cu
  H1       1.0000 0.26880  0.49830  0.23950  Biso   1.000  H
  H2       1.0000 0.08860  0.45470  0.28830  Biso   1.000  H
  H3       1.0000 0.91600  0.50340  0.23960  Biso   1.000  H
  H4       1.0000 0.09790  0.63450  0.10270  Biso   1.000  H
  H5       1.0000 0.99340  0.23950  0.49830  Biso   1.000  H
  H6       1.0000 0.16840  0.28830  0.45470  Biso   1.000  H
  H7       1.0000 0.34100  0.23960  0.50340  Biso   1.000  H
  H8       1.0000 0.16490  0.10270  0.63450  Biso   1.000  H
  H9       1.0000 0.23120  0.26050  0.00170  Biso   1.000  H
  H10      1.0000 0.41140  0.21170  0.04530  Biso   1.000  H
  H11      1.0000 0.58400  0.26040  0.99660  Biso   1.000  H
  H12      1.0000 0.40210  0.39730  0.86550  Biso   1.000  H
  H13      1.0000 0.50660  0.00170  0.26050  Biso   1.000  H
  H14      1.0000 0.33160  0.04530  0.21170  Biso   1.000  H
  H15      1.0000 0.15900  0.99660  0.26040  Biso   1.000  H
  H16      1.0000 0.33510  0.86550  0.39730  Biso   1.000  H
  H17      1.0000 0.73120  0.50170  0.76050  Biso   1.000  H
  H18      1.0000 0.91140  0.54530  0.71170  Biso   1.000  H
  H19      1.0000 0.08400  0.49660  0.76040  Biso   1.000  H
  H20      1.0000 0.90210  0.36550  0.89730  Biso   1.000  H
  H21      1.0000 0.00660  0.76050  0.50170  Biso   1.000  H
  H22      1.0000 0.83160  0.71170  0.54530  Biso   1.000  H
  H23      1.0000 0.65900  0.76040  0.49660  Biso   1.000  H
  H24      1.0000 0.83510  0.89730  0.36550  Biso   1.000  H
  H25      1.0000 0.76880  0.73950  0.99830  Biso   1.000  H
  H26      1.0000 0.58860  0.78830  0.95470  Biso   1.000  H
  H27      1.0000 0.41600  0.73960  0.00340  Biso   1.000  H
  H28      1.0000 0.59790  0.60270  0.13450  Biso   1.000  H
  H29      1.0000 0.49340  0.99830  0.73950  Biso   1.000  H
  H30      1.0000 0.66840  0.95470  0.78830  Biso   1.000  H
  H31      1.0000 0.84100  0.00340  0.73960  Biso   1.000  H
  H32      1.0000 0.66490  0.13450  0.60270  Biso   1.000  H
  W1       1.0000 0.93649  0.84182  0.15818  Biso   1.000  W
  W2       1.0000 0.06351  0.15818  0.84182  Biso   1.000  W
  W3       1.0000 0.56351  0.34182  0.65818  Biso   1.000  W
  W4       1.0000 0.43649  0.65818  0.34182  Biso   1.000  W
  W5       1.0000 0.75000  0.38029  0.11971  Biso   1.000  W
  W6       1.0000 0.75000  0.11971  0.38029  Biso   1.000  W
  W7       1.0000 0.25000  0.61971  0.88029  Biso   1.000  W
  W8       1.0000 0.25000  0.88029  0.61971  Biso   1.000  W
  C1       1.0000 0.89270  0.75881  0.12819  Biso   1.000  C
  C2       1.0000 0.11892  0.77300  0.13556  Biso   1.000  C
  C3       1.0000 0.01271  0.86478  0.04720  Biso   1.000  C
  C4       1.0000 0.79827  0.47638  0.11728  Biso   1.000  C
  C5       1.0000 0.08282  0.61642  0.96334  Biso   1.000  C
  C6       1.0000 0.17592  0.72794  0.88862  Biso   1.000  C
  C7       1.0000 0.59632  0.32934  0.15342  Biso   1.000  C
  C8       1.0000 0.19667  0.51822  0.22044  Biso   1.000  C
  C9       1.0000 0.09090  0.49219  0.24921  Biso   1.000  C
  C10      1.0000 0.98981  0.52092  0.22046  Biso   1.000  C
  C11      1.0000 0.09652  0.59651  0.14125  Biso   1.000  C
  C12      1.0000 0.22030  0.12819  0.75881  Biso   1.000  C
  C13      1.0000 0.97252  0.13556  0.77300  Biso   1.000  C
  C14      1.0000 0.07531  0.04720  0.86478  Biso   1.000  C
  C15      1.0000 0.60807  0.11728  0.47638  Biso   1.000  C
  C16      1.0000 0.33742  0.96334  0.61642  Biso   1.000  C
  C17      1.0000 0.20752  0.88862  0.72794  Biso   1.000  C
  C18      1.0000 0.92092  0.15342  0.32934  Biso   1.000  C
  C19      1.0000 0.06467  0.22044  0.51822  Biso   1.000  C
  C20      1.0000 0.16770  0.24921  0.49219  Biso   1.000  C
  C21      1.0000 0.26881  0.22046  0.52092  Biso   1.000  C
  C22      1.0000 0.16572  0.14125  0.59651  Biso   1.000  C
  C23      1.0000 0.60730  0.37181  0.74119  Biso   1.000  C
  C24      1.0000 0.38108  0.36444  0.72700  Biso   1.000  C
  C25      1.0000 0.48729  0.45280  0.63522  Biso   1.000  C
  C26      1.0000 0.70173  0.38272  0.02362  Biso   1.000  C
  C27      1.0000 0.41718  0.53666  0.88358  Biso   1.000  C
  C28      1.0000 0.32408  0.61138  0.77206  Biso   1.000  C
  C29      1.0000 0.90368  0.34658  0.17066  Biso   1.000  C
  C30      1.0000 0.30333  0.27956  0.98178  Biso   1.000  C
  C31      1.0000 0.40910  0.25079  0.00781  Biso   1.000  C
  C32      1.0000 0.51019  0.27954  0.97908  Biso   1.000  C
  C33      1.0000 0.40348  0.35875  0.90349  Biso   1.000  C
  C34      1.0000 0.27970  0.74119  0.37181  Biso   1.000  C
  C35      1.0000 0.52748  0.72700  0.36444  Biso   1.000  C
  C36      1.0000 0.42469  0.63522  0.45280  Biso   1.000  C
  C37      1.0000 0.89193  0.02362  0.38272  Biso   1.000  C
  C38      1.0000 0.16258  0.88358  0.53666  Biso   1.000  C
  C39      1.0000 0.29248  0.77206  0.61138  Biso   1.000  C
  C40      1.0000 0.57908  0.17066  0.34658  Biso   1.000  C
  C41      1.0000 0.43533  0.98178  0.27956  Biso   1.000  C
  C42      1.0000 0.33230  0.00781  0.25079  Biso   1.000  C
  C43      1.0000 0.23119  0.97908  0.27954  Biso   1.000  C
  C44      1.0000 0.33428  0.90349  0.35875  Biso   1.000  C
  C45      1.0000 0.10730  0.24119  0.87181  Biso   1.000  C
  C46      1.0000 0.88108  0.22700  0.86444  Biso   1.000  C
  C47      1.0000 0.98729  0.13522  0.95280  Biso   1.000  C
  C48      1.0000 0.20173  0.52362  0.88272  Biso   1.000  C
  C49      1.0000 0.91718  0.38358  0.03666  Biso   1.000  C
  C50      1.0000 0.82408  0.27206  0.11138  Biso   1.000  C
  C51      1.0000 0.40368  0.67066  0.84658  Biso   1.000  C
  C52      1.0000 0.80333  0.48178  0.77956  Biso   1.000  C
  C53      1.0000 0.90910  0.50781  0.75079  Biso   1.000  C
  C54      1.0000 0.01019  0.47908  0.77954  Biso   1.000  C
  C55      1.0000 0.90348  0.40349  0.85875  Biso   1.000  C
  C56      1.0000 0.77970  0.87181  0.24119  Biso   1.000  C
  C57      1.0000 0.02748  0.86444  0.22700  Biso   1.000  C
  C58      1.0000 0.92469  0.95280  0.13522  Biso   1.000  C
  C59      1.0000 0.39193  0.88272  0.52362  Biso   1.000  C
  C60      1.0000 0.66258  0.03666  0.38358  Biso   1.000  C
  C61      1.0000 0.79248  0.11138  0.27206  Biso   1.000  C
  C62      1.0000 0.07908  0.84658  0.67066  Biso   1.000  C
  C63      1.0000 0.93533  0.77956  0.48178  Biso   1.000  C
  C64      1.0000 0.83230  0.75079  0.50781  Biso   1.000  C
  C65      1.0000 0.73119  0.77954  0.47908  Biso   1.000  C
  C66      1.0000 0.83428  0.85875  0.40349  Biso   1.000  C
  C67      1.0000 0.39270  0.62819  0.25881  Biso   1.000  C
  C68      1.0000 0.61892  0.63556  0.27300  Biso   1.000  C
  C69      1.0000 0.51271  0.54720  0.36478  Biso   1.000  C
  C70      1.0000 0.29827  0.61728  0.97638  Biso   1.000  C
  C71      1.0000 0.58282  0.46334  0.11642  Biso   1.000  C
  C72      1.0000 0.67592  0.38862  0.22794  Biso   1.000  C
  C73      1.0000 0.09632  0.65342  0.82934  Biso   1.000  C
  C74      1.0000 0.69667  0.72044  0.01822  Biso   1.000  C
  C75      1.0000 0.59090  0.74921  0.99219  Biso   1.000  C
  C76      1.0000 0.48981  0.72046  0.02092  Biso   1.000  C
  C77      1.0000 0.59652  0.64125  0.09651  Biso   1.000  C
  C78      1.0000 0.72030  0.25881  0.62819  Biso   1.000  C
  C79      1.0000 0.47252  0.27300  0.63556  Biso   1.000  C
  C80      1.0000 0.57531  0.36478  0.54720  Biso   1.000  C
  C81      1.0000 0.10807  0.97638  0.61728  Biso   1.000  C
  C82      1.0000 0.83742  0.11642  0.46334  Biso   1.000  C
  C83      1.0000 0.70752  0.22794  0.38862  Biso   1.000  C
  C84      1.0000 0.42092  0.82934  0.65342  Biso   1.000  C
  C85      1.0000 0.56467  0.01822  0.72044  Biso   1.000  C
  C86      1.0000 0.66770  0.99219  0.74921  Biso   1.000  C
  C87      1.0000 0.76881  0.02092  0.72046  Biso   1.000  C
  C88      1.0000 0.66572  0.09651  0.64125  Biso   1.000  C
  C89      1.0000 0.77620  0.88790  0.11210  Biso   1.000  C
  C90      1.0000 0.93650  0.75460  0.24540  Biso   1.000  C
  C91      1.0000 0.22380  0.11210  0.88790  Biso   1.000  C
  C92      1.0000 0.06350  0.24540  0.75460  Biso   1.000  C
  C93      1.0000 0.72380  0.38790  0.61210  Biso   1.000  C
  C94      1.0000 0.56350  0.25460  0.74540  Biso   1.000  C
  C95      1.0000 0.27620  0.61210  0.38790  Biso   1.000  C
  C96      1.0000 0.43650  0.74540  0.25460  Biso   1.000  C
  N1       1.0000 0.87231  0.71223  0.11555  Biso   1.000  N
  N2       1.0000 0.21030  0.73223  0.12237  Biso   1.000  N
  N3       1.0000 0.05034  0.87610  0.98822  Biso   1.000  N
  N4       1.0000 0.82104  0.52721  0.11851  Biso   1.000  N
  N5       1.0000 0.99509  0.61680  0.00742  Biso   1.000  N
  N6       1.0000 0.13997  0.78541  0.89265  Biso   1.000  N
  N7       1.0000 0.51394  0.30236  0.16876  Biso   1.000  N
  N8       1.0000 0.99276  0.57349  0.16559  Biso   1.000  N
  N9       1.0000 0.19921  0.57112  0.16606  Biso   1.000  N
  N10      1.0000 0.29991  0.11555  0.71223  Biso   1.000  N
  N11      1.0000 0.93510  0.12237  0.73223  Biso   1.000  N
  N12      1.0000 0.08534  0.98822  0.87610  Biso   1.000  N
  N13      1.0000 0.53324  0.11851  0.52721  Biso   1.000  N
  N14      1.0000 0.38069  0.00742  0.61680  Biso   1.000  N
  N15      1.0000 0.18197  0.89265  0.78541  Biso   1.000  N
  N16      1.0000 0.01494  0.16876  0.30236  Biso   1.000  N
  N17      1.0000 0.26816  0.16559  0.57349  Biso   1.000  N
  N18      1.0000 0.06361  0.16606  0.57112  Biso   1.000  N
  N19      1.0000 0.62769  0.38445  0.78777  Biso   1.000  N
  N20      1.0000 0.28970  0.37763  0.76777  Biso   1.000  N
  N21      1.0000 0.44966  0.51178  0.62390  Biso   1.000  N
  N22      1.0000 0.67896  0.38149  0.97279  Biso   1.000  N
  N23      1.0000 0.50491  0.49258  0.88320  Biso   1.000  N
  N24      1.0000 0.36003  0.60735  0.71459  Biso   1.000  N
  N25      1.0000 0.98606  0.33124  0.19764  Biso   1.000  N
  N26      1.0000 0.50724  0.33441  0.92651  Biso   1.000  N
  N27      1.0000 0.30079  0.33394  0.92888  Biso   1.000  N
  N28      1.0000 0.20009  0.78777  0.38445  Biso   1.000  N
  N29      1.0000 0.56490  0.76777  0.37763  Biso   1.000  N
  N30      1.0000 0.41466  0.62390  0.51178  Biso   1.000  N
  N31      1.0000 0.96676  0.97279  0.38149  Biso   1.000  N
  N32      1.0000 0.11931  0.88320  0.49258  Biso   1.000  N
  N33      1.0000 0.31803  0.71459  0.60735  Biso   1.000  N
  N34      1.0000 0.48506  0.19764  0.33124  Biso   1.000  N
  N35      1.0000 0.23184  0.92651  0.33441  Biso   1.000  N
  N36      1.0000 0.43639  0.92888  0.33394  Biso   1.000  N
  N37      1.0000 0.12769  0.28777  0.88445  Biso   1.000  N
  N38      1.0000 0.78970  0.26777  0.87763  Biso   1.000  N
  N39      1.0000 0.94966  0.12390  0.01178  Biso   1.000  N
  N40      1.0000 0.17896  0.47279  0.88149  Biso   1.000  N
  N41      1.0000 0.00491  0.38320  0.99258  Biso   1.000  N
  N42      1.0000 0.86003  0.21459  0.10735  Biso   1.000  N
  N43      1.0000 0.48606  0.69764  0.83124  Biso   1.000  N
  N44      1.0000 0.00724  0.42651  0.83441  Biso   1.000  N
  N45      1.0000 0.80079  0.42888  0.83394  Biso   1.000  N
  N46      1.0000 0.70009  0.88445  0.28777  Biso   1.000  N
  N47      1.0000 0.06490  0.87763  0.26777  Biso   1.000  N
  N48      1.0000 0.91466  0.01178  0.12390  Biso   1.000  N
  N49      1.0000 0.46676  0.88149  0.47279  Biso   1.000  N
  N50      1.0000 0.61931  0.99258  0.38320  Biso   1.000  N
  N51      1.0000 0.81803  0.10735  0.21459  Biso   1.000  N
  N52      1.0000 0.98506  0.83124  0.69764  Biso   1.000  N
  N53      1.0000 0.73184  0.83441  0.42651  Biso   1.000  N
  N54      1.0000 0.93639  0.83394  0.42888  Biso   1.000  N
  N55      1.0000 0.37231  0.61555  0.21223  Biso   1.000  N
  N56      1.0000 0.71030  0.62237  0.23223  Biso   1.000  N
  N57      1.0000 0.55034  0.48822  0.37610  Biso   1.000  N
  N58      1.0000 0.32104  0.61851  0.02721  Biso   1.000  N
  N59      1.0000 0.49509  0.50742  0.11680  Biso   1.000  N
  N60      1.0000 0.63997  0.39265  0.28541  Biso   1.000  N
  N61      1.0000 0.01394  0.66876  0.80236  Biso   1.000  N
  N62      1.0000 0.49276  0.66559  0.07349  Biso   1.000  N
  N63      1.0000 0.69921  0.66606  0.07112  Biso   1.000  N
  N64      1.0000 0.79991  0.21223  0.61555  Biso   1.000  N
  N65      1.0000 0.43510  0.23223  0.62237  Biso   1.000  N
  N66      1.0000 0.58534  0.37610  0.48822  Biso   1.000  N
  N67      1.0000 0.03324  0.02721  0.61851  Biso   1.000  N
  N68      1.0000 0.88069  0.11680  0.50742  Biso   1.000  N
  N69      1.0000 0.68197  0.28541  0.39265  Biso   1.000  N
  N70      1.0000 0.51494  0.80236  0.66876  Biso   1.000  N
  N71      1.0000 0.76816  0.07349  0.66559  Biso   1.000  N
  N72      1.0000 0.56361  0.07112  0.66606  Biso   1.000  N
  N73      1.0000 0.69250  0.91230  0.08770  Biso   1.000  N
  N74      1.0000 0.93420  0.70920  0.29080  Biso   1.000  N
  N75      1.0000 0.30750  0.08770  0.91230  Biso   1.000  N
  N76      1.0000 0.06580  0.29080  0.70920  Biso   1.000  N
  N77      1.0000 0.80750  0.41230  0.58770  Biso   1.000  N
  N78      1.0000 0.56580  0.20920  0.79080  Biso   1.000  N
  N79      1.0000 0.19250  0.58770  0.41230  Biso   1.000  N
  N80      1.0000 0.43420  0.79080  0.20920  Biso   1.000  N
