data_image0
_cell_length_a       13.0442
_cell_length_b       13.0442
_cell_length_c       16.758
_cell_angle_alpha    109.757
_cell_angle_beta     109.757
_cell_angle_gamma    93.3393

_symmetry_space_group_name_H-M    P 1
_symmetry_int_tables_number       1

loop_
  _symmetry_equiv_pos_as_xyz
  'x, y, z'

loop_
  _atom_site_label
  _atom_site_occupancy
  _atom_site_fract_x
  _atom_site_fract_y
  _atom_site_fract_z
  _atom_site_thermal_displace_type
  _atom_site_B_iso_or_equiv
  _atom_site_type_symbol
  Cd1      1.0000 0.12240  0.87760  0.25000  Biso   1.000  Cd
  Cd2      1.0000 0.87760  0.12240  0.75000  Biso   1.000  Cd
  H1       1.0000 0.34880  0.82520  0.21830  Biso   1.000  H
  H2       1.0000 0.04200  0.70380  0.03980  Biso   1.000  H
  H3       1.0000 0.41870  0.73390  0.10980  Biso   1.000  H
  H4       1.0000 0.10300  0.60480  0.92720  Biso   1.000  H
  H5       1.0000 0.32800  0.64760  0.90390  Biso   1.000  H
  H6       1.0000 0.24640  0.53620  0.88120  Biso   1.000  H
  H7       1.0000 0.21680  0.13960  0.38570  Biso   1.000  H
  H8       1.0000 0.95850  0.94530  0.36050  Biso   1.000  H
  H9       1.0000 0.17990  0.29050  0.48560  Biso   1.000  H
  H10      1.0000 0.91490  0.09070  0.45990  Biso   1.000  H
  H11      1.0000 0.07560  0.32600  0.61270  Biso   1.000  H
  H12      1.0000 0.94560  0.28020  0.55400  Biso   1.000  H
  H13      1.0000 0.17480  0.65120  0.28170  Biso   1.000  H
  H14      1.0000 0.29620  0.95800  0.46020  Biso   1.000  H
  H15      1.0000 0.26610  0.58130  0.39020  Biso   1.000  H
  H16      1.0000 0.39520  0.89700  0.57280  Biso   1.000  H
  H17      1.0000 0.35240  0.67200  0.59610  Biso   1.000  H
  H18      1.0000 0.46380  0.75360  0.61880  Biso   1.000  H
  H19      1.0000 0.86040  0.78320  0.11430  Biso   1.000  H
  H20      1.0000 0.05470  0.04150  0.13950  Biso   1.000  H
  H21      1.0000 0.70950  0.82010  0.01440  Biso   1.000  H
  H22      1.0000 0.90930  0.08510  0.04010  Biso   1.000  H
  H23      1.0000 0.67400  0.92440  0.88730  Biso   1.000  H
  H24      1.0000 0.71980  0.05440  0.94600  Biso   1.000  H
  H25      1.0000 0.65120  0.17480  0.78170  Biso   1.000  H
  H26      1.0000 0.95800  0.29620  0.96020  Biso   1.000  H
  H27      1.0000 0.58130  0.26610  0.89020  Biso   1.000  H
  H28      1.0000 0.89700  0.39520  0.07280  Biso   1.000  H
  H29      1.0000 0.67200  0.35240  0.09610  Biso   1.000  H
  H30      1.0000 0.75360  0.46380  0.11880  Biso   1.000  H
  H31      1.0000 0.78320  0.86040  0.61430  Biso   1.000  H
  H32      1.0000 0.04150  0.05470  0.63950  Biso   1.000  H
  H33      1.0000 0.82010  0.70950  0.51440  Biso   1.000  H
  H34      1.0000 0.08510  0.90930  0.54010  Biso   1.000  H
  H35      1.0000 0.92440  0.67400  0.38730  Biso   1.000  H
  H36      1.0000 0.05440  0.71980  0.44600  Biso   1.000  H
  H37      1.0000 0.82520  0.34880  0.71830  Biso   1.000  H
  H38      1.0000 0.70380  0.04200  0.53980  Biso   1.000  H
  H39      1.0000 0.73390  0.41870  0.60980  Biso   1.000  H
  H40      1.0000 0.60480  0.10300  0.42720  Biso   1.000  H
  H41      1.0000 0.64760  0.32800  0.40390  Biso   1.000  H
  H42      1.0000 0.53620  0.24640  0.38120  Biso   1.000  H
  H43      1.0000 0.13960  0.21680  0.88570  Biso   1.000  H
  H44      1.0000 0.94530  0.95850  0.86050  Biso   1.000  H
  H45      1.0000 0.29050  0.17990  0.98560  Biso   1.000  H
  H46      1.0000 0.09070  0.91490  0.95990  Biso   1.000  H
  H47      1.0000 0.32600  0.07560  0.11270  Biso   1.000  H
  H48      1.0000 0.28020  0.94560  0.05400  Biso   1.000  H
  C1       1.0000 0.29809  0.78063  0.15800  Biso   1.000  C
  C2       1.0000 0.11962  0.70948  0.05439  Biso   1.000  C
  C3       1.0000 0.34070  0.72572  0.09373  Biso   1.000  C
  C4       1.0000 0.15544  0.65054  0.98646  Biso   1.000  C
  C5       1.0000 0.26839  0.65847  0.00539  Biso   1.000  C
  C6       1.0000 0.30790  0.59610  0.93054  Biso   1.000  C
  C7       1.0000 0.40666  0.54614  0.96520  Biso   1.000  C
  C8       1.0000 0.39465  0.44241  0.97022  Biso   1.000  C
  C9       1.0000 0.48508  0.39790  0.00395  Biso   1.000  C
  C10      1.0000 0.15375  0.12909  0.40037  Biso   1.000  C
  C11      1.0000 0.00439  0.01673  0.38589  Biso   1.000  C
  C12      1.0000 0.13232  0.22002  0.46055  Biso   1.000  C
  C13      1.0000 0.97770  0.10342  0.44549  Biso   1.000  C
  C14      1.0000 0.04242  0.20822  0.48398  Biso   1.000  C
  C15      1.0000 0.01695  0.30465  0.55091  Biso   1.000  C
  C16      1.0000 0.00962  0.40538  0.52512  Biso   1.000  C
  C17      1.0000 0.91743  0.40983  0.45607  Biso   1.000  C
  C18      1.0000 0.90731  0.50051  0.43122  Biso   1.000  C
  C19      1.0000 0.21937  0.70191  0.34200  Biso   1.000  C
  C20      1.0000 0.29052  0.88038  0.44561  Biso   1.000  C
  C21      1.0000 0.27428  0.65930  0.40627  Biso   1.000  C
  C22      1.0000 0.34946  0.84456  0.51354  Biso   1.000  C
  C23      1.0000 0.34153  0.73161  0.49461  Biso   1.000  C
  C24      1.0000 0.40390  0.69210  0.56946  Biso   1.000  C
  C25      1.0000 0.45386  0.59334  0.53480  Biso   1.000  C
  C26      1.0000 0.55759  0.60535  0.52978  Biso   1.000  C
  C27      1.0000 0.60210  0.51492  0.49605  Biso   1.000  C
  C28      1.0000 0.87091  0.84625  0.09963  Biso   1.000  C
  C29      1.0000 0.98327  0.99561  0.11411  Biso   1.000  C
  C30      1.0000 0.77998  0.86768  0.03945  Biso   1.000  C
  C31      1.0000 0.89658  0.02230  0.05451  Biso   1.000  C
  C32      1.0000 0.79178  0.95758  0.01602  Biso   1.000  C
  C33      1.0000 0.69535  0.98305  0.94909  Biso   1.000  C
  C34      1.0000 0.59462  0.99038  0.97488  Biso   1.000  C
  C35      1.0000 0.59017  0.08257  0.04393  Biso   1.000  C
  C36      1.0000 0.49949  0.09269  0.06878  Biso   1.000  C
  C37      1.0000 0.70191  0.21937  0.84200  Biso   1.000  C
  C38      1.0000 0.88038  0.29052  0.94561  Biso   1.000  C
  C39      1.0000 0.65930  0.27428  0.90627  Biso   1.000  C
  C40      1.0000 0.84456  0.34946  0.01354  Biso   1.000  C
  C41      1.0000 0.73161  0.34153  0.99461  Biso   1.000  C
  C42      1.0000 0.69210  0.40390  0.06946  Biso   1.000  C
  C43      1.0000 0.59334  0.45386  0.03480  Biso   1.000  C
  C44      1.0000 0.60535  0.55759  0.02978  Biso   1.000  C
  C45      1.0000 0.51492  0.60210  0.99605  Biso   1.000  C
  C46      1.0000 0.84625  0.87091  0.59963  Biso   1.000  C
  C47      1.0000 0.99561  0.98327  0.61411  Biso   1.000  C
  C48      1.0000 0.86768  0.77998  0.53945  Biso   1.000  C
  C49      1.0000 0.02230  0.89658  0.55451  Biso   1.000  C
  C50      1.0000 0.95758  0.79178  0.51602  Biso   1.000  C
  C51      1.0000 0.98305  0.69535  0.44909  Biso   1.000  C
  C52      1.0000 0.99038  0.59462  0.47488  Biso   1.000  C
  C53      1.0000 0.08257  0.59017  0.54393  Biso   1.000  C
  C54      1.0000 0.09269  0.49949  0.56878  Biso   1.000  C
  C55      1.0000 0.78063  0.29809  0.65800  Biso   1.000  C
  C56      1.0000 0.70948  0.11962  0.55439  Biso   1.000  C
  C57      1.0000 0.72572  0.34070  0.59373  Biso   1.000  C
  C58      1.0000 0.65054  0.15544  0.48646  Biso   1.000  C
  C59      1.0000 0.65847  0.26839  0.50539  Biso   1.000  C
  C60      1.0000 0.59610  0.30790  0.43054  Biso   1.000  C
  C61      1.0000 0.54614  0.40666  0.46520  Biso   1.000  C
  C62      1.0000 0.44241  0.39465  0.47022  Biso   1.000  C
  C63      1.0000 0.39790  0.48508  0.50395  Biso   1.000  C
  C64      1.0000 0.12909  0.15375  0.90037  Biso   1.000  C
  C65      1.0000 0.01673  0.00439  0.88589  Biso   1.000  C
  C66      1.0000 0.22002  0.13232  0.96055  Biso   1.000  C
  C67      1.0000 0.10342  0.97770  0.94549  Biso   1.000  C
  C68      1.0000 0.20822  0.04242  0.98398  Biso   1.000  C
  C69      1.0000 0.30465  0.01695  0.05091  Biso   1.000  C
  C70      1.0000 0.40538  0.00962  0.02512  Biso   1.000  C
  C71      1.0000 0.40983  0.91743  0.95607  Biso   1.000  C
  C72      1.0000 0.50051  0.90731  0.93122  Biso   1.000  C
  N1       1.0000 0.18923  0.77441  0.13988  Biso   1.000  N
  N2       1.0000 0.09116  0.02804  0.36214  Biso   1.000  N
  N3       1.0000 0.22559  0.81077  0.36012  Biso   1.000  N
  N4       1.0000 0.97196  0.90884  0.13786  Biso   1.000  N
  N5       1.0000 0.81077  0.22559  0.86012  Biso   1.000  N
  N6       1.0000 0.90884  0.97196  0.63786  Biso   1.000  N
  N7       1.0000 0.77441  0.18923  0.63988  Biso   1.000  N
  N8       1.0000 0.02804  0.09116  0.86214  Biso   1.000  N
  F1       1.0000 0.29202  0.38314  0.94120  Biso   1.000  F
  F2       1.0000 0.46757  0.29687  0.00723  Biso   1.000  F
  F3       1.0000 0.83324  0.32020  0.40940  Biso   1.000  F
  F4       1.0000 0.81398  0.49534  0.36202  Biso   1.000  F
  F5       1.0000 0.61686  0.70798  0.55880  Biso   1.000  F
  F6       1.0000 0.70313  0.53243  0.49277  Biso   1.000  F
  F7       1.0000 0.67980  0.16676  0.09060  Biso   1.000  F
  F8       1.0000 0.50466  0.18602  0.13798  Biso   1.000  F
  F9       1.0000 0.70798  0.61686  0.05880  Biso   1.000  F
  F10      1.0000 0.53243  0.70313  0.99277  Biso   1.000  F
  F11      1.0000 0.16676  0.67980  0.59060  Biso   1.000  F
  F12      1.0000 0.18602  0.50466  0.63798  Biso   1.000  F
  F13      1.0000 0.38314  0.29202  0.44120  Biso   1.000  F
  F14      1.0000 0.29687  0.46757  0.50723  Biso   1.000  F
  F15      1.0000 0.32020  0.83324  0.90940  Biso   1.000  F
  F16      1.0000 0.49534  0.81398  0.86202  Biso   1.000  F
