data_image0
_cell_length_a       9.5268
_cell_length_b       9.5268
_cell_length_c       23.401
_cell_angle_alpha    90
_cell_angle_beta     90
_cell_angle_gamma    90

_symmetry_space_group_name_H-M    "P 1"
_symmetry_int_tables_number       1

loop_
  _symmetry_equiv_pos_as_xyz
  'x, y, z'

loop_
  _atom_site_label
  _atom_site_occupancy
  _atom_site_fract_x
  _atom_site_fract_y
  _atom_site_fract_z
  _atom_site_thermal_displace_type
  _atom_site_B_iso_or_equiv
  _atom_site_type_symbol
  N1       1.0000 0.60260  0.88730  0.81027  Biso   1.000  N
  O1       1.0000 0.83170  0.95780  0.92672  Biso   1.000  O
  C1       1.0000 0.92830  0.88650  0.96361  Biso   1.000  C
  H1       1.0000 0.99740  0.83560  0.94130  Biso   1.000  H
  H2       1.0000 0.87890  0.82040  0.98790  Biso   1.000  H
  C2       1.0000 0.75710  0.87670  0.88978  Biso   1.000  C
  C3       1.0000 0.75120  0.73260  0.89000  Biso   1.000  C
  H3       1.0000 0.79950  0.68010  0.91710  Biso   1.000  H
  C4       1.0000 0.67190  0.66990  0.84908  Biso   1.000  C
  H4       1.0000 0.66830  0.57240  0.84770  Biso   1.000  H
  C5       1.0000 0.59750  0.74490  0.81007  Biso   1.000  C
  H5       1.0000 0.54280  0.69850  0.78310  Biso   1.000  H
  C6       1.0000 0.67980  0.95070  0.84980  Biso   1.000  C
  H6       1.0000 0.68200  0.04820  0.85070  Biso   1.000  H
  N2       1.0000 0.39740  0.11270  0.81027  Biso   1.000  N
  O2       1.0000 0.16830  0.04220  0.92672  Biso   1.000  O
  C7       1.0000 0.07170  0.11350  0.96361  Biso   1.000  C
  H7       1.0000 0.00260  0.16440  0.94130  Biso   1.000  H
  H8       1.0000 0.12110  0.17960  0.98790  Biso   1.000  H
  C8       1.0000 0.24290  0.12330  0.88978  Biso   1.000  C
  C9       1.0000 0.24880  0.26740  0.89000  Biso   1.000  C
  H9       1.0000 0.20050  0.31990  0.91710  Biso   1.000  H
  C10      1.0000 0.32810  0.33010  0.84908  Biso   1.000  C
  H10      1.0000 0.33170  0.42760  0.84770  Biso   1.000  H
  C11      1.0000 0.40250  0.25510  0.81007  Biso   1.000  C
  H11      1.0000 0.45720  0.30150  0.78310  Biso   1.000  H
  C12      1.0000 0.32020  0.04930  0.84980  Biso   1.000  C
  H12      1.0000 0.31800  0.95180  0.85070  Biso   1.000  H
  N3       1.0000 0.88730  0.39740  0.18973  Biso   1.000  N
  O3       1.0000 0.95780  0.16830  0.07328  Biso   1.000  O
  C13      1.0000 0.88650  0.07170  0.03639  Biso   1.000  C
  H13      1.0000 0.83560  0.00260  0.05870  Biso   1.000  H
  H14      1.0000 0.82040  0.12110  0.01210  Biso   1.000  H
  C14      1.0000 0.87670  0.24290  0.11022  Biso   1.000  C
  C15      1.0000 0.73260  0.24880  0.11000  Biso   1.000  C
  H15      1.0000 0.68010  0.20050  0.08290  Biso   1.000  H
  C16      1.0000 0.66990  0.32810  0.15092  Biso   1.000  C
  H16      1.0000 0.57240  0.33170  0.15230  Biso   1.000  H
  C17      1.0000 0.74490  0.40250  0.18993  Biso   1.000  C
  H17      1.0000 0.69850  0.45720  0.21690  Biso   1.000  H
  C18      1.0000 0.95070  0.32020  0.15020  Biso   1.000  C
  H18      1.0000 0.04820  0.31800  0.14930  Biso   1.000  H
  N4       1.0000 0.11270  0.60260  0.18973  Biso   1.000  N
  O4       1.0000 0.04220  0.83170  0.07328  Biso   1.000  O
  C19      1.0000 0.11350  0.92830  0.03639  Biso   1.000  C
  H19      1.0000 0.16440  0.99740  0.05870  Biso   1.000  H
  H20      1.0000 0.17960  0.87890  0.01210  Biso   1.000  H
  C20      1.0000 0.12330  0.75710  0.11022  Biso   1.000  C
  C21      1.0000 0.26740  0.75120  0.11000  Biso   1.000  C
  H21      1.0000 0.31990  0.79950  0.08290  Biso   1.000  H
  C22      1.0000 0.33010  0.67190  0.15092  Biso   1.000  C
  H22      1.0000 0.42760  0.66830  0.15230  Biso   1.000  H
  C23      1.0000 0.25510  0.59750  0.18993  Biso   1.000  C
  H23      1.0000 0.30150  0.54280  0.21690  Biso   1.000  H
  C24      1.0000 0.04930  0.67980  0.15020  Biso   1.000  C
  H24      1.0000 0.95180  0.68200  0.14930  Biso   1.000  H
  N5       1.0000 0.10260  0.61270  0.31027  Biso   1.000  N
  O5       1.0000 0.33170  0.54220  0.42672  Biso   1.000  O
  C25      1.0000 0.42830  0.61350  0.46361  Biso   1.000  C
  H25      1.0000 0.49740  0.66440  0.44130  Biso   1.000  H
  H26      1.0000 0.37890  0.67960  0.48790  Biso   1.000  H
  C26      1.0000 0.25710  0.62330  0.38978  Biso   1.000  C
  C27      1.0000 0.25120  0.76740  0.39000  Biso   1.000  C
  H27      1.0000 0.29950  0.81990  0.41710  Biso   1.000  H
  C28      1.0000 0.17190  0.83010  0.34908  Biso   1.000  C
  H28      1.0000 0.16830  0.92760  0.34770  Biso   1.000  H
  C29      1.0000 0.09750  0.75510  0.31007  Biso   1.000  C
  H29      1.0000 0.04280  0.80150  0.28310  Biso   1.000  H
  C30      1.0000 0.17980  0.54930  0.34980  Biso   1.000  C
  H30      1.0000 0.18200  0.45180  0.35070  Biso   1.000  H
  N6       1.0000 0.89740  0.38730  0.31027  Biso   1.000  N
  O6       1.0000 0.66830  0.45780  0.42672  Biso   1.000  O
  C31      1.0000 0.57170  0.38650  0.46361  Biso   1.000  C
  H31      1.0000 0.50260  0.33560  0.44130  Biso   1.000  H
  H32      1.0000 0.62110  0.32040  0.48790  Biso   1.000  H
  C32      1.0000 0.74290  0.37670  0.38978  Biso   1.000  C
  C33      1.0000 0.74880  0.23260  0.39000  Biso   1.000  C
  H33      1.0000 0.70050  0.18010  0.41710  Biso   1.000  H
  C34      1.0000 0.82810  0.16990  0.34908  Biso   1.000  C
  H34      1.0000 0.83170  0.07240  0.34770  Biso   1.000  H
  C35      1.0000 0.90250  0.24490  0.31007  Biso   1.000  C
  H35      1.0000 0.95720  0.19850  0.28310  Biso   1.000  H
  C36      1.0000 0.82020  0.45070  0.34980  Biso   1.000  C
  H36      1.0000 0.81800  0.54820  0.35070  Biso   1.000  H
  N7       1.0000 0.38730  0.10260  0.68973  Biso   1.000  N
  O7       1.0000 0.45780  0.33170  0.57328  Biso   1.000  O
  C37      1.0000 0.38650  0.42830  0.53639  Biso   1.000  C
  H37      1.0000 0.33560  0.49740  0.55870  Biso   1.000  H
  H38      1.0000 0.32040  0.37890  0.51210  Biso   1.000  H
  C38      1.0000 0.37670  0.25710  0.61022  Biso   1.000  C
  C39      1.0000 0.23260  0.25120  0.61000  Biso   1.000  C
  H39      1.0000 0.18010  0.29950  0.58290  Biso   1.000  H
  C40      1.0000 0.16990  0.17190  0.65092  Biso   1.000  C
  H40      1.0000 0.07240  0.16830  0.65230  Biso   1.000  H
  C41      1.0000 0.24490  0.09750  0.68993  Biso   1.000  C
  H41      1.0000 0.19850  0.04280  0.71690  Biso   1.000  H
  C42      1.0000 0.45070  0.17980  0.65020  Biso   1.000  C
  H42      1.0000 0.54820  0.18200  0.64930  Biso   1.000  H
  N8       1.0000 0.61270  0.89740  0.68973  Biso   1.000  N
  O8       1.0000 0.54220  0.66830  0.57328  Biso   1.000  O
  C43      1.0000 0.61350  0.57170  0.53639  Biso   1.000  C
  H43      1.0000 0.66440  0.50260  0.55870  Biso   1.000  H
  H44      1.0000 0.67960  0.62110  0.51210  Biso   1.000  H
  C44      1.0000 0.62330  0.74290  0.61022  Biso   1.000  C
  C45      1.0000 0.76740  0.74880  0.61000  Biso   1.000  C
  H45      1.0000 0.81990  0.70050  0.58290  Biso   1.000  H
  C46      1.0000 0.83010  0.82810  0.65092  Biso   1.000  C
  H46      1.0000 0.92760  0.83170  0.65230  Biso   1.000  H
  C47      1.0000 0.75510  0.90250  0.68993  Biso   1.000  C
  H47      1.0000 0.80150  0.95720  0.71690  Biso   1.000  H
  C48      1.0000 0.54930  0.82020  0.65020  Biso   1.000  C
  H48      1.0000 0.45180  0.81800  0.64930  Biso   1.000  H
  Cu1      1.0000 0.50000  0.00000  0.75000  Biso   1.000  Cu
  Cu2      1.0000 0.00000  0.50000  0.25000  Biso   1.000  Cu
  C49      1.0000 0.00000  0.00000  0.00000  Biso   1.000  C
  C50      1.0000 0.50000  0.50000  0.50000  Biso   1.000  C
