data_image0
_cell_length_a       11.1193
_cell_length_b       11.2473
_cell_length_c       11.362
_cell_angle_alpha    75.651
_cell_angle_beta     66.119
_cell_angle_gamma    76.991

_symmetry_space_group_name_H-M    P 1
_symmetry_int_tables_number       1

loop_
  _symmetry_equiv_pos_as_xyz
  'x, y, z'

loop_
  _atom_site_label
  _atom_site_occupancy
  _atom_site_fract_x
  _atom_site_fract_y
  _atom_site_fract_z
  _atom_site_thermal_displace_type
  _atom_site_B_iso_or_equiv
  _atom_site_type_symbol
  Co1      1.0000 0.89106  0.61139  0.50123  Biso   1.000  Co
  Co2      1.0000 0.97109  0.43127  0.28995  Biso   1.000  Co
  Co3      1.0000 0.99917  0.64226  0.99109  Biso   1.000  Co
  Co4      1.0000 0.10894  0.38861  0.49877  Biso   1.000  Co
  Co5      1.0000 0.02891  0.56873  0.71005  Biso   1.000  Co
  Co6      1.0000 0.00083  0.35774  0.00891  Biso   1.000  Co
  H1       1.0000 0.12680  0.47610  0.07810  Biso   1.000  H
  H2       1.0000 0.02780  0.96750  0.14270  Biso   1.000  H
  H3       1.0000 0.85820  0.07450  0.49700  Biso   1.000  H
  H4       1.0000 0.81500  0.87330  0.59200  Biso   1.000  H
  H5       1.0000 0.45190  0.58040  0.86170  Biso   1.000  H
  H6       1.0000 0.41920  0.65110  0.50670  Biso   1.000  H
  H7       1.0000 0.64400  0.67350  0.40980  Biso   1.000  H
  H8       1.0000 0.87320  0.52390  0.92190  Biso   1.000  H
  H9       1.0000 0.97220  0.03250  0.85730  Biso   1.000  H
  H10      1.0000 0.14180  0.92550  0.50300  Biso   1.000  H
  H11      1.0000 0.18500  0.12670  0.40800  Biso   1.000  H
  H12      1.0000 0.54810  0.41960  0.13830  Biso   1.000  H
  H13      1.0000 0.58080  0.34890  0.49330  Biso   1.000  H
  H14      1.0000 0.35600  0.32650  0.59020  Biso   1.000  H
  C1       1.0000 0.98500  0.72650  0.22660  Biso   1.000  C
  C2       1.0000 0.95500  0.83230  0.29870  Biso   1.000  C
  C3       1.0000 0.98530  0.94980  0.23510  Biso   1.000  C
  C4       1.0000 0.95190  0.04160  0.31000  Biso   1.000  C
  C5       1.0000 0.88550  0.01260  0.44420  Biso   1.000  C
  C6       1.0000 0.85970  0.89280  0.50000  Biso   1.000  C
  C7       1.0000 0.98780  0.17070  0.24630  Biso   1.000  C
  C8       1.0000 0.71820  0.58620  0.77560  Biso   1.000  C
  C9       1.0000 0.62320  0.60680  0.70450  Biso   1.000  C
  C10      1.0000 0.48970  0.59740  0.76890  Biso   1.000  C
  C11      1.0000 0.41170  0.61330  0.69500  Biso   1.000  C
  C12      1.0000 0.47030  0.64040  0.55930  Biso   1.000  C
  C13      1.0000 0.60480  0.65160  0.50220  Biso   1.000  C
  C14      1.0000 0.26700  0.59780  0.75960  Biso   1.000  C
  C15      1.0000 0.01500  0.27350  0.77340  Biso   1.000  C
  C16      1.0000 0.04500  0.16770  0.70130  Biso   1.000  C
  C17      1.0000 0.01470  0.05020  0.76490  Biso   1.000  C
  C18      1.0000 0.04810  0.95840  0.69000  Biso   1.000  C
  C19      1.0000 0.11450  0.98740  0.55580  Biso   1.000  C
  C20      1.0000 0.14030  0.10720  0.50000  Biso   1.000  C
  C21      1.0000 0.01220  0.82930  0.75370  Biso   1.000  C
  C22      1.0000 0.28180  0.41380  0.22440  Biso   1.000  C
  C23      1.0000 0.37680  0.39320  0.29550  Biso   1.000  C
  C24      1.0000 0.51030  0.40260  0.23110  Biso   1.000  C
  C25      1.0000 0.58830  0.38670  0.30500  Biso   1.000  C
  C26      1.0000 0.52970  0.35960  0.44070  Biso   1.000  C
  C27      1.0000 0.39520  0.34840  0.49780  Biso   1.000  C
  C28      1.0000 0.73300  0.40220  0.24040  Biso   1.000  C
  N1       1.0000 0.89520  0.80330  0.42930  Biso   1.000  N
  N2       1.0000 0.68090  0.63260  0.57280  Biso   1.000  N
  N3       1.0000 0.10480  0.19670  0.57070  Biso   1.000  N
  N4       1.0000 0.31910  0.36740  0.42720  Biso   1.000  N
  O1       1.0000 0.95110  0.62450  0.29970  Biso   1.000  O
  O2       1.0000 0.03530  0.74600  0.10430  Biso   1.000  O
  O3       1.0000 0.96350  0.24400  0.32240  Biso   1.000  O
  O4       1.0000 0.03930  0.19160  0.12360  Biso   1.000  O
  O5       1.0000 0.83840  0.59440  0.69960  Biso   1.000  O
  O6       1.0000 0.67680  0.56480  0.89620  Biso   1.000  O
  O7       1.0000 0.20190  0.64110  0.86250  Biso   1.000  O
  O8       1.0000 0.22520  0.54200  0.70280  Biso   1.000  O
  O9       1.0000 0.05060  0.47110  0.09410  Biso   1.000  O
  O10      1.0000 0.08170  0.57430  0.50970  Biso   1.000  O
  O11      1.0000 0.79380  0.67770  0.11720  Biso   1.000  O
  O12      1.0000 0.04890  0.37550  0.70030  Biso   1.000  O
  O13      1.0000 0.96470  0.25400  0.89570  Biso   1.000  O
  O14      1.0000 0.03650  0.75600  0.67760  Biso   1.000  O
  O15      1.0000 0.96070  0.80840  0.87640  Biso   1.000  O
  O16      1.0000 0.16160  0.40560  0.30040  Biso   1.000  O
  O17      1.0000 0.32320  0.43520  0.10380  Biso   1.000  O
  O18      1.0000 0.79810  0.35890  0.13750  Biso   1.000  O
  O19      1.0000 0.77480  0.45800  0.29720  Biso   1.000  O
  O20      1.0000 0.94940  0.52890  0.90590  Biso   1.000  O
  O21      1.0000 0.91830  0.42570  0.49030  Biso   1.000  O
  O22      1.0000 0.20620  0.32230  0.88280  Biso   1.000  O
