data_image0
_cell_length_a       12.952
_cell_length_b       13.849
_cell_length_c       14.679
_cell_angle_alpha    112.46
_cell_angle_beta     99.574
_cell_angle_gamma    108.472

_symmetry_space_group_name_H-M    P 1
_symmetry_int_tables_number       1

loop_
  _symmetry_equiv_pos_as_xyz
  'x, y, z'

loop_
  _atom_site_label
  _atom_site_occupancy
  _atom_site_fract_x
  _atom_site_fract_y
  _atom_site_fract_z
  _atom_site_thermal_displace_type
  _atom_site_B_iso_or_equiv
  _atom_site_type_symbol
  Mo1      1.0000 0.23058  0.88965  0.66989  Biso   1.000  Mo
  Mo2      1.0000 0.76942  0.11035  0.33011  Biso   1.000  Mo
  H1       1.0000 0.23890  0.11260  0.65520  Biso   1.000  H
  H2       1.0000 0.10050  0.82240  0.45430  Biso   1.000  H
  H3       1.0000 0.18280  0.67650  0.70720  Biso   1.000  H
  H4       1.0000 0.96180  0.71740  0.57080  Biso   1.000  H
  H5       1.0000 0.45710  0.78670  0.80260  Biso   1.000  H
  H6       1.0000 0.48600  0.05240  0.81730  Biso   1.000  H
  H7       1.0000 0.28550  0.04370  0.48360  Biso   1.000  H
  H8       1.0000 0.30130  0.79600  0.47610  Biso   1.000  H
  H9       1.0000 0.33880  0.29630  0.56850  Biso   1.000  H
  H10      1.0000 0.36650  0.27650  0.66760  Biso   1.000  H
  H11      1.0000 0.23250  0.39690  0.64340  Biso   1.000  H
  H12      1.0000 0.26950  0.38260  0.74430  Biso   1.000  H
  H13      1.0000 0.36380  0.45800  0.71380  Biso   1.000  H
  H14      1.0000 0.14520  0.80770  0.26190  Biso   1.000  H
  H15      1.0000 0.06330  0.70890  0.27950  Biso   1.000  H
  H16      1.0000 0.90390  0.69150  0.15940  Biso   1.000  H
  H17      1.0000 0.98860  0.78670  0.13950  Biso   1.000  H
  H18      1.0000 0.99590  0.66660  0.10630  Biso   1.000  H
  H19      1.0000 0.18650  0.63920  0.84390  Biso   1.000  H
  H20      1.0000 0.13560  0.50630  0.81200  Biso   1.000  H
  H21      1.0000 0.01560  0.64660  0.85960  Biso   1.000  H
  H22      1.0000 0.95560  0.51160  0.81600  Biso   1.000  H
  H23      1.0000 0.05290  0.58940  0.92660  Biso   1.000  H
  H24      1.0000 0.79100  0.70700  0.59750  Biso   1.000  H
  H25      1.0000 0.78940  0.65080  0.67300  Biso   1.000  H
  H26      1.0000 0.62580  0.48710  0.54200  Biso   1.000  H
  H27      1.0000 0.60370  0.59990  0.58490  Biso   1.000  H
  H28      1.0000 0.62450  0.55450  0.47590  Biso   1.000  H
  H29      1.0000 0.70990  0.79370  0.88480  Biso   1.000  H
  H30      1.0000 0.58400  0.70640  0.80650  Biso   1.000  H
  H31      1.0000 0.65170  0.74320  0.01170  Biso   1.000  H
  H32      1.0000 0.54060  0.64120  0.91890  Biso   1.000  H
  H33      1.0000 0.66440  0.64570  0.91920  Biso   1.000  H
  H34      1.0000 0.65380  0.19320  0.82910  Biso   1.000  H
  H35      1.0000 0.76100  0.25260  0.93180  Biso   1.000  H
  H36      1.0000 0.57090  0.30970  0.91250  Biso   1.000  H
  H37      1.0000 0.66790  0.36210  0.02080  Biso   1.000  H
  H38      1.0000 0.69900  0.38970  0.93110  Biso   1.000  H
  H39      1.0000 0.33650  0.17090  0.35130  Biso   1.000  H
  H40      1.0000 0.22410  0.08460  0.35400  Biso   1.000  H
  H41      1.0000 0.31920  0.02700  0.19140  Biso   1.000  H
  H42      1.0000 0.20640  0.94090  0.19400  Biso   1.000  H
  H43      1.0000 0.20680  0.05040  0.18290  Biso   1.000  H
  H44      1.0000 0.24930  0.64370  0.24210  Biso   1.000  H
  H45      1.0000 0.25140  0.62330  0.34120  Biso   1.000  H
  H46      1.0000 0.41180  0.60750  0.23360  Biso   1.000  H
  H47      1.0000 0.41900  0.59200  0.33560  Biso   1.000  H
  H48      1.0000 0.31470  0.50190  0.23140  Biso   1.000  H
  H49      1.0000 0.76110  0.88740  0.34480  Biso   1.000  H
  H50      1.0000 0.89950  0.17760  0.54570  Biso   1.000  H
  H51      1.0000 0.81720  0.32350  0.29280  Biso   1.000  H
  H52      1.0000 0.03820  0.28260  0.42920  Biso   1.000  H
  H53      1.0000 0.54290  0.21330  0.19740  Biso   1.000  H
  H54      1.0000 0.51400  0.94760  0.18270  Biso   1.000  H
  H55      1.0000 0.71450  0.95630  0.51640  Biso   1.000  H
  H56      1.0000 0.69870  0.20400  0.52390  Biso   1.000  H
  H57      1.0000 0.66120  0.70370  0.43150  Biso   1.000  H
  H58      1.0000 0.63350  0.72350  0.33240  Biso   1.000  H
  H59      1.0000 0.76750  0.60310  0.35660  Biso   1.000  H
  H60      1.0000 0.73050  0.61740  0.25570  Biso   1.000  H
  H61      1.0000 0.63620  0.54200  0.28620  Biso   1.000  H
  H62      1.0000 0.85480  0.19230  0.73810  Biso   1.000  H
  H63      1.0000 0.93670  0.29110  0.72050  Biso   1.000  H
  H64      1.0000 0.09610  0.30850  0.84060  Biso   1.000  H
  H65      1.0000 0.01140  0.21330  0.86050  Biso   1.000  H
  H66      1.0000 0.00410  0.33340  0.89370  Biso   1.000  H
  H67      1.0000 0.81350  0.36080  0.15610  Biso   1.000  H
  H68      1.0000 0.86440  0.49370  0.18800  Biso   1.000  H
  H69      1.0000 0.98440  0.35340  0.14040  Biso   1.000  H
  H70      1.0000 0.04440  0.48840  0.18400  Biso   1.000  H
  H71      1.0000 0.94710  0.41060  0.07340  Biso   1.000  H
  H72      1.0000 0.20900  0.29300  0.40250  Biso   1.000  H
  H73      1.0000 0.21060  0.34920  0.32700  Biso   1.000  H
  H74      1.0000 0.37420  0.51290  0.45800  Biso   1.000  H
  H75      1.0000 0.39630  0.40010  0.41510  Biso   1.000  H
  H76      1.0000 0.37550  0.44550  0.52410  Biso   1.000  H
  H77      1.0000 0.29010  0.20630  0.11520  Biso   1.000  H
  H78      1.0000 0.41600  0.29360  0.19350  Biso   1.000  H
  H79      1.0000 0.34830  0.25680  0.98830  Biso   1.000  H
  H80      1.0000 0.45940  0.35880  0.08110  Biso   1.000  H
  H81      1.0000 0.33560  0.35430  0.08080  Biso   1.000  H
  H82      1.0000 0.34620  0.80680  0.17090  Biso   1.000  H
  H83      1.0000 0.23900  0.74740  0.06820  Biso   1.000  H
  H84      1.0000 0.42910  0.69030  0.08750  Biso   1.000  H
  H85      1.0000 0.33210  0.63790  0.97920  Biso   1.000  H
  H86      1.0000 0.30100  0.61030  0.06890  Biso   1.000  H
  H87      1.0000 0.66350  0.82910  0.64870  Biso   1.000  H
  H88      1.0000 0.77590  0.91540  0.64600  Biso   1.000  H
  H89      1.0000 0.68080  0.97300  0.80860  Biso   1.000  H
  H90      1.0000 0.79360  0.05910  0.80600  Biso   1.000  H
  H91      1.0000 0.79320  0.94960  0.81710  Biso   1.000  H
  H92      1.0000 0.75070  0.35630  0.75790  Biso   1.000  H
  H93      1.0000 0.74860  0.37670  0.65880  Biso   1.000  H
  H94      1.0000 0.58820  0.39250  0.76640  Biso   1.000  H
  H95      1.0000 0.58100  0.40800  0.66440  Biso   1.000  H
  H96      1.0000 0.68530  0.49810  0.76860  Biso   1.000  H
  Rh1      1.0000 0.03464  0.96822  0.55978  Biso   1.000  Rh
  Rh2      1.0000 0.06787  0.59336  0.51925  Biso   1.000  Rh
  Rh3      1.0000 0.42030  0.95128  0.92025  Biso   1.000  Rh
  Rh4      1.0000 0.44345  0.00010  0.55763  Biso   1.000  Rh
  Rh5      1.0000 0.96536  0.03178  0.44022  Biso   1.000  Rh
  Rh6      1.0000 0.93213  0.40664  0.48075  Biso   1.000  Rh
  Rh7      1.0000 0.57970  0.04872  0.07975  Biso   1.000  Rh
  Rh8      1.0000 0.55655  0.99990  0.44237  Biso   1.000  Rh
  C1       1.0000 0.19790  0.17840  0.57250  Biso   1.000  C
  C2       1.0000 0.30920  0.28560  0.62280  Biso   1.000  C
  C3       1.0000 0.29230  0.39000  0.68670  Biso   1.000  C
  C4       1.0000 0.04880  0.86090  0.35090  Biso   1.000  C
  C5       1.0000 0.06750  0.77260  0.26400  Biso   1.000  C
  C6       1.0000 0.98130  0.72510  0.15780  Biso   1.000  C
  C7       1.0000 0.07740  0.53890  0.69330  Biso   1.000  C
  C8       1.0000 0.11650  0.56730  0.80640  Biso   1.000  C
  C9       1.0000 0.02740  0.57980  0.85650  Biso   1.000  C
  C10      1.0000 0.85100  0.58290  0.55680  Biso   1.000  C
  C11      1.0000 0.77220  0.63370  0.59950  Biso   1.000  C
  C12      1.0000 0.64540  0.56250  0.54590  Biso   1.000  C
  C13      1.0000 0.58700  0.85200  0.92140  Biso   1.000  C
  C14      1.0000 0.62930  0.75830  0.88020  Biso   1.000  C
  C15      1.0000 0.62080  0.69150  0.93730  Biso   1.000  C
  C16      1.0000 0.61680  0.14100  0.93770  Biso   1.000  C
  C17      1.0000 0.67770  0.22850  0.90540  Biso   1.000  C
  C18      1.0000 0.65160  0.33150  0.94600  Biso   1.000  C
  C19      1.0000 0.36480  0.05190  0.38960  Biso   1.000  C
  C20      1.0000 0.29210  0.08990  0.33170  Biso   1.000  C
  C21      1.0000 0.25260  0.02090  0.21460  Biso   1.000  C
  C22      1.0000 0.37580  0.77960  0.37550  Biso   1.000  C
  C23      1.0000 0.30010  0.65280  0.30510  Biso   1.000  C
  C24      1.0000 0.36730  0.58230  0.27370  Biso   1.000  C
  C25      1.0000 0.80210  0.82160  0.42750  Biso   1.000  C
  C26      1.0000 0.69080  0.71440  0.37720  Biso   1.000  C
  C27      1.0000 0.70770  0.61000  0.31330  Biso   1.000  C
  C28      1.0000 0.95120  0.13910  0.64910  Biso   1.000  C
  C29      1.0000 0.93250  0.22740  0.73600  Biso   1.000  C
  C30      1.0000 0.01870  0.27490  0.84220  Biso   1.000  C
  C31      1.0000 0.92260  0.46110  0.30670  Biso   1.000  C
  C32      1.0000 0.88350  0.43270  0.19360  Biso   1.000  C
  C33      1.0000 0.97260  0.42020  0.14350  Biso   1.000  C
  C34      1.0000 0.14900  0.41710  0.44320  Biso   1.000  C
  C35      1.0000 0.22780  0.36630  0.40050  Biso   1.000  C
  C36      1.0000 0.35460  0.43750  0.45410  Biso   1.000  C
  C37      1.0000 0.41300  0.14800  0.07860  Biso   1.000  C
  C38      1.0000 0.37070  0.24170  0.11980  Biso   1.000  C
  C39      1.0000 0.37920  0.30850  0.06270  Biso   1.000  C
  C40      1.0000 0.38320  0.85900  0.06230  Biso   1.000  C
  C41      1.0000 0.32230  0.77150  0.09460  Biso   1.000  C
  C42      1.0000 0.34840  0.66850  0.05400  Biso   1.000  C
  C43      1.0000 0.63520  0.94810  0.61040  Biso   1.000  C
  C44      1.0000 0.70790  0.91010  0.66830  Biso   1.000  C
  C45      1.0000 0.74740  0.97910  0.78540  Biso   1.000  C
  C46      1.0000 0.62420  0.22040  0.62450  Biso   1.000  C
  C47      1.0000 0.69990  0.34720  0.69490  Biso   1.000  C
  C48      1.0000 0.63270  0.41770  0.72630  Biso   1.000  C
  N1       1.0000 0.18120  0.10280  0.60750  Biso   1.000  N
  N2       1.0000 0.06970  0.86600  0.44330  Biso   1.000  N
  N3       1.0000 0.12340  0.61330  0.66210  Biso   1.000  N
  N4       1.0000 0.94830  0.64630  0.55500  Biso   1.000  N
  N5       1.0000 0.49130  0.84270  0.86590  Biso   1.000  N
  N6       1.0000 0.51440  0.05950  0.87870  Biso   1.000  N
  N7       1.0000 0.34590  0.03700  0.46860  Biso   1.000  N
  N8       1.0000 0.35670  0.83520  0.46090  Biso   1.000  N
  N9       1.0000 0.81880  0.89720  0.39250  Biso   1.000  N
  N10      1.0000 0.93030  0.13400  0.55670  Biso   1.000  N
  N11      1.0000 0.87660  0.38670  0.33790  Biso   1.000  N
  N12      1.0000 0.05170  0.35370  0.44500  Biso   1.000  N
  N13      1.0000 0.50870  0.15730  0.13410  Biso   1.000  N
  N14      1.0000 0.48560  0.94050  0.12130  Biso   1.000  N
  N15      1.0000 0.65410  0.96300  0.53140  Biso   1.000  N
  N16      1.0000 0.64330  0.16480  0.53910  Biso   1.000  N
  O1       1.0000 0.12250  0.16550  0.49510  Biso   1.000  O
  O2       1.0000 0.01410  0.93000  0.33080  Biso   1.000  O
  O3       1.0000 0.99500  0.43980  0.63080  Biso   1.000  O
  O4       1.0000 0.81860  0.47340  0.52470  Biso   1.000  O
  O5       1.0000 0.64470  0.93440  0.01390  Biso   1.000  O
  O6       1.0000 0.66740  0.15350  0.02640  Biso   1.000  O
  O7       1.0000 0.44990  0.03940  0.35930  Biso   1.000  O
  O8       1.0000 0.45660  0.82920  0.34710  Biso   1.000  O
  O9       1.0000 0.10720  0.91770  0.67430  Biso   1.000  O
  O10      1.0000 0.19200  0.76450  0.55140  Biso   1.000  O
  O11      1.0000 0.27300  0.86390  0.77480  Biso   1.000  O
  O12      1.0000 0.34320  0.00430  0.67160  Biso   1.000  O
  O13      1.0000 0.87750  0.83450  0.50490  Biso   1.000  O
  O14      1.0000 0.98590  0.07000  0.66920  Biso   1.000  O
  O15      1.0000 0.00500  0.56020  0.36920  Biso   1.000  O
  O16      1.0000 0.18140  0.52660  0.47530  Biso   1.000  O
  O17      1.0000 0.35530  0.06560  0.98610  Biso   1.000  O
  O18      1.0000 0.33260  0.84650  0.97360  Biso   1.000  O
  O19      1.0000 0.55010  0.96060  0.64070  Biso   1.000  O
  O20      1.0000 0.54340  0.17080  0.65290  Biso   1.000  O
  O21      1.0000 0.89280  0.08230  0.32570  Biso   1.000  O
  O22      1.0000 0.80800  0.23550  0.44860  Biso   1.000  O
  O23      1.0000 0.72700  0.13610  0.22520  Biso   1.000  O
  O24      1.0000 0.65680  0.99570  0.32840  Biso   1.000  O
