data_image0
_cell_length_a       18.8327
_cell_length_b       18.8327
_cell_length_c       18.8327
_cell_angle_alpha    72.8077
_cell_angle_beta     72.8077
_cell_angle_gamma    72.8077

_symmetry_space_group_name_H-M    P 1
_symmetry_int_tables_number       1

loop_
  _symmetry_equiv_pos_as_xyz
  'x, y, z'

loop_
  _atom_site_label
  _atom_site_occupancy
  _atom_site_fract_x
  _atom_site_fract_y
  _atom_site_fract_z
  _atom_site_thermal_displace_type
  _atom_site_B_iso_or_equiv
  _atom_site_type_symbol
  Cu1      1.0000 0.41282  0.26827  0.85036  Biso   1.000  Cu
  Cu2      1.0000 0.85036  0.41282  0.26827  Biso   1.000  Cu
  Cu3      1.0000 0.26827  0.85036  0.41282  Biso   1.000  Cu
  Cu4      1.0000 0.23173  0.08719  0.64964  Biso   1.000  Cu
  Cu5      1.0000 0.08718  0.64964  0.23173  Biso   1.000  Cu
  Cu6      1.0000 0.64964  0.23173  0.08718  Biso   1.000  Cu
  Cu7      1.0000 0.58718  0.73173  0.14964  Biso   1.000  Cu
  Cu8      1.0000 0.14964  0.58718  0.73173  Biso   1.000  Cu
  Cu9      1.0000 0.73173  0.14964  0.58718  Biso   1.000  Cu
  Cu10     1.0000 0.76827  0.91282  0.35036  Biso   1.000  Cu
  Cu11     1.0000 0.91282  0.35036  0.76827  Biso   1.000  Cu
  Cu12     1.0000 0.35036  0.76827  0.91282  Biso   1.000  Cu
  H1       1.0000 0.43960  0.30500  0.98180  Biso   1.000  H
  H2       1.0000 0.37320  0.37510  0.07410  Biso   1.000  H
  H3       1.0000 0.18460  0.41390  0.99590  Biso   1.000  H
  H4       1.0000 0.25590  0.34200  0.90800  Biso   1.000  H
  H5       1.0000 0.98180  0.43960  0.30500  Biso   1.000  H
  H6       1.0000 0.07410  0.37320  0.37510  Biso   1.000  H
  H7       1.0000 0.99590  0.18460  0.41390  Biso   1.000  H
  H8       1.0000 0.90800  0.25590  0.34200  Biso   1.000  H
  H9       1.0000 0.30500  0.98180  0.43960  Biso   1.000  H
  H10      1.0000 0.37510  0.07410  0.37320  Biso   1.000  H
  H11      1.0000 0.41390  0.99590  0.18460  Biso   1.000  H
  H12      1.0000 0.34200  0.90800  0.25590  Biso   1.000  H
  H13      1.0000 0.19500  0.06040  0.51820  Biso   1.000  H
  H14      1.0000 0.12490  0.12680  0.42590  Biso   1.000  H
  H15      1.0000 0.08610  0.31540  0.50410  Biso   1.000  H
  H16      1.0000 0.15800  0.24410  0.59200  Biso   1.000  H
  H17      1.0000 0.06040  0.51820  0.19500  Biso   1.000  H
  H18      1.0000 0.12680  0.42590  0.12490  Biso   1.000  H
  H19      1.0000 0.31540  0.50410  0.08610  Biso   1.000  H
  H20      1.0000 0.24410  0.59200  0.15800  Biso   1.000  H
  H21      1.0000 0.51820  0.19500  0.06040  Biso   1.000  H
  H22      1.0000 0.42590  0.12490  0.12680  Biso   1.000  H
  H23      1.0000 0.50410  0.08610  0.31540  Biso   1.000  H
  H24      1.0000 0.59200  0.15800  0.24410  Biso   1.000  H
  H25      1.0000 0.56040  0.69500  0.01820  Biso   1.000  H
  H26      1.0000 0.62680  0.62490  0.92590  Biso   1.000  H
  H27      1.0000 0.81540  0.58610  0.00410  Biso   1.000  H
  H28      1.0000 0.74410  0.65800  0.09200  Biso   1.000  H
  H29      1.0000 0.01820  0.56040  0.69500  Biso   1.000  H
  H30      1.0000 0.92590  0.62680  0.62490  Biso   1.000  H
  H31      1.0000 0.00410  0.81540  0.58610  Biso   1.000  H
  H32      1.0000 0.09200  0.74410  0.65800  Biso   1.000  H
  H33      1.0000 0.69500  0.01820  0.56040  Biso   1.000  H
  H34      1.0000 0.62490  0.92590  0.62680  Biso   1.000  H
  H35      1.0000 0.58610  0.00410  0.81540  Biso   1.000  H
  H36      1.0000 0.65800  0.09200  0.74410  Biso   1.000  H
  H37      1.0000 0.80500  0.93960  0.48180  Biso   1.000  H
  H38      1.0000 0.87510  0.87320  0.57410  Biso   1.000  H
  H39      1.0000 0.91390  0.68460  0.49590  Biso   1.000  H
  H40      1.0000 0.84200  0.75590  0.40800  Biso   1.000  H
  H41      1.0000 0.93960  0.48180  0.80500  Biso   1.000  H
  H42      1.0000 0.87320  0.57410  0.87510  Biso   1.000  H
  H43      1.0000 0.68460  0.49590  0.91390  Biso   1.000  H
  H44      1.0000 0.75590  0.40800  0.84200  Biso   1.000  H
  H45      1.0000 0.48180  0.80500  0.93960  Biso   1.000  H
  H46      1.0000 0.57410  0.87510  0.87320  Biso   1.000  H
  H47      1.0000 0.49590  0.91390  0.68460  Biso   1.000  H
  H48      1.0000 0.40800  0.84200  0.75590  Biso   1.000  H
  C1       1.0000 0.27691  0.91391  0.92211  Biso   1.000  C
  C2       1.0000 0.25420  0.98480  0.95400  Biso   1.000  C
  C3       1.0000 0.18586  0.00146  0.00706  Biso   1.000  C
  C4       1.0000 0.16130  0.06900  0.03320  Biso   1.000  C
  C5       1.0000 0.38739  0.32749  0.98509  Biso   1.000  C
  C6       1.0000 0.34804  0.36994  0.04034  Biso   1.000  C
  C7       1.0000 0.27151  0.40431  0.04431  Biso   1.000  C
  C8       1.0000 0.23678  0.39258  0.99408  Biso   1.000  C
  C9       1.0000 0.27964  0.34944  0.94174  Biso   1.000  C
  C10      1.0000 0.34368  0.14708  0.94158  Biso   1.000  C
  C11      1.0000 0.28493  0.10043  0.95923  Biso   1.000  C
  C12      1.0000 0.30360  0.03450  0.93200  Biso   1.000  C
  C13      1.0000 0.21417  0.11637  0.00937  Biso   1.000  C
  C14      1.0000 0.92211  0.27691  0.91391  Biso   1.000  C
  C15      1.0000 0.95400  0.25420  0.98480  Biso   1.000  C
  C16      1.0000 0.00706  0.18586  0.00146  Biso   1.000  C
  C17      1.0000 0.03320  0.16130  0.06900  Biso   1.000  C
  C18      1.0000 0.98509  0.38739  0.32749  Biso   1.000  C
  C19      1.0000 0.04034  0.34804  0.36994  Biso   1.000  C
  C20      1.0000 0.04431  0.27151  0.40431  Biso   1.000  C
  C21      1.0000 0.99408  0.23678  0.39258  Biso   1.000  C
  C22      1.0000 0.94174  0.27964  0.34944  Biso   1.000  C
  C23      1.0000 0.94158  0.34368  0.14708  Biso   1.000  C
  C24      1.0000 0.95923  0.28493  0.10043  Biso   1.000  C
  C25      1.0000 0.93200  0.30360  0.03450  Biso   1.000  C
  C26      1.0000 0.00937  0.21417  0.11637  Biso   1.000  C
  C27      1.0000 0.91391  0.92211  0.27691  Biso   1.000  C
  C28      1.0000 0.98480  0.95400  0.25420  Biso   1.000  C
  C29      1.0000 0.00146  0.00706  0.18586  Biso   1.000  C
  C30      1.0000 0.06900  0.03320  0.16130  Biso   1.000  C
  C31      1.0000 0.32749  0.98509  0.38739  Biso   1.000  C
  C32      1.0000 0.36994  0.04034  0.34804  Biso   1.000  C
  C33      1.0000 0.40431  0.04431  0.27151  Biso   1.000  C
  C34      1.0000 0.39258  0.99408  0.23678  Biso   1.000  C
  C35      1.0000 0.34944  0.94174  0.27964  Biso   1.000  C
  C36      1.0000 0.14708  0.94158  0.34368  Biso   1.000  C
  C37      1.0000 0.10043  0.95923  0.28493  Biso   1.000  C
  C38      1.0000 0.03450  0.93200  0.30360  Biso   1.000  C
  C39      1.0000 0.11637  0.00937  0.21417  Biso   1.000  C
  C40      1.0000 0.58609  0.22309  0.57789  Biso   1.000  C
  C41      1.0000 0.51520  0.24580  0.54600  Biso   1.000  C
  C42      1.0000 0.49854  0.31414  0.49294  Biso   1.000  C
  C43      1.0000 0.43100  0.33870  0.46680  Biso   1.000  C
  C44      1.0000 0.17251  0.11261  0.51491  Biso   1.000  C
  C45      1.0000 0.13006  0.15196  0.45966  Biso   1.000  C
  C46      1.0000 0.09569  0.22849  0.45569  Biso   1.000  C
  C47      1.0000 0.10742  0.26322  0.50592  Biso   1.000  C
  C48      1.0000 0.15056  0.22036  0.55826  Biso   1.000  C
  C49      1.0000 0.35292  0.15632  0.55842  Biso   1.000  C
  C50      1.0000 0.39957  0.21507  0.54077  Biso   1.000  C
  C51      1.0000 0.46550  0.19640  0.56800  Biso   1.000  C
  C52      1.0000 0.38363  0.28583  0.49063  Biso   1.000  C
  C53      1.0000 0.22309  0.57789  0.58609  Biso   1.000  C
  C54      1.0000 0.24580  0.54600  0.51520  Biso   1.000  C
  C55      1.0000 0.31414  0.49294  0.49854  Biso   1.000  C
  C56      1.0000 0.33870  0.46680  0.43100  Biso   1.000  C
  C57      1.0000 0.11261  0.51491  0.17251  Biso   1.000  C
  C58      1.0000 0.15196  0.45966  0.13006  Biso   1.000  C
  C59      1.0000 0.22849  0.45569  0.09569  Biso   1.000  C
  C60      1.0000 0.26322  0.50592  0.10742  Biso   1.000  C
  C61      1.0000 0.22036  0.55826  0.15056  Biso   1.000  C
  C62      1.0000 0.15632  0.55842  0.35292  Biso   1.000  C
  C63      1.0000 0.21507  0.54077  0.39957  Biso   1.000  C
  C64      1.0000 0.19640  0.56800  0.46550  Biso   1.000  C
  C65      1.0000 0.28583  0.49063  0.38363  Biso   1.000  C
  C66      1.0000 0.57789  0.58609  0.22309  Biso   1.000  C
  C67      1.0000 0.54600  0.51520  0.24580  Biso   1.000  C
  C68      1.0000 0.49294  0.49854  0.31414  Biso   1.000  C
  C69      1.0000 0.46680  0.43100  0.33870  Biso   1.000  C
  C70      1.0000 0.51491  0.17251  0.11261  Biso   1.000  C
  C71      1.0000 0.45966  0.13006  0.15196  Biso   1.000  C
  C72      1.0000 0.45569  0.09569  0.22849  Biso   1.000  C
  C73      1.0000 0.50592  0.10742  0.26322  Biso   1.000  C
  C74      1.0000 0.55826  0.15056  0.22036  Biso   1.000  C
  C75      1.0000 0.55842  0.35292  0.15632  Biso   1.000  C
  C76      1.0000 0.54077  0.39957  0.21507  Biso   1.000  C
  C77      1.0000 0.56800  0.46550  0.19640  Biso   1.000  C
  C78      1.0000 0.49063  0.38363  0.28583  Biso   1.000  C
  C79      1.0000 0.72309  0.08609  0.07789  Biso   1.000  C
  C80      1.0000 0.74580  0.01520  0.04600  Biso   1.000  C
  C81      1.0000 0.81414  0.99854  0.99294  Biso   1.000  C
  C82      1.0000 0.83870  0.93100  0.96680  Biso   1.000  C
  C83      1.0000 0.61261  0.67251  0.01491  Biso   1.000  C
  C84      1.0000 0.65196  0.63006  0.95966  Biso   1.000  C
  C85      1.0000 0.72849  0.59569  0.95569  Biso   1.000  C
  C86      1.0000 0.76322  0.60742  0.00592  Biso   1.000  C
  C87      1.0000 0.72036  0.65056  0.05826  Biso   1.000  C
  C88      1.0000 0.65632  0.85292  0.05842  Biso   1.000  C
  C89      1.0000 0.71507  0.89957  0.04077  Biso   1.000  C
  C90      1.0000 0.69640  0.96550  0.06800  Biso   1.000  C
  C91      1.0000 0.78583  0.88363  0.99063  Biso   1.000  C
  C92      1.0000 0.07789  0.72309  0.08609  Biso   1.000  C
  C93      1.0000 0.04600  0.74580  0.01520  Biso   1.000  C
  C94      1.0000 0.99294  0.81414  0.99854  Biso   1.000  C
  C95      1.0000 0.96680  0.83870  0.93100  Biso   1.000  C
  C96      1.0000 0.01491  0.61261  0.67251  Biso   1.000  C
  C97      1.0000 0.95966  0.65196  0.63006  Biso   1.000  C
  C98      1.0000 0.95569  0.72849  0.59569  Biso   1.000  C
  C99      1.0000 0.00592  0.76322  0.60742  Biso   1.000  C
  C100     1.0000 0.05826  0.72036  0.65056  Biso   1.000  C
  C101     1.0000 0.05842  0.65632  0.85292  Biso   1.000  C
  C102     1.0000 0.04077  0.71507  0.89957  Biso   1.000  C
  C103     1.0000 0.06800  0.69640  0.96550  Biso   1.000  C
  C104     1.0000 0.99063  0.78583  0.88363  Biso   1.000  C
  C105     1.0000 0.08609  0.07789  0.72309  Biso   1.000  C
  C106     1.0000 0.01520  0.04600  0.74580  Biso   1.000  C
  C107     1.0000 0.99854  0.99294  0.81414  Biso   1.000  C
  C108     1.0000 0.93100  0.96680  0.83870  Biso   1.000  C
  C109     1.0000 0.67251  0.01491  0.61261  Biso   1.000  C
  C110     1.0000 0.63006  0.95966  0.65196  Biso   1.000  C
  C111     1.0000 0.59569  0.95569  0.72849  Biso   1.000  C
  C112     1.0000 0.60742  0.00592  0.76322  Biso   1.000  C
  C113     1.0000 0.65056  0.05826  0.72036  Biso   1.000  C
  C114     1.0000 0.85292  0.05842  0.65632  Biso   1.000  C
  C115     1.0000 0.89957  0.04077  0.71507  Biso   1.000  C
  C116     1.0000 0.96550  0.06800  0.69640  Biso   1.000  C
  C117     1.0000 0.88363  0.99063  0.78583  Biso   1.000  C
  C118     1.0000 0.41391  0.77691  0.42211  Biso   1.000  C
  C119     1.0000 0.48480  0.75420  0.45400  Biso   1.000  C
  C120     1.0000 0.50146  0.68586  0.50706  Biso   1.000  C
  C121     1.0000 0.56900  0.66130  0.53320  Biso   1.000  C
  C122     1.0000 0.82749  0.88739  0.48509  Biso   1.000  C
  C123     1.0000 0.86994  0.84804  0.54034  Biso   1.000  C
  C124     1.0000 0.90431  0.77151  0.54431  Biso   1.000  C
  C125     1.0000 0.89258  0.73678  0.49408  Biso   1.000  C
  C126     1.0000 0.84944  0.77964  0.44174  Biso   1.000  C
  C127     1.0000 0.64708  0.84368  0.44158  Biso   1.000  C
  C128     1.0000 0.60043  0.78493  0.45923  Biso   1.000  C
  C129     1.0000 0.53450  0.80360  0.43200  Biso   1.000  C
  C130     1.0000 0.61637  0.71417  0.50937  Biso   1.000  C
  C131     1.0000 0.77691  0.42211  0.41391  Biso   1.000  C
  C132     1.0000 0.75420  0.45400  0.48480  Biso   1.000  C
  C133     1.0000 0.68586  0.50706  0.50146  Biso   1.000  C
  C134     1.0000 0.66130  0.53320  0.56900  Biso   1.000  C
  C135     1.0000 0.88739  0.48509  0.82749  Biso   1.000  C
  C136     1.0000 0.84804  0.54034  0.86994  Biso   1.000  C
  C137     1.0000 0.77151  0.54431  0.90431  Biso   1.000  C
  C138     1.0000 0.73678  0.49408  0.89258  Biso   1.000  C
  C139     1.0000 0.77964  0.44174  0.84944  Biso   1.000  C
  C140     1.0000 0.84368  0.44158  0.64708  Biso   1.000  C
  C141     1.0000 0.78493  0.45923  0.60043  Biso   1.000  C
  C142     1.0000 0.80360  0.43200  0.53450  Biso   1.000  C
  C143     1.0000 0.71417  0.50937  0.61637  Biso   1.000  C
  C144     1.0000 0.42211  0.41391  0.77691  Biso   1.000  C
  C145     1.0000 0.45400  0.48480  0.75420  Biso   1.000  C
  C146     1.0000 0.50706  0.50146  0.68586  Biso   1.000  C
  C147     1.0000 0.53320  0.56900  0.66130  Biso   1.000  C
  C148     1.0000 0.48509  0.82749  0.88739  Biso   1.000  C
  C149     1.0000 0.54034  0.86994  0.84804  Biso   1.000  C
  C150     1.0000 0.54431  0.90431  0.77151  Biso   1.000  C
  C151     1.0000 0.49408  0.89258  0.73678  Biso   1.000  C
  C152     1.0000 0.44174  0.84944  0.77964  Biso   1.000  C
  C153     1.0000 0.44158  0.64708  0.84368  Biso   1.000  C
  C154     1.0000 0.45923  0.60043  0.78493  Biso   1.000  C
  C155     1.0000 0.43200  0.53450  0.80360  Biso   1.000  C
  C156     1.0000 0.50937  0.61637  0.71417  Biso   1.000  C
  C157     1.0000 0.08653  0.08653  0.08653  Biso   1.000  C
  C158     1.0000 0.41347  0.41347  0.41347  Biso   1.000  C
  C159     1.0000 0.91347  0.91347  0.91347  Biso   1.000  C
  C160     1.0000 0.58653  0.58653  0.58653  Biso   1.000  C
  N1       1.0000 0.35371  0.31771  0.93741  Biso   1.000  N
  N2       1.0000 0.93741  0.35371  0.31771  Biso   1.000  N
  N3       1.0000 0.31771  0.93741  0.35371  Biso   1.000  N
  N4       1.0000 0.18229  0.14629  0.56259  Biso   1.000  N
  N5       1.0000 0.14629  0.56259  0.18229  Biso   1.000  N
  N6       1.0000 0.56259  0.18229  0.14629  Biso   1.000  N
  N7       1.0000 0.64629  0.68229  0.06259  Biso   1.000  N
  N8       1.0000 0.06259  0.64629  0.68229  Biso   1.000  N
  N9       1.0000 0.68229  0.06259  0.64629  Biso   1.000  N
  N10      1.0000 0.81771  0.85371  0.43741  Biso   1.000  N
  N11      1.0000 0.85371  0.43741  0.81771  Biso   1.000  N
  N12      1.0000 0.43741  0.81771  0.85371  Biso   1.000  N
  Cl1      1.0000 0.38891  0.01573  0.86636  Biso   1.000  Cl
  Cl2      1.0000 0.12773  0.93766  0.03359  Biso   1.000  Cl
  Cl3      1.0000 0.19170  0.20005  0.04035  Biso   1.000  Cl
  Cl4      1.0000 0.86636  0.38891  0.01573  Biso   1.000  Cl
  Cl5      1.0000 0.03359  0.12773  0.93766  Biso   1.000  Cl
  Cl6      1.0000 0.04035  0.19170  0.20005  Biso   1.000  Cl
  Cl7      1.0000 0.01573  0.86636  0.38891  Biso   1.000  Cl
  Cl8      1.0000 0.93766  0.03359  0.12773  Biso   1.000  Cl
  Cl9      1.0000 0.20005  0.04035  0.19170  Biso   1.000  Cl
  Cl10     1.0000 0.48427  0.11109  0.63364  Biso   1.000  Cl
  Cl11     1.0000 0.56234  0.37227  0.46641  Biso   1.000  Cl
  Cl12     1.0000 0.29995  0.30830  0.45965  Biso   1.000  Cl
  Cl13     1.0000 0.11109  0.63364  0.48427  Biso   1.000  Cl
  Cl14     1.0000 0.37227  0.46641  0.56234  Biso   1.000  Cl
  Cl15     1.0000 0.30830  0.45965  0.29995  Biso   1.000  Cl
  Cl16     1.0000 0.63364  0.48427  0.11109  Biso   1.000  Cl
  Cl17     1.0000 0.46641  0.56234  0.37227  Biso   1.000  Cl
  Cl18     1.0000 0.45965  0.29995  0.30830  Biso   1.000  Cl
  Cl19     1.0000 0.61109  0.98427  0.13364  Biso   1.000  Cl
  Cl20     1.0000 0.87227  0.06234  0.96641  Biso   1.000  Cl
  Cl21     1.0000 0.80830  0.79995  0.95965  Biso   1.000  Cl
  Cl22     1.0000 0.13364  0.61109  0.98427  Biso   1.000  Cl
  Cl23     1.0000 0.96641  0.87227  0.06234  Biso   1.000  Cl
  Cl24     1.0000 0.95965  0.80830  0.79995  Biso   1.000  Cl
  Cl25     1.0000 0.98427  0.13364  0.61109  Biso   1.000  Cl
  Cl26     1.0000 0.06234  0.96641  0.87227  Biso   1.000  Cl
  Cl27     1.0000 0.79995  0.95965  0.80830  Biso   1.000  Cl
  Cl28     1.0000 0.51573  0.88891  0.36636  Biso   1.000  Cl
  Cl29     1.0000 0.43766  0.62773  0.53359  Biso   1.000  Cl
  Cl30     1.0000 0.70005  0.69170  0.54035  Biso   1.000  Cl
  Cl31     1.0000 0.88891  0.36636  0.51573  Biso   1.000  Cl
  Cl32     1.0000 0.62773  0.53359  0.43766  Biso   1.000  Cl
  Cl33     1.0000 0.69170  0.54035  0.70005  Biso   1.000  Cl
  Cl34     1.0000 0.36636  0.51573  0.88891  Biso   1.000  Cl
  Cl35     1.0000 0.53359  0.43766  0.62773  Biso   1.000  Cl
  Cl36     1.0000 0.54035  0.70005  0.69170  Biso   1.000  Cl
  O1       1.0000 0.34747  0.19597  0.88437  Biso   1.000  O
  O2       1.0000 0.30639  0.85349  0.96346  Biso   1.000  O
  O3       1.0000 0.26648  0.92068  0.85818  Biso   1.000  O
  O4       1.0000 0.45297  0.22987  0.75607  Biso   1.000  O
  O5       1.0000 0.38479  0.12909  0.98839  Biso   1.000  O
  O6       1.0000 0.88437  0.34747  0.19597  Biso   1.000  O
  O7       1.0000 0.96346  0.30639  0.85349  Biso   1.000  O
  O8       1.0000 0.85818  0.26648  0.92068  Biso   1.000  O
  O9       1.0000 0.75607  0.45297  0.22987  Biso   1.000  O
  O10      1.0000 0.98839  0.38479  0.12909  Biso   1.000  O
  O11      1.0000 0.19597  0.88437  0.34747  Biso   1.000  O
  O12      1.0000 0.85349  0.96346  0.30639  Biso   1.000  O
  O13      1.0000 0.92068  0.85818  0.26648  Biso   1.000  O
  O14      1.0000 0.22987  0.75607  0.45297  Biso   1.000  O
  O15      1.0000 0.12909  0.98839  0.38479  Biso   1.000  O
  O16      1.0000 0.30403  0.15253  0.61563  Biso   1.000  O
  O17      1.0000 0.64651  0.19361  0.53654  Biso   1.000  O
  O18      1.0000 0.57932  0.23352  0.64182  Biso   1.000  O
  O19      1.0000 0.27013  0.04703  0.74393  Biso   1.000  O
  O20      1.0000 0.37091  0.11521  0.51161  Biso   1.000  O
  O21      1.0000 0.15253  0.61563  0.30403  Biso   1.000  O
  O22      1.0000 0.19361  0.53654  0.64651  Biso   1.000  O
  O23      1.0000 0.23352  0.64182  0.57932  Biso   1.000  O
  O24      1.0000 0.04703  0.74393  0.27013  Biso   1.000  O
  O25      1.0000 0.11521  0.51161  0.37091  Biso   1.000  O
  O26      1.0000 0.61563  0.30403  0.15253  Biso   1.000  O
  O27      1.0000 0.53654  0.64651  0.19361  Biso   1.000  O
  O28      1.0000 0.64182  0.57932  0.23352  Biso   1.000  O
  O29      1.0000 0.74393  0.27013  0.04703  Biso   1.000  O
  O30      1.0000 0.51161  0.37091  0.11521  Biso   1.000  O
  O31      1.0000 0.65253  0.80403  0.11563  Biso   1.000  O
  O32      1.0000 0.69361  0.14651  0.03654  Biso   1.000  O
  O33      1.0000 0.73352  0.07932  0.14182  Biso   1.000  O
  O34      1.0000 0.54703  0.77013  0.24393  Biso   1.000  O
  O35      1.0000 0.61521  0.87091  0.01161  Biso   1.000  O
  O36      1.0000 0.11563  0.65253  0.80403  Biso   1.000  O
  O37      1.0000 0.03654  0.69361  0.14651  Biso   1.000  O
  O38      1.0000 0.14182  0.73352  0.07932  Biso   1.000  O
  O39      1.0000 0.24393  0.54703  0.77013  Biso   1.000  O
  O40      1.0000 0.01161  0.61521  0.87091  Biso   1.000  O
  O41      1.0000 0.80403  0.11563  0.65253  Biso   1.000  O
  O42      1.0000 0.14651  0.03654  0.69361  Biso   1.000  O
  O43      1.0000 0.07932  0.14182  0.73352  Biso   1.000  O
  O44      1.0000 0.77013  0.24393  0.54703  Biso   1.000  O
  O45      1.0000 0.87091  0.01161  0.61521  Biso   1.000  O
  O46      1.0000 0.69597  0.84747  0.38437  Biso   1.000  O
  O47      1.0000 0.35349  0.80639  0.46346  Biso   1.000  O
  O48      1.0000 0.42068  0.76648  0.35818  Biso   1.000  O
  O49      1.0000 0.72987  0.95297  0.25607  Biso   1.000  O
  O50      1.0000 0.62909  0.88479  0.48839  Biso   1.000  O
  O51      1.0000 0.84747  0.38437  0.69597  Biso   1.000  O
  O52      1.0000 0.80639  0.46346  0.35349  Biso   1.000  O
  O53      1.0000 0.76648  0.35818  0.42068  Biso   1.000  O
  O54      1.0000 0.95297  0.25607  0.72987  Biso   1.000  O
  O55      1.0000 0.88479  0.48839  0.62909  Biso   1.000  O
  O56      1.0000 0.38437  0.69597  0.84747  Biso   1.000  O
  O57      1.0000 0.46346  0.35349  0.80639  Biso   1.000  O
  O58      1.0000 0.35818  0.42068  0.76648  Biso   1.000  O
  O59      1.0000 0.25607  0.72987  0.95297  Biso   1.000  O
  O60      1.0000 0.48839  0.62909  0.88479  Biso   1.000  O
