data_image0
_cell_length_a       7.8538
_cell_length_b       11.0219
_cell_length_c       11.6693
_cell_angle_alpha    108.674
_cell_angle_beta     105.812
_cell_angle_gamma    104.108

_symmetry_space_group_name_H-M    P 1
_symmetry_int_tables_number       1

loop_
  _symmetry_equiv_pos_as_xyz
  'x, y, z'

loop_
  _atom_site_label
  _atom_site_occupancy
  _atom_site_fract_x
  _atom_site_fract_y
  _atom_site_fract_z
  _atom_site_thermal_displace_type
  _atom_site_B_iso_or_equiv
  _atom_site_type_symbol
  Pr1      1.0000 0.72538  0.97892  0.93458  Biso   1.000  Pr
  Pr2      1.0000 0.27462  0.02108  0.06542  Biso   1.000  Pr
  H1       1.0000 0.76920  0.59480  0.94860  Biso   1.000  H
  H2       1.0000 0.73780  0.69730  0.06210  Biso   1.000  H
  H3       1.0000 0.01210  0.57720  0.11760  Biso   1.000  H
  H4       1.0000 0.93340  0.65410  0.21710  Biso   1.000  H
  H5       1.0000 0.15430  0.18270  0.46420  Biso   1.000  H
  H6       1.0000 0.93570  0.15450  0.41750  Biso   1.000  H
  H7       1.0000 0.89670  0.35320  0.16610  Biso   1.000  H
  H8       1.0000 0.83220  0.44350  0.26790  Biso   1.000  H
  H9       1.0000 0.87300  0.91870  0.36980  Biso   1.000  H
  H10      1.0000 0.09160  0.94800  0.41860  Biso   1.000  H
  H11      1.0000 0.71610  0.39690  0.00080  Biso   1.000  H
  H12      1.0000 0.63050  0.47460  0.09380  Biso   1.000  H
  H13      1.0000 0.48400  0.03400  0.73000  Biso   1.000  H
  H14      1.0000 0.36900  0.95300  0.77900  Biso   1.000  H
  H15      1.0000 0.23080  0.40520  0.05140  Biso   1.000  H
  H16      1.0000 0.26220  0.30270  0.93790  Biso   1.000  H
  H17      1.0000 0.98790  0.42280  0.88240  Biso   1.000  H
  H18      1.0000 0.06660  0.34590  0.78290  Biso   1.000  H
  H19      1.0000 0.84570  0.81730  0.53580  Biso   1.000  H
  H20      1.0000 0.06430  0.84550  0.58250  Biso   1.000  H
  H21      1.0000 0.10330  0.64680  0.83390  Biso   1.000  H
  H22      1.0000 0.16780  0.55650  0.73210  Biso   1.000  H
  H23      1.0000 0.12700  0.08130  0.63020  Biso   1.000  H
  H24      1.0000 0.90840  0.05200  0.58140  Biso   1.000  H
  H25      1.0000 0.28390  0.60310  0.99920  Biso   1.000  H
  H26      1.0000 0.36950  0.52540  0.90620  Biso   1.000  H
  H27      1.0000 0.51600  0.96600  0.27000  Biso   1.000  H
  H28      1.0000 0.63100  0.04700  0.22100  Biso   1.000  H
  C1       1.0000 0.01800  0.08110  0.26560  Biso   1.000  C
  C2       1.0000 0.83180  0.66340  0.03830  Biso   1.000  C
  C3       1.0000 0.89960  0.59380  0.12650  Biso   1.000  C
  C4       1.0000 0.02990  0.11490  0.40380  Biso   1.000  C
  C5       1.0000 0.79300  0.38250  0.17670  Biso   1.000  C
  C6       1.0000 0.98560  0.78140  0.04410  Biso   1.000  C
  C7       1.0000 0.99630  0.98660  0.43200  Biso   1.000  C
  C8       1.0000 0.74470  0.45730  0.09050  Biso   1.000  C
  C9       1.0000 0.61900  0.25900  0.13750  Biso   1.000  C
  C10      1.0000 0.98200  0.91890  0.73440  Biso   1.000  C
  C11      1.0000 0.16820  0.33660  0.96170  Biso   1.000  C
  C12      1.0000 0.10040  0.40620  0.87350  Biso   1.000  C
  C13      1.0000 0.97010  0.88510  0.59620  Biso   1.000  C
  C14      1.0000 0.20700  0.61750  0.82330  Biso   1.000  C
  C15      1.0000 0.01440  0.21860  0.95590  Biso   1.000  C
  C16      1.0000 0.00370  0.01340  0.56800  Biso   1.000  C
  C17      1.0000 0.25530  0.54270  0.90950  Biso   1.000  C
  C18      1.0000 0.38100  0.74100  0.86250  Biso   1.000  C
  O1       1.0000 0.93180  0.85070  0.98170  Biso   1.000  O
  O2       1.0000 0.85320  0.03990  0.17650  Biso   1.000  O
  O3       1.0000 0.45950  0.97650  0.75800  Biso   1.000  O
  O4       1.0000 0.58990  0.14400  0.04780  Biso   1.000  O
  O5       1.0000 0.16540  0.08950  0.24310  Biso   1.000  O
  O6       1.0000 0.50010  0.27160  0.18880  Biso   1.000  O
  O7       1.0000 0.15610  0.80850  0.10440  Biso   1.000  O
  O8       1.0000 0.06820  0.14930  0.01830  Biso   1.000  O
  O9       1.0000 0.14680  0.96010  0.82350  Biso   1.000  O
  O10      1.0000 0.54050  0.02350  0.24200  Biso   1.000  O
  O11      1.0000 0.41010  0.85600  0.95220  Biso   1.000  O
  O12      1.0000 0.83460  0.91050  0.75690  Biso   1.000  O
  O13      1.0000 0.49990  0.72840  0.81120  Biso   1.000  O
  O14      1.0000 0.84390  0.19150  0.89560  Biso   1.000  O
