data_image0
_cell_length_a       22.219
_cell_length_b       5.5243
_cell_length_c       18.4719
_cell_angle_alpha    90
_cell_angle_beta     115.962
_cell_angle_gamma    90

_symmetry_space_group_name_H-M    "P 1"
_symmetry_int_tables_number       1

loop_
  _symmetry_equiv_pos_as_xyz
  'x, y, z'

loop_
  _atom_site_label
  _atom_site_occupancy
  _atom_site_fract_x
  _atom_site_fract_y
  _atom_site_fract_z
  _atom_site_thermal_displace_type
  _atom_site_B_iso_or_equiv
  _atom_site_type_symbol
  C1       1.0000 0.64490  0.60730  0.33038  Biso   1.000  C
  H1       1.0000 0.65460  0.73720  0.30520  Biso   1.000  H
  O1       1.0000 0.49831  0.81802  0.16494  Biso   1.000  O
  O2       1.0000 0.56339  0.09930  0.15187  Biso   1.000  O
  C2       1.0000 0.61380  0.22050  0.39869  Biso   1.000  C
  H2       1.0000 0.60340  0.08780  0.42210  Biso   1.000  H
  N1       1.0000 0.57894  0.25422  0.31851  Biso   1.000  N
  C3       1.0000 0.53356  0.90350  0.13172  Biso   1.000  C
  C4       1.0000 0.68058  0.57560  0.41339  Biso   1.000  C
  C5       1.0000 0.66403  0.37450  0.44723  Biso   1.000  C
  H3       1.0000 0.68690  0.34500  0.50220  Biso   1.000  H
  C6       1.0000 0.59504  0.44490  0.28554  Biso   1.000  C
  H4       1.0000 0.57180  0.46890  0.23030  Biso   1.000  H
  C7       1.0000 0.49965  0.56700  0.03358  Biso   1.000  C
  C8       1.0000 0.53677  0.76270  0.06509  Biso   1.000  C
  C9       1.0000 0.73244  0.75180  0.45995  Biso   1.000  C
  H5       1.0000 0.56560  0.82200  0.04400  Biso   1.000  H
  H6       1.0000 0.74040  0.87500  0.43080  Biso   1.000  H
  H7       1.0000 0.47030  0.51200  0.05540  Biso   1.000  H
  C10      1.0000 0.14490  0.10730  0.33038  Biso   1.000  C
  H8       1.0000 0.15460  0.23720  0.30520  Biso   1.000  H
  O3       1.0000 0.99831  0.31802  0.16494  Biso   1.000  O
  O4       1.0000 0.06339  0.59930  0.15187  Biso   1.000  O
  C11      1.0000 0.11380  0.72050  0.39869  Biso   1.000  C
  H9       1.0000 0.10340  0.58780  0.42210  Biso   1.000  H
  N2       1.0000 0.07894  0.75422  0.31851  Biso   1.000  N
  C12      1.0000 0.03356  0.40350  0.13172  Biso   1.000  C
  C13      1.0000 0.18058  0.07560  0.41339  Biso   1.000  C
  C14      1.0000 0.16403  0.87450  0.44723  Biso   1.000  C
  H10      1.0000 0.18690  0.84500  0.50220  Biso   1.000  H
  C15      1.0000 0.09504  0.94490  0.28554  Biso   1.000  C
  H11      1.0000 0.07180  0.96890  0.23030  Biso   1.000  H
  C16      1.0000 0.99965  0.06700  0.03358  Biso   1.000  C
  C17      1.0000 0.03677  0.26270  0.06509  Biso   1.000  C
  C18      1.0000 0.23244  0.25180  0.45995  Biso   1.000  C
  H12      1.0000 0.06560  0.32200  0.04400  Biso   1.000  H
  H13      1.0000 0.24040  0.37500  0.43080  Biso   1.000  H
  H14      1.0000 0.97030  0.01200  0.05540  Biso   1.000  H
  C19      1.0000 0.35510  0.60730  0.16962  Biso   1.000  C
  H15      1.0000 0.34540  0.73720  0.19480  Biso   1.000  H
  O5       1.0000 0.50169  0.81802  0.33506  Biso   1.000  O
  O6       1.0000 0.43661  0.09930  0.34813  Biso   1.000  O
  C20      1.0000 0.38620  0.22050  0.10131  Biso   1.000  C
  H16      1.0000 0.39660  0.08780  0.07790  Biso   1.000  H
  N3       1.0000 0.42106  0.25422  0.18149  Biso   1.000  N
  C21      1.0000 0.46644  0.90350  0.36828  Biso   1.000  C
  C22      1.0000 0.31942  0.57560  0.08661  Biso   1.000  C
  C23      1.0000 0.33597  0.37450  0.05277  Biso   1.000  C
  H17      1.0000 0.31310  0.34500  0.99780  Biso   1.000  H
  C24      1.0000 0.40496  0.44490  0.21446  Biso   1.000  C
  H18      1.0000 0.42820  0.46890  0.26970  Biso   1.000  H
  C25      1.0000 0.50035  0.56700  0.46642  Biso   1.000  C
  C26      1.0000 0.46323  0.76270  0.43491  Biso   1.000  C
  C27      1.0000 0.26756  0.75180  0.04005  Biso   1.000  C
  H19      1.0000 0.43440  0.82200  0.45600  Biso   1.000  H
  H20      1.0000 0.25960  0.87500  0.06920  Biso   1.000  H
  H21      1.0000 0.52970  0.51200  0.44460  Biso   1.000  H
  C28      1.0000 0.85510  0.10730  0.16962  Biso   1.000  C
  H22      1.0000 0.84540  0.23720  0.19480  Biso   1.000  H
  O7       1.0000 0.00169  0.31802  0.33506  Biso   1.000  O
  O8       1.0000 0.93661  0.59930  0.34813  Biso   1.000  O
  C29      1.0000 0.88620  0.72050  0.10131  Biso   1.000  C
  H23      1.0000 0.89660  0.58780  0.07790  Biso   1.000  H
  N4       1.0000 0.92106  0.75422  0.18149  Biso   1.000  N
  C30      1.0000 0.96644  0.40350  0.36828  Biso   1.000  C
  C31      1.0000 0.81942  0.07560  0.08661  Biso   1.000  C
  C32      1.0000 0.83597  0.87450  0.05277  Biso   1.000  C
  H24      1.0000 0.81310  0.84500  0.99780  Biso   1.000  H
  C33      1.0000 0.90496  0.94490  0.21446  Biso   1.000  C
  H25      1.0000 0.92820  0.96890  0.26970  Biso   1.000  H
  C34      1.0000 0.00035  0.06700  0.46642  Biso   1.000  C
  C35      1.0000 0.96323  0.26270  0.43491  Biso   1.000  C
  C36      1.0000 0.76756  0.25180  0.04005  Biso   1.000  C
  H26      1.0000 0.93440  0.32200  0.45600  Biso   1.000  H
  H27      1.0000 0.75960  0.37500  0.06920  Biso   1.000  H
  H28      1.0000 0.02970  0.01200  0.44460  Biso   1.000  H
  C37      1.0000 0.35510  0.39270  0.66962  Biso   1.000  C
  H29      1.0000 0.34540  0.26280  0.69480  Biso   1.000  H
  O9       1.0000 0.50169  0.18198  0.83506  Biso   1.000  O
  O10      1.0000 0.43661  0.90070  0.84813  Biso   1.000  O
  C38      1.0000 0.38620  0.77950  0.60131  Biso   1.000  C
  H30      1.0000 0.39660  0.91220  0.57790  Biso   1.000  H
  N5       1.0000 0.42106  0.74578  0.68149  Biso   1.000  N
  C39      1.0000 0.46644  0.09650  0.86828  Biso   1.000  C
  C40      1.0000 0.31942  0.42440  0.58661  Biso   1.000  C
  C41      1.0000 0.33597  0.62550  0.55277  Biso   1.000  C
  H31      1.0000 0.31310  0.65500  0.49780  Biso   1.000  H
  C42      1.0000 0.40496  0.55510  0.71446  Biso   1.000  C
  H32      1.0000 0.42820  0.53110  0.76970  Biso   1.000  H
  C43      1.0000 0.50035  0.43300  0.96642  Biso   1.000  C
  C44      1.0000 0.46323  0.23730  0.93491  Biso   1.000  C
  C45      1.0000 0.26756  0.24820  0.54005  Biso   1.000  C
  H33      1.0000 0.43440  0.17800  0.95600  Biso   1.000  H
  H34      1.0000 0.25960  0.12500  0.56920  Biso   1.000  H
  H35      1.0000 0.52970  0.48800  0.94460  Biso   1.000  H
  C46      1.0000 0.85510  0.89270  0.66962  Biso   1.000  C
  H36      1.0000 0.84540  0.76280  0.69480  Biso   1.000  H
  O11      1.0000 0.00169  0.68198  0.83506  Biso   1.000  O
  O12      1.0000 0.93661  0.40070  0.84813  Biso   1.000  O
  C47      1.0000 0.88620  0.27950  0.60131  Biso   1.000  C
  H37      1.0000 0.89660  0.41220  0.57790  Biso   1.000  H
  N6       1.0000 0.92106  0.24578  0.68149  Biso   1.000  N
  C48      1.0000 0.96644  0.59650  0.86828  Biso   1.000  C
  C49      1.0000 0.81942  0.92440  0.58661  Biso   1.000  C
  C50      1.0000 0.83597  0.12550  0.55277  Biso   1.000  C
  H38      1.0000 0.81310  0.15500  0.49780  Biso   1.000  H
  C51      1.0000 0.90496  0.05510  0.71446  Biso   1.000  C
  H39      1.0000 0.92820  0.03110  0.76970  Biso   1.000  H
  C52      1.0000 0.00035  0.93300  0.96642  Biso   1.000  C
  C53      1.0000 0.96323  0.73730  0.93491  Biso   1.000  C
  C54      1.0000 0.76756  0.74820  0.54005  Biso   1.000  C
  H40      1.0000 0.93440  0.67800  0.95600  Biso   1.000  H
  H41      1.0000 0.75960  0.62500  0.56920  Biso   1.000  H
  H42      1.0000 0.02970  0.98800  0.94460  Biso   1.000  H
  C55      1.0000 0.64490  0.39270  0.83038  Biso   1.000  C
  H43      1.0000 0.65460  0.26280  0.80520  Biso   1.000  H
  O13      1.0000 0.49831  0.18198  0.66494  Biso   1.000  O
  O14      1.0000 0.56339  0.90070  0.65187  Biso   1.000  O
  C56      1.0000 0.61380  0.77950  0.89869  Biso   1.000  C
  H44      1.0000 0.60340  0.91220  0.92210  Biso   1.000  H
  N7       1.0000 0.57894  0.74578  0.81851  Biso   1.000  N
  C57      1.0000 0.53356  0.09650  0.63172  Biso   1.000  C
  C58      1.0000 0.68058  0.42440  0.91339  Biso   1.000  C
  C59      1.0000 0.66403  0.62550  0.94723  Biso   1.000  C
  H45      1.0000 0.68690  0.65500  0.00220  Biso   1.000  H
  C60      1.0000 0.59504  0.55510  0.78554  Biso   1.000  C
  H46      1.0000 0.57180  0.53110  0.73030  Biso   1.000  H
  C61      1.0000 0.49965  0.43300  0.53358  Biso   1.000  C
  C62      1.0000 0.53677  0.23730  0.56509  Biso   1.000  C
  C63      1.0000 0.73244  0.24820  0.95995  Biso   1.000  C
  H47      1.0000 0.56560  0.17800  0.54400  Biso   1.000  H
  H48      1.0000 0.74040  0.12500  0.93080  Biso   1.000  H
  H49      1.0000 0.47030  0.48800  0.55540  Biso   1.000  H
  C64      1.0000 0.14490  0.89270  0.83038  Biso   1.000  C
  H50      1.0000 0.15460  0.76280  0.80520  Biso   1.000  H
  O15      1.0000 0.99831  0.68198  0.66494  Biso   1.000  O
  O16      1.0000 0.06339  0.40070  0.65187  Biso   1.000  O
  C65      1.0000 0.11380  0.27950  0.89869  Biso   1.000  C
  H51      1.0000 0.10340  0.41220  0.92210  Biso   1.000  H
  N8       1.0000 0.07894  0.24578  0.81851  Biso   1.000  N
  C66      1.0000 0.03356  0.59650  0.63172  Biso   1.000  C
  C67      1.0000 0.18058  0.92440  0.91339  Biso   1.000  C
  C68      1.0000 0.16403  0.12550  0.94723  Biso   1.000  C
  H52      1.0000 0.18690  0.15500  0.00220  Biso   1.000  H
  C69      1.0000 0.09504  0.05510  0.78554  Biso   1.000  C
  H53      1.0000 0.07180  0.03110  0.73030  Biso   1.000  H
  C70      1.0000 0.99965  0.93300  0.53358  Biso   1.000  C
  C71      1.0000 0.03677  0.73730  0.56509  Biso   1.000  C
  C72      1.0000 0.23244  0.74820  0.95995  Biso   1.000  C
  H54      1.0000 0.06560  0.67800  0.54400  Biso   1.000  H
  H55      1.0000 0.24040  0.62500  0.93080  Biso   1.000  H
  H56      1.0000 0.97030  0.98800  0.55540  Biso   1.000  H
  Zn1      1.0000 0.50000  0.03681  0.25000  Biso   1.000  Zn
  Zn2      1.0000 0.00000  0.53681  0.25000  Biso   1.000  Zn
  Zn3      1.0000 0.50000  0.96319  0.75000  Biso   1.000  Zn
  Zn4      1.0000 0.00000  0.46319  0.75000  Biso   1.000  Zn
