data_image0
_cell_length_a       18.31
_cell_length_b       18.3527
_cell_length_c       20.2954
_cell_angle_alpha    90
_cell_angle_beta     90
_cell_angle_gamma    90

_symmetry_space_group_name_H-M    "P 1"
_symmetry_int_tables_number       1

loop_
  _symmetry_equiv_pos_as_xyz
  'x, y, z'

loop_
  _atom_site_label
  _atom_site_occupancy
  _atom_site_fract_x
  _atom_site_fract_y
  _atom_site_fract_z
  _atom_site_thermal_displace_type
  _atom_site_B_iso_or_equiv
  _atom_site_type_symbol
  Ag1      1.0000 0.15932  0.85647  0.65114  Biso   1.000  Ag
  Si1      1.0000 0.53967  0.83228  0.62889  Biso   1.000  Si
  Si2      1.0000 0.03560  0.66895  0.92963  Biso   1.000  Si
  N1       1.0000 0.28370  0.85290  0.63790  Biso   1.000  N
  N2       1.0000 0.61090  0.72800  0.42840  Biso   1.000  N
  N3       1.0000 0.12260  0.79590  0.74530  Biso   1.000  N
  N4       1.0000 0.90440  0.46210  0.86280  Biso   1.000  N
  C1       1.0000 0.32620  0.91310  0.63070  Biso   1.000  C
  H1       1.0000 0.30360  0.95960  0.62830  Biso   1.000  H
  C2       1.0000 0.40100  0.90870  0.62700  Biso   1.000  C
  H2       1.0000 0.42840  0.95230  0.62140  Biso   1.000  H
  C3       1.0000 0.43750  0.84370  0.63110  Biso   1.000  C
  C4       1.0000 0.39250  0.78220  0.63680  Biso   1.000  C
  H3       1.0000 0.41380  0.73510  0.63850  Biso   1.000  H
  C5       1.0000 0.31780  0.78930  0.64000  Biso   1.000  C
  H4       1.0000 0.28920  0.74640  0.64400  Biso   1.000  H
  C6       1.0000 0.54170  0.72920  0.44660  Biso   1.000  C
  H5       1.0000 0.50700  0.70600  0.41890  Biso   1.000  H
  C7       1.0000 0.51620  0.76270  0.50470  Biso   1.000  C
  H6       1.0000 0.46550  0.76240  0.51490  Biso   1.000  H
  C8       1.0000 0.56500  0.79580  0.54640  Biso   1.000  C
  C9       1.0000 0.63730  0.79580  0.52480  Biso   1.000  C
  H7       1.0000 0.67350  0.81950  0.55050  Biso   1.000  H
  C10      1.0000 0.65690  0.76260  0.46780  Biso   1.000  C
  H8       1.0000 0.70690  0.76420  0.45540  Biso   1.000  H
  C11      1.0000 0.57300  0.77340  0.69750  Biso   1.000  C
  H9       1.0000 0.53180  0.74930  0.72030  Biso   1.000  H
  H10      1.0000 0.60700  0.73570  0.68100  Biso   1.000  H
  C12      1.0000 0.61130  0.82530  0.74240  Biso   1.000  C
  H11      1.0000 0.57670  0.84100  0.77710  Biso   1.000  H
  H12      1.0000 0.65200  0.79930  0.76430  Biso   1.000  H
  C13      1.0000 0.63980  0.88830  0.71080  Biso   1.000  C
  H13      1.0000 0.68900  0.87700  0.69350  Biso   1.000  H
  H14      1.0000 0.64510  0.92760  0.74380  Biso   1.000  H
  C14      1.0000 0.59190  0.91560  0.65430  Biso   1.000  C
  H15      1.0000 0.62210  0.93430  0.61750  Biso   1.000  H
  H16      1.0000 0.55850  0.95460  0.66930  Biso   1.000  H
  C15      1.0000 0.06040  0.75780  0.74320  Biso   1.000  C
  H17      1.0000 0.03370  0.75690  0.70310  Biso   1.000  H
  C16      1.0000 0.03320  0.71990  0.79620  Biso   1.000  C
  H18      1.0000 0.98880  0.69350  0.79180  Biso   1.000  H
  C17      1.0000 0.06970  0.71980  0.85600  Biso   1.000  C
  C18      1.0000 0.13290  0.76120  0.85850  Biso   1.000  C
  H19      1.0000 0.16020  0.76440  0.89820  Biso   1.000  H
  C19      1.0000 0.15600  0.79770  0.80260  Biso   1.000  C
  H20      1.0000 0.19910  0.82630  0.80590  Biso   1.000  H
  C20      1.0000 0.87250  0.52680  0.86960  Biso   1.000  C
  H21      1.0000 0.82150  0.53040  0.86160  Biso   1.000  H
  C21      1.0000 0.90940  0.58840  0.88770  Biso   1.000  C
  H22      1.0000 0.88360  0.63310  0.89150  Biso   1.000  H
  C22      1.0000 0.98420  0.58680  0.90050  Biso   1.000  C
  C23      1.0000 0.01530  0.52080  0.89280  Biso   1.000  C
  H23      1.0000 0.06630  0.51570  0.90010  Biso   1.000  H
  C24      1.0000 0.97530  0.46020  0.87470  Biso   1.000  C
  H24      1.0000 0.00000  0.41490  0.87060  Biso   1.000  H
  C25      1.0000 0.96580  0.72890  0.98130  Biso   1.000  C
  H25      1.0000 0.96000  0.77830  0.96230  Biso   1.000  H
  H26      1.0000 0.91740  0.70520  0.98480  Biso   1.000  H
  C26      1.0000 0.00250  0.73100  0.04320  Biso   1.000  C
  H27      1.0000 0.96570  0.73700  0.07850  Biso   1.000  H
  H28      1.0000 0.03490  0.77420  0.04420  Biso   1.000  H
  C27      1.0000 0.04680  0.66500  0.05740  Biso   1.000  C
  H29      1.0000 0.01420  0.62280  0.06480  Biso   1.000  H
  H30      1.0000 0.07600  0.67280  0.09780  Biso   1.000  H
  C28      1.0000 0.10060  0.64860  0.99580  Biso   1.000  C
  H31      1.0000 0.11720  0.59730  0.99480  Biso   1.000  H
  H32      1.0000 0.14340  0.68160  0.99500  Biso   1.000  H
  Ag2      1.0000 0.34068  0.14353  0.15114  Biso   1.000  Ag
  Si3      1.0000 0.96033  0.16772  0.12889  Biso   1.000  Si
  Si4      1.0000 0.46440  0.33105  0.42963  Biso   1.000  Si
  N5       1.0000 0.21630  0.14710  0.13790  Biso   1.000  N
  N6       1.0000 0.88910  0.27200  0.92840  Biso   1.000  N
  N7       1.0000 0.37740  0.20410  0.24530  Biso   1.000  N
  N8       1.0000 0.59560  0.53790  0.36280  Biso   1.000  N
  C29      1.0000 0.17380  0.08690  0.13070  Biso   1.000  C
  H33      1.0000 0.19640  0.04040  0.12830  Biso   1.000  H
  C30      1.0000 0.09900  0.09130  0.12700  Biso   1.000  C
  H34      1.0000 0.07160  0.04770  0.12140  Biso   1.000  H
  C31      1.0000 0.06250  0.15630  0.13110  Biso   1.000  C
  C32      1.0000 0.10750  0.21780  0.13680  Biso   1.000  C
  H35      1.0000 0.08620  0.26490  0.13850  Biso   1.000  H
  C33      1.0000 0.18220  0.21070  0.14000  Biso   1.000  C
  H36      1.0000 0.21080  0.25360  0.14400  Biso   1.000  H
  C34      1.0000 0.95830  0.27080  0.94660  Biso   1.000  C
  H37      1.0000 0.99300  0.29400  0.91890  Biso   1.000  H
  C35      1.0000 0.98380  0.23730  0.00470  Biso   1.000  C
  H38      1.0000 0.03450  0.23760  0.01490  Biso   1.000  H
  C36      1.0000 0.93500  0.20420  0.04640  Biso   1.000  C
  C37      1.0000 0.86270  0.20420  0.02480  Biso   1.000  C
  H39      1.0000 0.82650  0.18050  0.05050  Biso   1.000  H
  C38      1.0000 0.84310  0.23740  0.96780  Biso   1.000  C
  H40      1.0000 0.79310  0.23580  0.95540  Biso   1.000  H
  C39      1.0000 0.92700  0.22660  0.19750  Biso   1.000  C
  H41      1.0000 0.96820  0.25070  0.22030  Biso   1.000  H
  H42      1.0000 0.89300  0.26430  0.18100  Biso   1.000  H
  C40      1.0000 0.88870  0.17470  0.24240  Biso   1.000  C
  H43      1.0000 0.92330  0.15900  0.27710  Biso   1.000  H
  H44      1.0000 0.84800  0.20070  0.26430  Biso   1.000  H
  C41      1.0000 0.86020  0.11170  0.21080  Biso   1.000  C
  H45      1.0000 0.81100  0.12300  0.19350  Biso   1.000  H
  H46      1.0000 0.85490  0.07240  0.24380  Biso   1.000  H
  C42      1.0000 0.90810  0.08440  0.15430  Biso   1.000  C
  H47      1.0000 0.87790  0.06570  0.11750  Biso   1.000  H
  H48      1.0000 0.94150  0.04540  0.16930  Biso   1.000  H
  C43      1.0000 0.43960  0.24220  0.24320  Biso   1.000  C
  H49      1.0000 0.46630  0.24310  0.20310  Biso   1.000  H
  C44      1.0000 0.46680  0.28010  0.29620  Biso   1.000  C
  H50      1.0000 0.51120  0.30650  0.29180  Biso   1.000  H
  C45      1.0000 0.43030  0.28020  0.35600  Biso   1.000  C
  C46      1.0000 0.36710  0.23880  0.35850  Biso   1.000  C
  H51      1.0000 0.33980  0.23560  0.39820  Biso   1.000  H
  C47      1.0000 0.34400  0.20230  0.30260  Biso   1.000  C
  H52      1.0000 0.30090  0.17370  0.30590  Biso   1.000  H
  C48      1.0000 0.62750  0.47320  0.36960  Biso   1.000  C
  H53      1.0000 0.67850  0.46960  0.36160  Biso   1.000  H
  C49      1.0000 0.59060  0.41160  0.38770  Biso   1.000  C
  H54      1.0000 0.61640  0.36690  0.39150  Biso   1.000  H
  C50      1.0000 0.51580  0.41320  0.40050  Biso   1.000  C
  C51      1.0000 0.48470  0.47920  0.39280  Biso   1.000  C
  H55      1.0000 0.43370  0.48430  0.40010  Biso   1.000  H
  C52      1.0000 0.52470  0.53980  0.37470  Biso   1.000  C
  H56      1.0000 0.50000  0.58510  0.37060  Biso   1.000  H
  C53      1.0000 0.53420  0.27110  0.48130  Biso   1.000  C
  H57      1.0000 0.54000  0.22170  0.46230  Biso   1.000  H
  H58      1.0000 0.58260  0.29480  0.48480  Biso   1.000  H
  C54      1.0000 0.49750  0.26900  0.54320  Biso   1.000  C
  H59      1.0000 0.53430  0.26300  0.57850  Biso   1.000  H
  H60      1.0000 0.46510  0.22580  0.54420  Biso   1.000  H
  C55      1.0000 0.45320  0.33500  0.55740  Biso   1.000  C
  H61      1.0000 0.48580  0.37720  0.56480  Biso   1.000  H
  H62      1.0000 0.42400  0.32720  0.59780  Biso   1.000  H
  C56      1.0000 0.39940  0.35140  0.49580  Biso   1.000  C
  H63      1.0000 0.38280  0.40270  0.49480  Biso   1.000  H
  H64      1.0000 0.35660  0.31840  0.49500  Biso   1.000  H
  Ag3      1.0000 0.84068  0.35647  0.84886  Biso   1.000  Ag
  Si5      1.0000 0.46033  0.33228  0.87111  Biso   1.000  Si
  Si6      1.0000 0.96440  0.16895  0.57037  Biso   1.000  Si
  N9       1.0000 0.71630  0.35290  0.86210  Biso   1.000  N
  N10      1.0000 0.38910  0.22800  0.07160  Biso   1.000  N
  N11      1.0000 0.87740  0.29590  0.75470  Biso   1.000  N
  N12      1.0000 0.09560  0.96210  0.63720  Biso   1.000  N
  C57      1.0000 0.67380  0.41310  0.86930  Biso   1.000  C
  H65      1.0000 0.69640  0.45960  0.87170  Biso   1.000  H
  C58      1.0000 0.59900  0.40870  0.87300  Biso   1.000  C
  H66      1.0000 0.57160  0.45230  0.87860  Biso   1.000  H
  C59      1.0000 0.56250  0.34370  0.86890  Biso   1.000  C
  C60      1.0000 0.60750  0.28220  0.86320  Biso   1.000  C
  H67      1.0000 0.58620  0.23510  0.86150  Biso   1.000  H
  C61      1.0000 0.68220  0.28930  0.86000  Biso   1.000  C
  H68      1.0000 0.71080  0.24640  0.85600  Biso   1.000  H
  C62      1.0000 0.45830  0.22920  0.05340  Biso   1.000  C
  H69      1.0000 0.49300  0.20600  0.08110  Biso   1.000  H
  C63      1.0000 0.48380  0.26270  0.99530  Biso   1.000  C
  H70      1.0000 0.53450  0.26240  0.98510  Biso   1.000  H
  C64      1.0000 0.43500  0.29580  0.95360  Biso   1.000  C
  C65      1.0000 0.36270  0.29580  0.97520  Biso   1.000  C
  H71      1.0000 0.32650  0.31950  0.94950  Biso   1.000  H
  C66      1.0000 0.34310  0.26260  0.03220  Biso   1.000  C
  H72      1.0000 0.29310  0.26420  0.04460  Biso   1.000  H
  C67      1.0000 0.42700  0.27340  0.80250  Biso   1.000  C
  H73      1.0000 0.46820  0.24930  0.77970  Biso   1.000  H
  H74      1.0000 0.39300  0.23570  0.81900  Biso   1.000  H
  C68      1.0000 0.38870  0.32530  0.75760  Biso   1.000  C
  H75      1.0000 0.42330  0.34100  0.72290  Biso   1.000  H
  H76      1.0000 0.34800  0.29930  0.73570  Biso   1.000  H
  C69      1.0000 0.36020  0.38830  0.78920  Biso   1.000  C
  H77      1.0000 0.31100  0.37700  0.80650  Biso   1.000  H
  H78      1.0000 0.35490  0.42760  0.75620  Biso   1.000  H
  C70      1.0000 0.40810  0.41560  0.84570  Biso   1.000  C
  H79      1.0000 0.37790  0.43430  0.88250  Biso   1.000  H
  H80      1.0000 0.44150  0.45460  0.83070  Biso   1.000  H
  C71      1.0000 0.93960  0.25780  0.75680  Biso   1.000  C
  H81      1.0000 0.96630  0.25690  0.79690  Biso   1.000  H
  C72      1.0000 0.96680  0.21990  0.70380  Biso   1.000  C
  H82      1.0000 0.01120  0.19350  0.70820  Biso   1.000  H
  C73      1.0000 0.93030  0.21980  0.64400  Biso   1.000  C
  C74      1.0000 0.86710  0.26120  0.64150  Biso   1.000  C
  H83      1.0000 0.83980  0.26440  0.60180  Biso   1.000  H
  C75      1.0000 0.84400  0.29770  0.69740  Biso   1.000  C
  H84      1.0000 0.80090  0.32630  0.69410  Biso   1.000  H
  C76      1.0000 0.12750  0.02680  0.63040  Biso   1.000  C
  H85      1.0000 0.17850  0.03040  0.63840  Biso   1.000  H
  C77      1.0000 0.09060  0.08840  0.61230  Biso   1.000  C
  H86      1.0000 0.11640  0.13310  0.60850  Biso   1.000  H
  C78      1.0000 0.01580  0.08680  0.59950  Biso   1.000  C
  C79      1.0000 0.98470  0.02080  0.60720  Biso   1.000  C
  H87      1.0000 0.93370  0.01570  0.59990  Biso   1.000  H
  C80      1.0000 0.02470  0.96020  0.62530  Biso   1.000  C
  H88      1.0000 0.00000  0.91490  0.62940  Biso   1.000  H
  C81      1.0000 0.03420  0.22890  0.51870  Biso   1.000  C
  H89      1.0000 0.04000  0.27830  0.53770  Biso   1.000  H
  H90      1.0000 0.08260  0.20520  0.51520  Biso   1.000  H
  C82      1.0000 0.99750  0.23100  0.45680  Biso   1.000  C
  H91      1.0000 0.03430  0.23700  0.42150  Biso   1.000  H
  H92      1.0000 0.96510  0.27420  0.45580  Biso   1.000  H
  C83      1.0000 0.95320  0.16500  0.44260  Biso   1.000  C
  H93      1.0000 0.98580  0.12280  0.43520  Biso   1.000  H
  H94      1.0000 0.92400  0.17280  0.40220  Biso   1.000  H
  C84      1.0000 0.89940  0.14860  0.50420  Biso   1.000  C
  H95      1.0000 0.88280  0.09730  0.50520  Biso   1.000  H
  H96      1.0000 0.85660  0.18160  0.50500  Biso   1.000  H
  Ag4      1.0000 0.65932  0.64353  0.34886  Biso   1.000  Ag
  Si7      1.0000 0.03967  0.66772  0.37111  Biso   1.000  Si
  Si8      1.0000 0.53560  0.83105  0.07037  Biso   1.000  Si
  N13      1.0000 0.78370  0.64710  0.36210  Biso   1.000  N
  N14      1.0000 0.11090  0.77200  0.57160  Biso   1.000  N
  N15      1.0000 0.62260  0.70410  0.25470  Biso   1.000  N
  N16      1.0000 0.40440  0.03790  0.13720  Biso   1.000  N
  C85      1.0000 0.82620  0.58690  0.36930  Biso   1.000  C
  H97      1.0000 0.80360  0.54040  0.37170  Biso   1.000  H
  C86      1.0000 0.90100  0.59130  0.37300  Biso   1.000  C
  H98      1.0000 0.92840  0.54770  0.37860  Biso   1.000  H
  C87      1.0000 0.93750  0.65630  0.36890  Biso   1.000  C
  C88      1.0000 0.89250  0.71780  0.36320  Biso   1.000  C
  H99      1.0000 0.91380  0.76490  0.36150  Biso   1.000  H
  C89      1.0000 0.81780  0.71070  0.36000  Biso   1.000  C
  H100     1.0000 0.78920  0.75360  0.35600  Biso   1.000  H
  C90      1.0000 0.04170  0.77080  0.55340  Biso   1.000  C
  H101     1.0000 0.00700  0.79400  0.58110  Biso   1.000  H
  C91      1.0000 0.01620  0.73730  0.49530  Biso   1.000  C
  H102     1.0000 0.96550  0.73760  0.48510  Biso   1.000  H
  C92      1.0000 0.06500  0.70420  0.45360  Biso   1.000  C
  C93      1.0000 0.13730  0.70420  0.47520  Biso   1.000  C
  H103     1.0000 0.17350  0.68050  0.44950  Biso   1.000  H
  C94      1.0000 0.15690  0.73740  0.53220  Biso   1.000  C
  H104     1.0000 0.20690  0.73580  0.54460  Biso   1.000  H
  C95      1.0000 0.07300  0.72660  0.30250  Biso   1.000  C
  H105     1.0000 0.03180  0.75070  0.27970  Biso   1.000  H
  H106     1.0000 0.10700  0.76430  0.31900  Biso   1.000  H
  C96      1.0000 0.11130  0.67470  0.25760  Biso   1.000  C
  H107     1.0000 0.07670  0.65900  0.22290  Biso   1.000  H
  H108     1.0000 0.15200  0.70070  0.23570  Biso   1.000  H
  C97      1.0000 0.13980  0.61170  0.28920  Biso   1.000  C
  H109     1.0000 0.18900  0.62300  0.30650  Biso   1.000  H
  H110     1.0000 0.14510  0.57240  0.25620  Biso   1.000  H
  C98      1.0000 0.09190  0.58440  0.34570  Biso   1.000  C
  H111     1.0000 0.12210  0.56570  0.38250  Biso   1.000  H
  H112     1.0000 0.05850  0.54540  0.33070  Biso   1.000  H
  C99      1.0000 0.56040  0.74220  0.25680  Biso   1.000  C
  H113     1.0000 0.53370  0.74310  0.29690  Biso   1.000  H
  C100     1.0000 0.53320  0.78010  0.20380  Biso   1.000  C
  H114     1.0000 0.48880  0.80650  0.20820  Biso   1.000  H
  C101     1.0000 0.56970  0.78020  0.14400  Biso   1.000  C
  C102     1.0000 0.63290  0.73880  0.14150  Biso   1.000  C
  H115     1.0000 0.66020  0.73560  0.10180  Biso   1.000  H
  C103     1.0000 0.65600  0.70230  0.19740  Biso   1.000  C
  H116     1.0000 0.69910  0.67370  0.19410  Biso   1.000  H
  C104     1.0000 0.37250  0.97320  0.13040  Biso   1.000  C
  H117     1.0000 0.32150  0.96960  0.13840  Biso   1.000  H
  C105     1.0000 0.40940  0.91160  0.11230  Biso   1.000  C
  H118     1.0000 0.38360  0.86690  0.10850  Biso   1.000  H
  C106     1.0000 0.48420  0.91320  0.09950  Biso   1.000  C
  C107     1.0000 0.51530  0.97920  0.10720  Biso   1.000  C
  H119     1.0000 0.56630  0.98430  0.09990  Biso   1.000  H
  C108     1.0000 0.47530  0.03980  0.12530  Biso   1.000  C
  H120     1.0000 0.50000  0.08510  0.12940  Biso   1.000  H
  C109     1.0000 0.46580  0.77110  0.01870  Biso   1.000  C
  H121     1.0000 0.46000  0.72170  0.03770  Biso   1.000  H
  H122     1.0000 0.41740  0.79480  0.01520  Biso   1.000  H
  C110     1.0000 0.50250  0.76900  0.95680  Biso   1.000  C
  H123     1.0000 0.46570  0.76300  0.92150  Biso   1.000  H
  H124     1.0000 0.53490  0.72580  0.95580  Biso   1.000  H
  C111     1.0000 0.54680  0.83500  0.94260  Biso   1.000  C
  H125     1.0000 0.51420  0.87720  0.93520  Biso   1.000  H
  H126     1.0000 0.57600  0.82720  0.90220  Biso   1.000  H
  C112     1.0000 0.60060  0.85140  0.00420  Biso   1.000  C
  H127     1.0000 0.61720  0.90270  0.00520  Biso   1.000  H
  H128     1.0000 0.64340  0.81840  0.00500  Biso   1.000  H
  Ag5      1.0000 0.33853  0.62509  0.84612  Biso   1.000  Ag
  Si9      1.0000 0.37575  0.00795  0.86529  Biso   1.000  Si
  Si10     1.0000 0.04669  0.50959  0.64992  Biso   1.000  Si
  N17      1.0000 0.34760  0.75230  0.85330  Biso   1.000  N
  N18      1.0000 0.56530  0.09660  0.73050  Biso   1.000  N
  N19      1.0000 0.23930  0.58430  0.78770  Biso   1.000  N
  N20      1.0000 0.13060  0.41830  0.44740  Biso   1.000  N
  C113     1.0000 0.32050  0.79270  0.90350  Biso   1.000  C
  H129     1.0000 0.29530  0.76800  0.93780  Biso   1.000  H
  C114     1.0000 0.32700  0.86630  0.90830  Biso   1.000  C
  H130     1.0000 0.30520  0.89110  0.94430  Biso   1.000  H
  C115     1.0000 0.36600  0.90630  0.86010  Biso   1.000  C
  C116     1.0000 0.39500  0.86330  0.80860  Biso   1.000  C
  H131     1.0000 0.42220  0.88590  0.77440  Biso   1.000  H
  C117     1.0000 0.38440  0.78900  0.80760  Biso   1.000  C
  H132     1.0000 0.40460  0.76230  0.77190  Biso   1.000  H
  C118     1.0000 0.49450  0.10070  0.71270  Biso   1.000  C
  H133     1.0000 0.48310  0.12340  0.67200  Biso   1.000  H
  C119     1.0000 0.43780  0.07400  0.75000  Biso   1.000  C
  H134     1.0000 0.38900  0.07910  0.73480  Biso   1.000  H
  C120     1.0000 0.45110  0.03990  0.80930  Biso   1.000  C
  C121     1.0000 0.52450  0.03580  0.82830  Biso   1.000  C
  H135     1.0000 0.53770  0.01300  0.86860  Biso   1.000  H
  C122     1.0000 0.57700  0.06490  0.78820  Biso   1.000  C
  H136     1.0000 0.62610  0.06220  0.80300  Biso   1.000  H
  C123     1.0000 0.28610  0.05480  0.85020  Biso   1.000  C
  H137     1.0000 0.29020  0.09100  0.81420  Biso   1.000  H
  H138     1.0000 0.24740  0.01930  0.83910  Biso   1.000  H
  C124     1.0000 0.27130  0.09120  0.91550  Biso   1.000  C
  H139     1.0000 0.26860  0.14440  0.90730  Biso   1.000  H
  H140     1.0000 0.22210  0.07560  0.93010  Biso   1.000  H
  C125     1.0000 0.31720  0.08080  0.96590  Biso   1.000  C
  H141     1.0000 0.29000  0.05530  0.00130  Biso   1.000  H
  H142     1.0000 0.33110  0.12920  0.98340  Biso   1.000  H
  C126     1.0000 0.38650  0.03860  0.95300  Biso   1.000  C
  H143     1.0000 0.39080  0.99630  0.98310  Biso   1.000  H
  H144     1.0000 0.43010  0.07000  0.95820  Biso   1.000  H
  C127     1.0000 0.20330  0.52190  0.79930  Biso   1.000  C
  H145     1.0000 0.21680  0.49350  0.83650  Biso   1.000  H
  C128     1.0000 0.14750  0.49740  0.75930  Biso   1.000  C
  H146     1.0000 0.12410  0.45260  0.76950  Biso   1.000  H
  C129     1.0000 0.12470  0.53660  0.70430  Biso   1.000  C
  C130     1.0000 0.16260  0.60260  0.69400  Biso   1.000  C
  H147     1.0000 0.14970  0.63330  0.65810  Biso   1.000  H
  C131     1.0000 0.21860  0.62280  0.73610  Biso   1.000  C
  H148     1.0000 0.24360  0.66710  0.72730  Biso   1.000  H
  C132     1.0000 0.06030  0.41950  0.46380  Biso   1.000  C
  H149     1.0000 0.02580  0.40030  0.43360  Biso   1.000  H
  C133     1.0000 0.03510  0.44740  0.52320  Biso   1.000  C
  H150     1.0000 0.98420  0.44690  0.53230  Biso   1.000  H
  C134     1.0000 0.08240  0.47580  0.56900  Biso   1.000  C
  C135     1.0000 0.15420  0.47660  0.54940  Biso   1.000  C
  H151     1.0000 0.19020  0.49670  0.57770  Biso   1.000  H
  C136     1.0000 0.17460  0.44860  0.48930  Biso   1.000  C
  H152     1.0000 0.22470  0.45180  0.47760  Biso   1.000  H
  C137     1.0000 0.97800  0.58480  0.64000  Biso   1.000  C
  H153     1.0000 0.99890  0.63280  0.65190  Biso   1.000  H
  H154     1.0000 0.95840  0.58680  0.59460  Biso   1.000  H
  C138     1.0000 0.91910  0.55990  0.69020  Biso   1.000  C
  H155     1.0000 0.93470  0.57270  0.73550  Biso   1.000  H
  H156     1.0000 0.87240  0.58520  0.68100  Biso   1.000  H
  C139     1.0000 0.90860  0.48010  0.68490  Biso   1.000  C
  H157     1.0000 0.88510  0.46800  0.64240  Biso   1.000  H
  H158     1.0000 0.87650  0.46280  0.72090  Biso   1.000  H
  C140     1.0000 0.98260  0.44310  0.68950  Biso   1.000  C
  H159     1.0000 0.98250  0.39610  0.66560  Biso   1.000  H
  H160     1.0000 0.99630  0.43420  0.73600  Biso   1.000  H
  Ag6      1.0000 0.16147  0.37491  0.34612  Biso   1.000  Ag
  Si11     1.0000 0.12425  0.99205  0.36529  Biso   1.000  Si
  Si12     1.0000 0.45331  0.49041  0.14992  Biso   1.000  Si
  N21      1.0000 0.15240  0.24770  0.35330  Biso   1.000  N
  N22      1.0000 0.93470  0.90340  0.23050  Biso   1.000  N
  N23      1.0000 0.26070  0.41570  0.28770  Biso   1.000  N
  N24      1.0000 0.36940  0.58170  0.94740  Biso   1.000  N
  C141     1.0000 0.17950  0.20730  0.40350  Biso   1.000  C
  H161     1.0000 0.20470  0.23200  0.43780  Biso   1.000  H
  C142     1.0000 0.17300  0.13370  0.40830  Biso   1.000  C
  H162     1.0000 0.19480  0.10890  0.44430  Biso   1.000  H
  C143     1.0000 0.13400  0.09370  0.36010  Biso   1.000  C
  C144     1.0000 0.10500  0.13670  0.30860  Biso   1.000  C
  H163     1.0000 0.07780  0.11410  0.27440  Biso   1.000  H
  C145     1.0000 0.11560  0.21100  0.30760  Biso   1.000  C
  H164     1.0000 0.09540  0.23770  0.27190  Biso   1.000  H
  C146     1.0000 0.00550  0.89930  0.21270  Biso   1.000  C
  H165     1.0000 0.01690  0.87660  0.17200  Biso   1.000  H
  C147     1.0000 0.06220  0.92600  0.25000  Biso   1.000  C
  H166     1.0000 0.11100  0.92090  0.23480  Biso   1.000  H
  C148     1.0000 0.04890  0.96010  0.30930  Biso   1.000  C
  C149     1.0000 0.97550  0.96420  0.32830  Biso   1.000  C
  H167     1.0000 0.96230  0.98700  0.36860  Biso   1.000  H
  C150     1.0000 0.92300  0.93510  0.28820  Biso   1.000  C
  H168     1.0000 0.87390  0.93780  0.30300  Biso   1.000  H
  C151     1.0000 0.21390  0.94520  0.35020  Biso   1.000  C
  H169     1.0000 0.20980  0.90900  0.31420  Biso   1.000  H
  H170     1.0000 0.25260  0.98070  0.33910  Biso   1.000  H
  C152     1.0000 0.22870  0.90880  0.41550  Biso   1.000  C
  H171     1.0000 0.23140  0.85560  0.40730  Biso   1.000  H
  H172     1.0000 0.27790  0.92440  0.43010  Biso   1.000  H
  C153     1.0000 0.18280  0.91920  0.46590  Biso   1.000  C
  H173     1.0000 0.21000  0.94470  0.50130  Biso   1.000  H
  H174     1.0000 0.16890  0.87080  0.48340  Biso   1.000  H
  C154     1.0000 0.11350  0.96140  0.45300  Biso   1.000  C
  H175     1.0000 0.10920  0.00370  0.48310  Biso   1.000  H
  H176     1.0000 0.06990  0.93000  0.45820  Biso   1.000  H
  C155     1.0000 0.29670  0.47810  0.29930  Biso   1.000  C
  H177     1.0000 0.28320  0.50650  0.33650  Biso   1.000  H
  C156     1.0000 0.35250  0.50260  0.25930  Biso   1.000  C
  H178     1.0000 0.37590  0.54740  0.26950  Biso   1.000  H
  C157     1.0000 0.37530  0.46340  0.20430  Biso   1.000  C
  C158     1.0000 0.33740  0.39740  0.19400  Biso   1.000  C
  H179     1.0000 0.35030  0.36670  0.15810  Biso   1.000  H
  C159     1.0000 0.28140  0.37720  0.23610  Biso   1.000  C
  H180     1.0000 0.25640  0.33290  0.22730  Biso   1.000  H
  C160     1.0000 0.43970  0.58050  0.96380  Biso   1.000  C
  H181     1.0000 0.47420  0.59970  0.93360  Biso   1.000  H
  C161     1.0000 0.46490  0.55260  0.02320  Biso   1.000  C
  H182     1.0000 0.51580  0.55310  0.03230  Biso   1.000  H
  C162     1.0000 0.41760  0.52420  0.06900  Biso   1.000  C
  C163     1.0000 0.34580  0.52340  0.04940  Biso   1.000  C
  H183     1.0000 0.30980  0.50330  0.07770  Biso   1.000  H
  C164     1.0000 0.32540  0.55140  0.98930  Biso   1.000  C
  H184     1.0000 0.27530  0.54820  0.97760  Biso   1.000  H
  C165     1.0000 0.52200  0.41520  0.14000  Biso   1.000  C
  H185     1.0000 0.50110  0.36720  0.15190  Biso   1.000  H
  H186     1.0000 0.54160  0.41320  0.09460  Biso   1.000  H
  C166     1.0000 0.58090  0.44010  0.19020  Biso   1.000  C
  H187     1.0000 0.56530  0.42730  0.23550  Biso   1.000  H
  H188     1.0000 0.62760  0.41480  0.18100  Biso   1.000  H
  C167     1.0000 0.59140  0.51990  0.18490  Biso   1.000  C
  H189     1.0000 0.61490  0.53200  0.14240  Biso   1.000  H
  H190     1.0000 0.62350  0.53720  0.22090  Biso   1.000  H
  C168     1.0000 0.51740  0.55690  0.18950  Biso   1.000  C
  H191     1.0000 0.51750  0.60390  0.16560  Biso   1.000  H
  H192     1.0000 0.50370  0.56580  0.23600  Biso   1.000  H
  Ag7      1.0000 0.66147  0.12509  0.65388  Biso   1.000  Ag
  Si13     1.0000 0.62425  0.50795  0.63471  Biso   1.000  Si
  Si14     1.0000 0.95331  0.00959  0.85008  Biso   1.000  Si
  N25      1.0000 0.65240  0.25230  0.64670  Biso   1.000  N
  N26      1.0000 0.43470  0.59660  0.76950  Biso   1.000  N
  N27      1.0000 0.76070  0.08430  0.71230  Biso   1.000  N
  N28      1.0000 0.86940  0.91830  0.05260  Biso   1.000  N
  C169     1.0000 0.67950  0.29270  0.59650  Biso   1.000  C
  H193     1.0000 0.70470  0.26800  0.56220  Biso   1.000  H
  C170     1.0000 0.67300  0.36630  0.59170  Biso   1.000  C
  H194     1.0000 0.69480  0.39110  0.55570  Biso   1.000  H
  C171     1.0000 0.63400  0.40630  0.63990  Biso   1.000  C
  C172     1.0000 0.60500  0.36330  0.69140  Biso   1.000  C
  H195     1.0000 0.57780  0.38590  0.72560  Biso   1.000  H
  C173     1.0000 0.61560  0.28900  0.69240  Biso   1.000  C
  H196     1.0000 0.59540  0.26230  0.72810  Biso   1.000  H
  C174     1.0000 0.50550  0.60070  0.78730  Biso   1.000  C
  H197     1.0000 0.51690  0.62340  0.82800  Biso   1.000  H
  C175     1.0000 0.56220  0.57400  0.75000  Biso   1.000  C
  H198     1.0000 0.61100  0.57910  0.76520  Biso   1.000  H
  C176     1.0000 0.54890  0.53990  0.69070  Biso   1.000  C
  C177     1.0000 0.47550  0.53580  0.67170  Biso   1.000  C
  H199     1.0000 0.46230  0.51300  0.63140  Biso   1.000  H
  C178     1.0000 0.42300  0.56490  0.71180  Biso   1.000  C
  H200     1.0000 0.37390  0.56220  0.69700  Biso   1.000  H
  C179     1.0000 0.71390  0.55480  0.64980  Biso   1.000  C
  H201     1.0000 0.70980  0.59100  0.68580  Biso   1.000  H
  H202     1.0000 0.75260  0.51930  0.66090  Biso   1.000  H
  C180     1.0000 0.72870  0.59120  0.58450  Biso   1.000  C
  H203     1.0000 0.73140  0.64440  0.59270  Biso   1.000  H
  H204     1.0000 0.77790  0.57560  0.56990  Biso   1.000  H
  C181     1.0000 0.68280  0.58080  0.53410  Biso   1.000  C
  H205     1.0000 0.71000  0.55530  0.49870  Biso   1.000  H
  H206     1.0000 0.66890  0.62920  0.51660  Biso   1.000  H
  C182     1.0000 0.61350  0.53860  0.54700  Biso   1.000  C
  H207     1.0000 0.60920  0.49630  0.51690  Biso   1.000  H
  H208     1.0000 0.56990  0.57000  0.54180  Biso   1.000  H
  C183     1.0000 0.79670  0.02190  0.70070  Biso   1.000  C
  H209     1.0000 0.78320  0.99350  0.66350  Biso   1.000  H
  C184     1.0000 0.85250  0.99740  0.74070  Biso   1.000  C
  H210     1.0000 0.87590  0.95260  0.73050  Biso   1.000  H
  C185     1.0000 0.87530  0.03660  0.79570  Biso   1.000  C
  C186     1.0000 0.83740  0.10260  0.80600  Biso   1.000  C
  H211     1.0000 0.85030  0.13330  0.84190  Biso   1.000  H
  C187     1.0000 0.78140  0.12280  0.76390  Biso   1.000  C
  H212     1.0000 0.75640  0.16710  0.77270  Biso   1.000  H
  C188     1.0000 0.93970  0.91950  0.03620  Biso   1.000  C
  H213     1.0000 0.97420  0.90030  0.06640  Biso   1.000  H
  C189     1.0000 0.96490  0.94740  0.97680  Biso   1.000  C
  H214     1.0000 0.01580  0.94690  0.96770  Biso   1.000  H
  C190     1.0000 0.91760  0.97580  0.93100  Biso   1.000  C
  C191     1.0000 0.84580  0.97660  0.95060  Biso   1.000  C
  H215     1.0000 0.80980  0.99670  0.92230  Biso   1.000  H
  C192     1.0000 0.82540  0.94860  0.01070  Biso   1.000  C
  H216     1.0000 0.77530  0.95180  0.02240  Biso   1.000  H
  C193     1.0000 0.02200  0.08480  0.86000  Biso   1.000  C
  H217     1.0000 0.00110  0.13280  0.84810  Biso   1.000  H
  H218     1.0000 0.04160  0.08680  0.90540  Biso   1.000  H
  C194     1.0000 0.08090  0.05990  0.80980  Biso   1.000  C
  H219     1.0000 0.06530  0.07270  0.76450  Biso   1.000  H
  H220     1.0000 0.12760  0.08520  0.81900  Biso   1.000  H
  C195     1.0000 0.09140  0.98010  0.81510  Biso   1.000  C
  H221     1.0000 0.11490  0.96800  0.85760  Biso   1.000  H
  H222     1.0000 0.12350  0.96280  0.77910  Biso   1.000  H
  C196     1.0000 0.01740  0.94310  0.81050  Biso   1.000  C
  H223     1.0000 0.01750  0.89610  0.83440  Biso   1.000  H
  H224     1.0000 0.00370  0.93420  0.76400  Biso   1.000  H
  Ag8      1.0000 0.83853  0.87491  0.15388  Biso   1.000  Ag
  Si15     1.0000 0.87575  0.49205  0.13471  Biso   1.000  Si
  Si16     1.0000 0.54669  0.99041  0.35008  Biso   1.000  Si
  N29      1.0000 0.84760  0.74770  0.14670  Biso   1.000  N
  N30      1.0000 0.06530  0.40340  0.26950  Biso   1.000  N
  N31      1.0000 0.73930  0.91570  0.21230  Biso   1.000  N
  N32      1.0000 0.63060  0.08170  0.55260  Biso   1.000  N
  C197     1.0000 0.82050  0.70730  0.09650  Biso   1.000  C
  H225     1.0000 0.79530  0.73200  0.06220  Biso   1.000  H
  C198     1.0000 0.82700  0.63370  0.09170  Biso   1.000  C
  H226     1.0000 0.80520  0.60890  0.05570  Biso   1.000  H
  C199     1.0000 0.86600  0.59370  0.13990  Biso   1.000  C
  C200     1.0000 0.89500  0.63670  0.19140  Biso   1.000  C
  H227     1.0000 0.92220  0.61410  0.22560  Biso   1.000  H
  C201     1.0000 0.88440  0.71100  0.19240  Biso   1.000  C
  H228     1.0000 0.90460  0.73770  0.22810  Biso   1.000  H
  C202     1.0000 0.99450  0.39930  0.28730  Biso   1.000  C
  H229     1.0000 0.98310  0.37660  0.32800  Biso   1.000  H
  C203     1.0000 0.93780  0.42600  0.25000  Biso   1.000  C
  H230     1.0000 0.88900  0.42090  0.26520  Biso   1.000  H
  C204     1.0000 0.95110  0.46010  0.19070  Biso   1.000  C
  C205     1.0000 0.02450  0.46420  0.17170  Biso   1.000  C
  H231     1.0000 0.03770  0.48700  0.13140  Biso   1.000  H
  C206     1.0000 0.07700  0.43510  0.21180  Biso   1.000  C
  H232     1.0000 0.12610  0.43780  0.19700  Biso   1.000  H
  C207     1.0000 0.78610  0.44520  0.14980  Biso   1.000  C
  H233     1.0000 0.79020  0.40900  0.18580  Biso   1.000  H
  H234     1.0000 0.74740  0.48070  0.16090  Biso   1.000  H
  C208     1.0000 0.77130  0.40880  0.08450  Biso   1.000  C
  H235     1.0000 0.76860  0.35560  0.09270  Biso   1.000  H
  H236     1.0000 0.72210  0.42440  0.06990  Biso   1.000  H
  C209     1.0000 0.81720  0.41920  0.03410  Biso   1.000  C
  H237     1.0000 0.79000  0.44470  0.99870  Biso   1.000  H
  H238     1.0000 0.83110  0.37080  0.01660  Biso   1.000  H
  C210     1.0000 0.88650  0.46140  0.04700  Biso   1.000  C
  H239     1.0000 0.89080  0.50370  0.01690  Biso   1.000  H
  H240     1.0000 0.93010  0.43000  0.04180  Biso   1.000  H
  C211     1.0000 0.70330  0.97810  0.20070  Biso   1.000  C
  H241     1.0000 0.71680  0.00650  0.16350  Biso   1.000  H
  C212     1.0000 0.64750  0.00260  0.24070  Biso   1.000  C
  H242     1.0000 0.62410  0.04740  0.23050  Biso   1.000  H
  C213     1.0000 0.62470  0.96340  0.29570  Biso   1.000  C
  C214     1.0000 0.66260  0.89740  0.30600  Biso   1.000  C
  H243     1.0000 0.64970  0.86670  0.34190  Biso   1.000  H
  C215     1.0000 0.71860  0.87720  0.26390  Biso   1.000  C
  H244     1.0000 0.74360  0.83290  0.27270  Biso   1.000  H
  C216     1.0000 0.56030  0.08050  0.53620  Biso   1.000  C
  H245     1.0000 0.52580  0.09970  0.56640  Biso   1.000  H
  C217     1.0000 0.53510  0.05260  0.47680  Biso   1.000  C
  H246     1.0000 0.48420  0.05310  0.46770  Biso   1.000  H
  C218     1.0000 0.58240  0.02420  0.43100  Biso   1.000  C
  C219     1.0000 0.65420  0.02340  0.45060  Biso   1.000  C
  H247     1.0000 0.69020  0.00330  0.42230  Biso   1.000  H
  C220     1.0000 0.67460  0.05140  0.51070  Biso   1.000  C
  H248     1.0000 0.72470  0.04820  0.52240  Biso   1.000  H
  C221     1.0000 0.47800  0.91520  0.36000  Biso   1.000  C
  H249     1.0000 0.49890  0.86720  0.34810  Biso   1.000  H
  H250     1.0000 0.45840  0.91320  0.40540  Biso   1.000  H
  C222     1.0000 0.41910  0.94010  0.30980  Biso   1.000  C
  H251     1.0000 0.43470  0.92730  0.26450  Biso   1.000  H
  H252     1.0000 0.37240  0.91480  0.31900  Biso   1.000  H
  C223     1.0000 0.40860  0.01990  0.31510  Biso   1.000  C
  H253     1.0000 0.38510  0.03200  0.35760  Biso   1.000  H
  H254     1.0000 0.37650  0.03720  0.27910  Biso   1.000  H
  C224     1.0000 0.48260  0.05690  0.31050  Biso   1.000  C
  H255     1.0000 0.48250  0.10390  0.33440  Biso   1.000  H
  H256     1.0000 0.49630  0.06580  0.26400  Biso   1.000  H
