data_image0
_cell_length_a       18.1935
_cell_length_b       18.5759
_cell_length_c       20.2044
_cell_angle_alpha    90
_cell_angle_beta     90
_cell_angle_gamma    90

_symmetry_space_group_name_H-M    "P 1"
_symmetry_int_tables_number       1

loop_
  _symmetry_equiv_pos_as_xyz
  'x, y, z'

loop_
  _atom_site_label
  _atom_site_occupancy
  _atom_site_fract_x
  _atom_site_fract_y
  _atom_site_fract_z
  _atom_site_thermal_displace_type
  _atom_site_B_iso_or_equiv
  _atom_site_type_symbol
  Ag1      1.0000 0.33750  0.35848  0.65273  Biso   1.000  Ag
  Si1      1.0000 0.95402  0.32993  0.63028  Biso   1.000  Si
  Si2      1.0000 0.47450  0.17280  0.92781  Biso   1.000  Si
  N1       1.0000 0.21080  0.35370  0.64010  Biso   1.000  N
  N2       1.0000 0.88350  0.21970  0.43060  Biso   1.000  N
  N3       1.0000 0.37400  0.29190  0.74440  Biso   1.000  N
  N4       1.0000 0.60230  0.96450  0.86020  Biso   1.000  N
  C1       1.0000 0.83620  0.25580  0.46870  Biso   1.000  C
  H1       1.0000 0.78650  0.25970  0.45460  Biso   1.000  H
  C2       1.0000 0.85640  0.28800  0.52830  Biso   1.000  C
  H2       1.0000 0.82010  0.30990  0.55540  Biso   1.000  H
  C3       1.0000 0.92780  0.28820  0.54750  Biso   1.000  C
  C4       1.0000 0.97590  0.25410  0.50910  Biso   1.000  C
  H3       1.0000 0.02610  0.25200  0.52210  Biso   1.000  H
  C5       1.0000 0.95400  0.22120  0.44970  Biso   1.000  C
  H4       1.0000 0.99020  0.19950  0.42240  Biso   1.000  H
  C6       1.0000 0.92020  0.27070  0.69910  Biso   1.000  C
  H5       1.0000 0.88580  0.23320  0.68300  Biso   1.000  H
  H6       1.0000 0.96100  0.24790  0.72370  Biso   1.000  H
  C7       1.0000 0.87840  0.33220  0.74300  Biso   1.000  C
  H7       1.0000 0.83080  0.31220  0.75810  Biso   1.000  H
  H8       1.0000 0.90840  0.34170  0.78300  Biso   1.000  H
  C8       1.0000 0.86490  0.39730  0.71210  Biso   1.000  C
  H9       1.0000 0.87660  0.43610  0.74400  Biso   1.000  H
  H10      1.0000 0.81150  0.40010  0.70290  Biso   1.000  H
  C9       1.0000 0.90480  0.41310  0.64930  Biso   1.000  C
  H11      1.0000 0.93950  0.45360  0.65530  Biso   1.000  H
  H12      1.0000 0.86980  0.42540  0.61340  Biso   1.000  H
  C10      1.0000 0.05650  0.33890  0.63340  Biso   1.000  C
  C11      1.0000 0.10320  0.28150  0.63840  Biso   1.000  C
  H13      1.0000 0.08340  0.23410  0.63830  Biso   1.000  H
  C12      1.0000 0.17820  0.29040  0.64380  Biso   1.000  C
  H14      1.0000 0.20790  0.24900  0.65050  Biso   1.000  H
  C13      1.0000 0.16600  0.41110  0.63180  Biso   1.000  C
  H15      1.0000 0.18800  0.45730  0.62900  Biso   1.000  H
  C14      1.0000 0.09350  0.40700  0.62730  Biso   1.000  C
  H16      1.0000 0.06560  0.44950  0.62000  Biso   1.000  H
  C15      1.0000 0.42980  0.24680  0.73860  Biso   1.000  C
  H17      1.0000 0.45310  0.24030  0.69700  Biso   1.000  H
  C16      1.0000 0.45470  0.20820  0.79500  Biso   1.000  C
  H18      1.0000 0.49090  0.17210  0.78830  Biso   1.000  H
  C17      1.0000 0.43290  0.21810  0.85150  Biso   1.000  C
  C18      1.0000 0.37710  0.26660  0.85860  Biso   1.000  C
  H19      1.0000 0.35730  0.27750  0.90090  Biso   1.000  H
  C19      1.0000 0.35040  0.29880  0.80260  Biso   1.000  C
  H20      1.0000 0.30950  0.33000  0.80830  Biso   1.000  H
  C20      1.0000 0.40470  0.14740  0.99220  Biso   1.000  C
  H21      1.0000 0.36610  0.18480  0.99490  Biso   1.000  H
  H22      1.0000 0.38100  0.10120  0.98010  Biso   1.000  H
  C21      1.0000 0.44140  0.14040  0.05540  Biso   1.000  C
  H23      1.0000 0.40530  0.12780  0.08950  Biso   1.000  H
  H24      1.0000 0.46490  0.18620  0.06690  Biso   1.000  H
  H25      1.0000 0.47880  0.10260  0.05260  Biso   1.000  H
  C22      1.0000 0.54020  0.23760  0.96540  Biso   1.000  C
  H26      1.0000 0.51040  0.27010  0.99350  Biso   1.000  H
  H27      1.0000 0.57120  0.20910  0.99600  Biso   1.000  H
  C23      1.0000 0.59080  0.28420  0.92810  Biso   1.000  C
  H28      1.0000 0.61820  0.31470  0.95900  Biso   1.000  H
  H29      1.0000 0.56260  0.31460  0.89760  Biso   1.000  H
  H30      1.0000 0.62520  0.25430  0.90280  Biso   1.000  H
  C24      1.0000 0.52370  0.09000  0.89990  Biso   1.000  C
  C25      1.0000 0.59810  0.08760  0.88430  Biso   1.000  C
  H31      1.0000 0.62570  0.13090  0.88680  Biso   1.000  H
  C26      1.0000 0.63240  0.02780  0.86600  Biso   1.000  C
  H32      1.0000 0.68340  0.03150  0.85630  Biso   1.000  H
  C27      1.0000 0.53180  0.96330  0.87350  Biso   1.000  C
  H33      1.0000 0.50660  0.91860  0.87030  Biso   1.000  H
  C28      1.0000 0.49070  0.02600  0.89270  Biso   1.000  C
  H34      1.0000 0.43930  0.02190  0.90030  Biso   1.000  H
  Ag2      1.0000 0.16250  0.64152  0.15273  Biso   1.000  Ag
  Si3      1.0000 0.54598  0.67007  0.13028  Biso   1.000  Si
  Si4      1.0000 0.02550  0.82720  0.42781  Biso   1.000  Si
  N5       1.0000 0.28920  0.64630  0.14010  Biso   1.000  N
  N6       1.0000 0.61650  0.78030  0.93060  Biso   1.000  N
  N7       1.0000 0.12600  0.70810  0.24440  Biso   1.000  N
  N8       1.0000 0.89770  0.03550  0.36020  Biso   1.000  N
  C29      1.0000 0.66380  0.74420  0.96870  Biso   1.000  C
  H35      1.0000 0.71350  0.74030  0.95460  Biso   1.000  H
  C30      1.0000 0.64360  0.71200  0.02830  Biso   1.000  C
  H36      1.0000 0.67990  0.69010  0.05540  Biso   1.000  H
  C31      1.0000 0.57220  0.71180  0.04750  Biso   1.000  C
  C32      1.0000 0.52410  0.74590  0.00910  Biso   1.000  C
  H37      1.0000 0.47390  0.74800  0.02210  Biso   1.000  H
  C33      1.0000 0.54600  0.77880  0.94970  Biso   1.000  C
  H38      1.0000 0.50980  0.80050  0.92240  Biso   1.000  H
  C34      1.0000 0.57980  0.72930  0.19910  Biso   1.000  C
  H39      1.0000 0.61420  0.76680  0.18300  Biso   1.000  H
  H40      1.0000 0.53900  0.75210  0.22370  Biso   1.000  H
  C35      1.0000 0.62160  0.66780  0.24300  Biso   1.000  C
  H41      1.0000 0.66920  0.68780  0.25810  Biso   1.000  H
  H42      1.0000 0.59160  0.65830  0.28300  Biso   1.000  H
  C36      1.0000 0.63510  0.60270  0.21210  Biso   1.000  C
  H43      1.0000 0.62340  0.56390  0.24400  Biso   1.000  H
  H44      1.0000 0.68850  0.59990  0.20290  Biso   1.000  H
  C37      1.0000 0.59520  0.58690  0.14930  Biso   1.000  C
  H45      1.0000 0.56050  0.54640  0.15530  Biso   1.000  H
  H46      1.0000 0.63020  0.57460  0.11340  Biso   1.000  H
  C38      1.0000 0.44350  0.66110  0.13340  Biso   1.000  C
  C39      1.0000 0.39680  0.71850  0.13840  Biso   1.000  C
  H47      1.0000 0.41660  0.76590  0.13830  Biso   1.000  H
  C40      1.0000 0.32180  0.70960  0.14380  Biso   1.000  C
  H48      1.0000 0.29210  0.75100  0.15050  Biso   1.000  H
  C41      1.0000 0.33400  0.58890  0.13180  Biso   1.000  C
  H49      1.0000 0.31200  0.54270  0.12900  Biso   1.000  H
  C42      1.0000 0.40650  0.59300  0.12730  Biso   1.000  C
  H50      1.0000 0.43440  0.55050  0.12000  Biso   1.000  H
  C43      1.0000 0.07020  0.75320  0.23860  Biso   1.000  C
  H51      1.0000 0.04690  0.75970  0.19700  Biso   1.000  H
  C44      1.0000 0.04530  0.79180  0.29500  Biso   1.000  C
  H52      1.0000 0.00910  0.82790  0.28830  Biso   1.000  H
  C45      1.0000 0.06710  0.78190  0.35150  Biso   1.000  C
  C46      1.0000 0.12290  0.73340  0.35860  Biso   1.000  C
  H53      1.0000 0.14270  0.72250  0.40090  Biso   1.000  H
  C47      1.0000 0.14960  0.70120  0.30260  Biso   1.000  C
  H54      1.0000 0.19050  0.67000  0.30830  Biso   1.000  H
  C48      1.0000 0.09530  0.85260  0.49220  Biso   1.000  C
  H55      1.0000 0.13390  0.81520  0.49490  Biso   1.000  H
  H56      1.0000 0.11900  0.89880  0.48010  Biso   1.000  H
  C49      1.0000 0.05860  0.85960  0.55540  Biso   1.000  C
  H57      1.0000 0.09470  0.87220  0.58950  Biso   1.000  H
  H58      1.0000 0.03510  0.81380  0.56690  Biso   1.000  H
  H59      1.0000 0.02120  0.89740  0.55260  Biso   1.000  H
  C50      1.0000 0.95980  0.76240  0.46540  Biso   1.000  C
  H60      1.0000 0.98960  0.72990  0.49350  Biso   1.000  H
  H61      1.0000 0.92880  0.79090  0.49600  Biso   1.000  H
  C51      1.0000 0.90920  0.71580  0.42810  Biso   1.000  C
  H62      1.0000 0.88180  0.68530  0.45900  Biso   1.000  H
  H63      1.0000 0.93740  0.68540  0.39760  Biso   1.000  H
  H64      1.0000 0.87480  0.74570  0.40280  Biso   1.000  H
  C52      1.0000 0.97630  0.91000  0.39990  Biso   1.000  C
  C53      1.0000 0.90190  0.91240  0.38430  Biso   1.000  C
  H65      1.0000 0.87430  0.86910  0.38680  Biso   1.000  H
  C54      1.0000 0.86760  0.97220  0.36600  Biso   1.000  C
  H66      1.0000 0.81660  0.96850  0.35630  Biso   1.000  H
  C55      1.0000 0.96820  0.03670  0.37350  Biso   1.000  C
  H67      1.0000 0.99340  0.08140  0.37030  Biso   1.000  H
  C56      1.0000 0.00930  0.97400  0.39270  Biso   1.000  C
  H68      1.0000 0.06070  0.97810  0.40030  Biso   1.000  H
  Ag3      1.0000 0.66250  0.85848  0.84727  Biso   1.000  Ag
  Si5      1.0000 0.04598  0.82993  0.86972  Biso   1.000  Si
  Si6      1.0000 0.52550  0.67280  0.57219  Biso   1.000  Si
  N9       1.0000 0.78920  0.85370  0.85990  Biso   1.000  N
  N10      1.0000 0.11650  0.71970  0.06940  Biso   1.000  N
  N11      1.0000 0.62600  0.79190  0.75560  Biso   1.000  N
  N12      1.0000 0.39770  0.46450  0.63980  Biso   1.000  N
  C57      1.0000 0.16380  0.75580  0.03130  Biso   1.000  C
  H69      1.0000 0.21350  0.75970  0.04540  Biso   1.000  H
  C58      1.0000 0.14360  0.78800  0.97170  Biso   1.000  C
  H70      1.0000 0.17990  0.80990  0.94460  Biso   1.000  H
  C59      1.0000 0.07220  0.78820  0.95250  Biso   1.000  C
  C60      1.0000 0.02410  0.75410  0.99090  Biso   1.000  C
  H71      1.0000 0.97390  0.75200  0.97790  Biso   1.000  H
  C61      1.0000 0.04600  0.72120  0.05030  Biso   1.000  C
  H72      1.0000 0.00980  0.69950  0.07760  Biso   1.000  H
  C62      1.0000 0.07980  0.77070  0.80090  Biso   1.000  C
  H73      1.0000 0.11420  0.73320  0.81700  Biso   1.000  H
  H74      1.0000 0.03900  0.74790  0.77630  Biso   1.000  H
  C63      1.0000 0.12160  0.83220  0.75700  Biso   1.000  C
  H75      1.0000 0.16920  0.81220  0.74190  Biso   1.000  H
  H76      1.0000 0.09160  0.84170  0.71700  Biso   1.000  H
  C64      1.0000 0.13510  0.89730  0.78790  Biso   1.000  C
  H77      1.0000 0.12340  0.93610  0.75600  Biso   1.000  H
  H78      1.0000 0.18850  0.90010  0.79710  Biso   1.000  H
  C65      1.0000 0.09520  0.91310  0.85070  Biso   1.000  C
  H79      1.0000 0.06050  0.95360  0.84470  Biso   1.000  H
  H80      1.0000 0.13020  0.92540  0.88660  Biso   1.000  H
  C66      1.0000 0.94350  0.83890  0.86660  Biso   1.000  C
  C67      1.0000 0.89680  0.78150  0.86160  Biso   1.000  C
  H81      1.0000 0.91660  0.73410  0.86170  Biso   1.000  H
  C68      1.0000 0.82180  0.79040  0.85620  Biso   1.000  C
  H82      1.0000 0.79210  0.74900  0.84950  Biso   1.000  H
  C69      1.0000 0.83400  0.91110  0.86820  Biso   1.000  C
  H83      1.0000 0.81200  0.95730  0.87100  Biso   1.000  H
  C70      1.0000 0.90650  0.90700  0.87270  Biso   1.000  C
  H84      1.0000 0.93440  0.94950  0.88000  Biso   1.000  H
  C71      1.0000 0.57020  0.74680  0.76140  Biso   1.000  C
  H85      1.0000 0.54690  0.74030  0.80300  Biso   1.000  H
  C72      1.0000 0.54530  0.70820  0.70500  Biso   1.000  C
  H86      1.0000 0.50910  0.67210  0.71170  Biso   1.000  H
  C73      1.0000 0.56710  0.71810  0.64850  Biso   1.000  C
  C74      1.0000 0.62290  0.76660  0.64140  Biso   1.000  C
  H87      1.0000 0.64270  0.77750  0.59910  Biso   1.000  H
  C75      1.0000 0.64960  0.79880  0.69740  Biso   1.000  C
  H88      1.0000 0.69050  0.83000  0.69170  Biso   1.000  H
  C76      1.0000 0.59530  0.64740  0.50780  Biso   1.000  C
  H89      1.0000 0.63390  0.68480  0.50510  Biso   1.000  H
  H90      1.0000 0.61900  0.60120  0.51990  Biso   1.000  H
  C77      1.0000 0.55860  0.64040  0.44460  Biso   1.000  C
  H91      1.0000 0.59470  0.62780  0.41050  Biso   1.000  H
  H92      1.0000 0.53510  0.68620  0.43310  Biso   1.000  H
  H93      1.0000 0.52120  0.60260  0.44740  Biso   1.000  H
  C78      1.0000 0.45980  0.73760  0.53460  Biso   1.000  C
  H94      1.0000 0.48960  0.77010  0.50650  Biso   1.000  H
  H95      1.0000 0.42880  0.70910  0.50400  Biso   1.000  H
  C79      1.0000 0.40920  0.78420  0.57190  Biso   1.000  C
  H96      1.0000 0.38180  0.81470  0.54100  Biso   1.000  H
  H97      1.0000 0.43740  0.81460  0.60240  Biso   1.000  H
  H98      1.0000 0.37480  0.75430  0.59720  Biso   1.000  H
  C80      1.0000 0.47630  0.59000  0.60010  Biso   1.000  C
  C81      1.0000 0.40190  0.58760  0.61570  Biso   1.000  C
  H99      1.0000 0.37430  0.63090  0.61320  Biso   1.000  H
  C82      1.0000 0.36760  0.52780  0.63400  Biso   1.000  C
  H100     1.0000 0.31660  0.53150  0.64370  Biso   1.000  H
  C83      1.0000 0.46820  0.46330  0.62650  Biso   1.000  C
  H101     1.0000 0.49340  0.41860  0.62970  Biso   1.000  H
  C84      1.0000 0.50930  0.52600  0.60730  Biso   1.000  C
  H102     1.0000 0.56070  0.52190  0.59970  Biso   1.000  H
  Ag4      1.0000 0.83750  0.14152  0.34727  Biso   1.000  Ag
  Si7      1.0000 0.45402  0.17007  0.36972  Biso   1.000  Si
  Si8      1.0000 0.97450  0.32720  0.07219  Biso   1.000  Si
  N13      1.0000 0.71080  0.14630  0.35990  Biso   1.000  N
  N14      1.0000 0.38350  0.28030  0.56940  Biso   1.000  N
  N15      1.0000 0.87400  0.20810  0.25560  Biso   1.000  N
  N16      1.0000 0.10230  0.53550  0.13980  Biso   1.000  N
  C85      1.0000 0.33620  0.24420  0.53130  Biso   1.000  C
  H103     1.0000 0.28650  0.24030  0.54540  Biso   1.000  H
  C86      1.0000 0.35640  0.21200  0.47170  Biso   1.000  C
  H104     1.0000 0.32010  0.19010  0.44460  Biso   1.000  H
  C87      1.0000 0.42780  0.21180  0.45250  Biso   1.000  C
  C88      1.0000 0.47590  0.24590  0.49090  Biso   1.000  C
  H105     1.0000 0.52610  0.24800  0.47790  Biso   1.000  H
  C89      1.0000 0.45400  0.27880  0.55030  Biso   1.000  C
  H106     1.0000 0.49020  0.30050  0.57760  Biso   1.000  H
  C90      1.0000 0.42020  0.22930  0.30090  Biso   1.000  C
  H107     1.0000 0.38580  0.26680  0.31700  Biso   1.000  H
  H108     1.0000 0.46100  0.25210  0.27630  Biso   1.000  H
  C91      1.0000 0.37840  0.16780  0.25700  Biso   1.000  C
  H109     1.0000 0.33080  0.18780  0.24190  Biso   1.000  H
  H110     1.0000 0.40840  0.15830  0.21700  Biso   1.000  H
  C92      1.0000 0.36490  0.10270  0.28790  Biso   1.000  C
  H111     1.0000 0.37660  0.06390  0.25600  Biso   1.000  H
  H112     1.0000 0.31150  0.09990  0.29710  Biso   1.000  H
  C93      1.0000 0.40480  0.08690  0.35070  Biso   1.000  C
  H113     1.0000 0.43950  0.04640  0.34470  Biso   1.000  H
  H114     1.0000 0.36980  0.07460  0.38660  Biso   1.000  H
  C94      1.0000 0.55650  0.16110  0.36660  Biso   1.000  C
  C95      1.0000 0.60320  0.21850  0.36160  Biso   1.000  C
  H115     1.0000 0.58340  0.26590  0.36170  Biso   1.000  H
  C96      1.0000 0.67820  0.20960  0.35620  Biso   1.000  C
  H116     1.0000 0.70790  0.25100  0.34950  Biso   1.000  H
  C97      1.0000 0.66600  0.08890  0.36820  Biso   1.000  C
  H117     1.0000 0.68800  0.04270  0.37100  Biso   1.000  H
  C98      1.0000 0.59350  0.09300  0.37270  Biso   1.000  C
  H118     1.0000 0.56560  0.05050  0.38000  Biso   1.000  H
  C99      1.0000 0.92980  0.25320  0.26140  Biso   1.000  C
  H119     1.0000 0.95310  0.25970  0.30300  Biso   1.000  H
  C100     1.0000 0.95470  0.29180  0.20500  Biso   1.000  C
  H120     1.0000 0.99090  0.32790  0.21170  Biso   1.000  H
  C101     1.0000 0.93290  0.28190  0.14850  Biso   1.000  C
  C102     1.0000 0.87710  0.23340  0.14140  Biso   1.000  C
  H121     1.0000 0.85730  0.22250  0.09910  Biso   1.000  H
  C103     1.0000 0.85040  0.20120  0.19740  Biso   1.000  C
  H122     1.0000 0.80950  0.17000  0.19170  Biso   1.000  H
  C104     1.0000 0.90470  0.35260  0.00780  Biso   1.000  C
  H123     1.0000 0.86610  0.31520  0.00510  Biso   1.000  H
  H124     1.0000 0.88100  0.39880  0.01990  Biso   1.000  H
  C105     1.0000 0.94140  0.35960  0.94460  Biso   1.000  C
  H125     1.0000 0.90530  0.37220  0.91050  Biso   1.000  H
  H126     1.0000 0.96490  0.31380  0.93310  Biso   1.000  H
  H127     1.0000 0.97880  0.39740  0.94740  Biso   1.000  H
  C106     1.0000 0.04020  0.26240  0.03460  Biso   1.000  C
  H128     1.0000 0.01040  0.22990  0.00650  Biso   1.000  H
  H129     1.0000 0.07120  0.29090  0.00400  Biso   1.000  H
  C107     1.0000 0.09080  0.21580  0.07190  Biso   1.000  C
  H130     1.0000 0.11820  0.18530  0.04100  Biso   1.000  H
  H131     1.0000 0.06260  0.18540  0.10240  Biso   1.000  H
  H132     1.0000 0.12520  0.24570  0.09720  Biso   1.000  H
  C108     1.0000 0.02370  0.41000  0.10010  Biso   1.000  C
  C109     1.0000 0.09810  0.41240  0.11570  Biso   1.000  C
  H133     1.0000 0.12570  0.36910  0.11320  Biso   1.000  H
  C110     1.0000 0.13240  0.47220  0.13400  Biso   1.000  C
  H134     1.0000 0.18340  0.46850  0.14370  Biso   1.000  H
  C111     1.0000 0.03180  0.53670  0.12650  Biso   1.000  C
  H135     1.0000 0.00660  0.58140  0.12970  Biso   1.000  H
  C112     1.0000 0.99070  0.47400  0.10730  Biso   1.000  C
  H136     1.0000 0.93930  0.47810  0.09970  Biso   1.000  H
  Ag5      1.0000 0.84052  0.63000  0.65805  Biso   1.000  Ag
  Si9      1.0000 0.55030  0.50730  0.85450  Biso   1.000  Si
  Si10     1.0000 0.13380  0.50710  0.86095  Biso   1.000  Si
  N17      1.0000 0.74020  0.58860  0.71570  Biso   1.000  N
  N18      1.0000 0.63160  0.41840  0.05550  Biso   1.000  N
  N19      1.0000 0.93870  0.59870  0.73160  Biso   1.000  N
  N20      1.0000 0.14780  0.25210  0.85160  Biso   1.000  N
  C113     1.0000 0.70320  0.52980  0.69650  Biso   1.000  C
  H137     1.0000 0.71390  0.50870  0.65470  Biso   1.000  H
  C114     1.0000 0.64940  0.49910  0.73650  Biso   1.000  C
  H138     1.0000 0.62510  0.45610  0.72350  Biso   1.000  H
  C115     1.0000 0.63130  0.53390  0.79840  Biso   1.000  C
  C116     1.0000 0.67450  0.58500  0.81520  Biso   1.000  C
  H139     1.0000 0.67060  0.60360  0.85890  Biso   1.000  H
  C117     1.0000 0.72520  0.61390  0.77480  Biso   1.000  C
  H140     1.0000 0.75150  0.65490  0.78980  Biso   1.000  H
  C118     1.0000 0.48420  0.45370  0.81960  Biso   1.000  C
  H141     1.0000 0.49680  0.44720  0.77230  Biso   1.000  H
  H142     1.0000 0.48720  0.40570  0.84080  Biso   1.000  H
  C119     1.0000 0.41610  0.47510  0.82300  Biso   1.000  C
  H143     1.0000 0.39310  0.46040  0.86510  Biso   1.000  H
  H144     1.0000 0.38690  0.45550  0.78560  Biso   1.000  H
  C120     1.0000 0.42340  0.56530  0.81800  Biso   1.000  C
  H145     1.0000 0.43900  0.57960  0.77260  Biso   1.000  H
  H146     1.0000 0.37550  0.58820  0.82730  Biso   1.000  H
  C121     1.0000 0.47990  0.58830  0.86770  Biso   1.000  C
  H147     1.0000 0.45980  0.58950  0.91320  Biso   1.000  H
  H148     1.0000 0.50200  0.63550  0.85660  Biso   1.000  H
  C122     1.0000 0.58810  0.46730  0.93130  Biso   1.000  C
  C123     1.0000 0.65760  0.47320  0.95330  Biso   1.000  C
  H149     1.0000 0.69170  0.50060  0.92810  Biso   1.000  H
  C124     1.0000 0.68170  0.44060  0.01190  Biso   1.000  C
  H150     1.0000 0.73270  0.43440  0.02030  Biso   1.000  H
  C125     1.0000 0.56330  0.42070  0.03650  Biso   1.000  C
  H151     1.0000 0.52740  0.40540  0.06750  Biso   1.000  H
  C126     1.0000 0.53820  0.44340  0.97550  Biso   1.000  C
  H152     1.0000 0.48740  0.44210  0.96500  Biso   1.000  H
  C127     1.0000 0.00730  0.60300  0.71130  Biso   1.000  C
  H153     1.0000 0.01760  0.62670  0.67070  Biso   1.000  H
  C128     1.0000 0.06540  0.57380  0.74770  Biso   1.000  C
  H154     1.0000 0.11330  0.57590  0.72920  Biso   1.000  H
  C129     1.0000 0.05700  0.54200  0.80920  Biso   1.000  C
  C130     1.0000 0.98380  0.53960  0.82950  Biso   1.000  C
  H155     1.0000 0.97090  0.51730  0.87020  Biso   1.000  H
  C131     1.0000 0.93030  0.56980  0.78990  Biso   1.000  C
  H156     1.0000 0.88170  0.56950  0.80720  Biso   1.000  H
  C132     1.0000 0.12330  0.54020  0.95000  Biso   1.000  C
  H157     1.0000 0.08060  0.57280  0.95490  Biso   1.000  H
  H158     1.0000 0.11860  0.49970  0.98150  Biso   1.000  H
  C133     1.0000 0.19600  0.58060  0.95920  Biso   1.000  C
  H159     1.0000 0.19950  0.59910  0.00450  Biso   1.000  H
  H160     1.0000 0.19880  0.62090  0.92790  Biso   1.000  H
  H161     1.0000 0.23740  0.54760  0.95090  Biso   1.000  H
  C134     1.0000 0.22510  0.54440  0.83260  Biso   1.000  C
  H162     1.0000 0.26090  0.54230  0.86950  Biso   1.000  H
  H163     1.0000 0.24440  0.51470  0.79580  Biso   1.000  H
  C135     1.0000 0.21600  0.62900  0.80800  Biso   1.000  C
  H164     1.0000 0.26450  0.65050  0.80200  Biso   1.000  H
  H165     1.0000 0.18790  0.65600  0.84060  Biso   1.000  H
  H166     1.0000 0.18960  0.62970  0.76520  Biso   1.000  H
  C136     1.0000 0.13680  0.40420  0.85760  Biso   1.000  C
  C137     1.0000 0.17830  0.36560  0.90270  Biso   1.000  C
  H167     1.0000 0.20390  0.39020  0.93690  Biso   1.000  H
  C138     1.0000 0.18250  0.29540  0.89850  Biso   1.000  C
  H168     1.0000 0.21210  0.27170  0.93060  Biso   1.000  H
  C139     1.0000 0.10730  0.28990  0.81100  Biso   1.000  C
  H169     1.0000 0.08250  0.26490  0.77660  Biso   1.000  H
  C140     1.0000 0.09820  0.36180  0.81420  Biso   1.000  C
  H170     1.0000 0.06380  0.38390  0.78540  Biso   1.000  H
  Ag6      1.0000 0.65948  0.37000  0.15805  Biso   1.000  Ag
  Si11     1.0000 0.94970  0.49270  0.35450  Biso   1.000  Si
  Si12     1.0000 0.36620  0.49290  0.36095  Biso   1.000  Si
  N21      1.0000 0.75980  0.41140  0.21570  Biso   1.000  N
  N22      1.0000 0.86840  0.58160  0.55550  Biso   1.000  N
  N23      1.0000 0.56130  0.40130  0.23160  Biso   1.000  N
  N24      1.0000 0.35220  0.74790  0.35160  Biso   1.000  N
  C141     1.0000 0.79680  0.47020  0.19650  Biso   1.000  C
  H171     1.0000 0.78610  0.49130  0.15470  Biso   1.000  H
  C142     1.0000 0.85060  0.50090  0.23650  Biso   1.000  C
  H172     1.0000 0.87490  0.54390  0.22350  Biso   1.000  H
  C143     1.0000 0.86870  0.46610  0.29840  Biso   1.000  C
  C144     1.0000 0.82550  0.41500  0.31520  Biso   1.000  C
  H173     1.0000 0.82940  0.39640  0.35890  Biso   1.000  H
  C145     1.0000 0.77480  0.38610  0.27480  Biso   1.000  C
  H174     1.0000 0.74850  0.34510  0.28980  Biso   1.000  H
  C146     1.0000 0.01580  0.54630  0.31960  Biso   1.000  C
  H175     1.0000 0.00320  0.55280  0.27230  Biso   1.000  H
  H176     1.0000 0.01280  0.59430  0.34080  Biso   1.000  H
  C147     1.0000 0.08390  0.52490  0.32300  Biso   1.000  C
  H177     1.0000 0.10690  0.53960  0.36510  Biso   1.000  H
  H178     1.0000 0.11310  0.54450  0.28560  Biso   1.000  H
  C148     1.0000 0.07660  0.43470  0.31800  Biso   1.000  C
  H179     1.0000 0.06100  0.42040  0.27260  Biso   1.000  H
  H180     1.0000 0.12450  0.41180  0.32730  Biso   1.000  H
  C149     1.0000 0.02010  0.41170  0.36770  Biso   1.000  C
  H181     1.0000 0.04020  0.41050  0.41320  Biso   1.000  H
  H182     1.0000 0.99800  0.36450  0.35660  Biso   1.000  H
  C150     1.0000 0.91190  0.53270  0.43130  Biso   1.000  C
  C151     1.0000 0.84240  0.52680  0.45330  Biso   1.000  C
  H183     1.0000 0.80830  0.49940  0.42810  Biso   1.000  H
  C152     1.0000 0.81830  0.55940  0.51190  Biso   1.000  C
  H184     1.0000 0.76730  0.56560  0.52030  Biso   1.000  H
  C153     1.0000 0.93670  0.57930  0.53650  Biso   1.000  C
  H185     1.0000 0.97260  0.59460  0.56750  Biso   1.000  H
  C154     1.0000 0.96180  0.55660  0.47550  Biso   1.000  C
  H186     1.0000 0.01260  0.55790  0.46500  Biso   1.000  H
  C155     1.0000 0.49270  0.39700  0.21130  Biso   1.000  C
  H187     1.0000 0.48240  0.37330  0.17070  Biso   1.000  H
  C156     1.0000 0.43460  0.42620  0.24770  Biso   1.000  C
  H188     1.0000 0.38670  0.42410  0.22920  Biso   1.000  H
  C157     1.0000 0.44300  0.45800  0.30920  Biso   1.000  C
  C158     1.0000 0.51620  0.46040  0.32950  Biso   1.000  C
  H189     1.0000 0.52910  0.48270  0.37020  Biso   1.000  H
  C159     1.0000 0.56970  0.43020  0.28990  Biso   1.000  C
  H190     1.0000 0.61830  0.43050  0.30720  Biso   1.000  H
  C160     1.0000 0.37670  0.45980  0.45000  Biso   1.000  C
  H191     1.0000 0.41940  0.42720  0.45490  Biso   1.000  H
  H192     1.0000 0.38140  0.50030  0.48150  Biso   1.000  H
  C161     1.0000 0.30400  0.41940  0.45920  Biso   1.000  C
  H193     1.0000 0.30050  0.40090  0.50450  Biso   1.000  H
  H194     1.0000 0.30120  0.37910  0.42790  Biso   1.000  H
  H195     1.0000 0.26260  0.45240  0.45090  Biso   1.000  H
  C162     1.0000 0.27490  0.45560  0.33260  Biso   1.000  C
  H196     1.0000 0.23910  0.45770  0.36950  Biso   1.000  H
  H197     1.0000 0.25560  0.48530  0.29580  Biso   1.000  H
  C163     1.0000 0.28400  0.37100  0.30800  Biso   1.000  C
  H198     1.0000 0.23550  0.34950  0.30200  Biso   1.000  H
  H199     1.0000 0.31210  0.34400  0.34060  Biso   1.000  H
  H200     1.0000 0.31040  0.37030  0.26520  Biso   1.000  H
  C164     1.0000 0.36320  0.59580  0.35760  Biso   1.000  C
  C165     1.0000 0.32170  0.63440  0.40270  Biso   1.000  C
  H201     1.0000 0.29610  0.60980  0.43690  Biso   1.000  H
  C166     1.0000 0.31750  0.70460  0.39850  Biso   1.000  C
  H202     1.0000 0.28790  0.72830  0.43060  Biso   1.000  H
  C167     1.0000 0.39270  0.71010  0.31100  Biso   1.000  C
  H203     1.0000 0.41750  0.73510  0.27660  Biso   1.000  H
  C168     1.0000 0.40180  0.63820  0.31420  Biso   1.000  C
  H204     1.0000 0.43620  0.61610  0.28540  Biso   1.000  H
  Ag7      1.0000 0.15948  0.13000  0.84195  Biso   1.000  Ag
  Si13     1.0000 0.44970  0.00730  0.64550  Biso   1.000  Si
  Si14     1.0000 0.86620  0.00710  0.63905  Biso   1.000  Si
  N25      1.0000 0.25980  0.08860  0.78430  Biso   1.000  N
  N26      1.0000 0.36840  0.91840  0.44450  Biso   1.000  N
  N27      1.0000 0.06130  0.09870  0.76840  Biso   1.000  N
  N28      1.0000 0.85220  0.75210  0.64840  Biso   1.000  N
  C169     1.0000 0.29680  0.02980  0.80350  Biso   1.000  C
  H205     1.0000 0.28610  0.00870  0.84530  Biso   1.000  H
  C170     1.0000 0.35060  0.99910  0.76350  Biso   1.000  C
  H206     1.0000 0.37490  0.95610  0.77650  Biso   1.000  H
  C171     1.0000 0.36870  0.03390  0.70160  Biso   1.000  C
  C172     1.0000 0.32550  0.08500  0.68480  Biso   1.000  C
  H207     1.0000 0.32940  0.10360  0.64110  Biso   1.000  H
  C173     1.0000 0.27480  0.11390  0.72520  Biso   1.000  C
  H208     1.0000 0.24850  0.15490  0.71020  Biso   1.000  H
  C174     1.0000 0.51580  0.95370  0.68040  Biso   1.000  C
  H209     1.0000 0.50320  0.94720  0.72770  Biso   1.000  H
  H210     1.0000 0.51280  0.90570  0.65920  Biso   1.000  H
  C175     1.0000 0.58390  0.97510  0.67700  Biso   1.000  C
  H211     1.0000 0.60690  0.96040  0.63490  Biso   1.000  H
  H212     1.0000 0.61310  0.95550  0.71440  Biso   1.000  H
  C176     1.0000 0.57660  0.06530  0.68200  Biso   1.000  C
  H213     1.0000 0.56100  0.07960  0.72740  Biso   1.000  H
  H214     1.0000 0.62450  0.08820  0.67270  Biso   1.000  H
  C177     1.0000 0.52010  0.08830  0.63230  Biso   1.000  C
  H215     1.0000 0.54020  0.08950  0.58680  Biso   1.000  H
  H216     1.0000 0.49800  0.13550  0.64340  Biso   1.000  H
  C178     1.0000 0.41190  0.96730  0.56870  Biso   1.000  C
  C179     1.0000 0.34240  0.97320  0.54670  Biso   1.000  C
  H217     1.0000 0.30830  0.00060  0.57190  Biso   1.000  H
  C180     1.0000 0.31830  0.94060  0.48810  Biso   1.000  C
  H218     1.0000 0.26730  0.93440  0.47970  Biso   1.000  H
  C181     1.0000 0.43670  0.92070  0.46350  Biso   1.000  C
  H219     1.0000 0.47260  0.90540  0.43250  Biso   1.000  H
  C182     1.0000 0.46180  0.94340  0.52450  Biso   1.000  C
  H220     1.0000 0.51260  0.94210  0.53500  Biso   1.000  H
  C183     1.0000 0.99270  0.10300  0.78870  Biso   1.000  C
  H221     1.0000 0.98240  0.12670  0.82930  Biso   1.000  H
  C184     1.0000 0.93460  0.07380  0.75230  Biso   1.000  C
  H222     1.0000 0.88670  0.07590  0.77080  Biso   1.000  H
  C185     1.0000 0.94300  0.04200  0.69080  Biso   1.000  C
  C186     1.0000 0.01620  0.03960  0.67050  Biso   1.000  C
  H223     1.0000 0.02910  0.01730  0.62980  Biso   1.000  H
  C187     1.0000 0.06970  0.06980  0.71010  Biso   1.000  C
  H224     1.0000 0.11830  0.06950  0.69280  Biso   1.000  H
  C188     1.0000 0.87670  0.04020  0.55000  Biso   1.000  C
  H225     1.0000 0.91940  0.07280  0.54510  Biso   1.000  H
  H226     1.0000 0.88140  0.99970  0.51850  Biso   1.000  H
  C189     1.0000 0.80400  0.08060  0.54080  Biso   1.000  C
  H227     1.0000 0.80050  0.09910  0.49550  Biso   1.000  H
  H228     1.0000 0.80120  0.12090  0.57210  Biso   1.000  H
  H229     1.0000 0.76260  0.04760  0.54910  Biso   1.000  H
  C190     1.0000 0.77490  0.04440  0.66740  Biso   1.000  C
  H230     1.0000 0.73910  0.04230  0.63050  Biso   1.000  H
  H231     1.0000 0.75560  0.01470  0.70420  Biso   1.000  H
  C191     1.0000 0.78400  0.12900  0.69200  Biso   1.000  C
  H232     1.0000 0.73550  0.15050  0.69800  Biso   1.000  H
  H233     1.0000 0.81210  0.15600  0.65940  Biso   1.000  H
  H234     1.0000 0.81040  0.12970  0.73480  Biso   1.000  H
  C192     1.0000 0.86320  0.90420  0.64240  Biso   1.000  C
  C193     1.0000 0.82170  0.86560  0.59730  Biso   1.000  C
  H235     1.0000 0.79610  0.89020  0.56310  Biso   1.000  H
  C194     1.0000 0.81750  0.79540  0.60150  Biso   1.000  C
  H236     1.0000 0.78790  0.77170  0.56940  Biso   1.000  H
  C195     1.0000 0.89270  0.78990  0.68900  Biso   1.000  C
  H237     1.0000 0.91750  0.76490  0.72340  Biso   1.000  H
  C196     1.0000 0.90180  0.86180  0.68580  Biso   1.000  C
  H238     1.0000 0.93620  0.88390  0.71460  Biso   1.000  H
  Ag8      1.0000 0.34052  0.87000  0.34195  Biso   1.000  Ag
  Si15     1.0000 0.05030  0.99270  0.14550  Biso   1.000  Si
  Si16     1.0000 0.63380  0.99290  0.13905  Biso   1.000  Si
  N29      1.0000 0.24020  0.91140  0.28430  Biso   1.000  N
  N30      1.0000 0.13160  0.08160  0.94450  Biso   1.000  N
  N31      1.0000 0.43870  0.90130  0.26840  Biso   1.000  N
  N32      1.0000 0.64780  0.24790  0.14840  Biso   1.000  N
  C197     1.0000 0.20320  0.97020  0.30350  Biso   1.000  C
  H239     1.0000 0.21390  0.99130  0.34530  Biso   1.000  H
  C198     1.0000 0.14940  0.00090  0.26350  Biso   1.000  C
  H240     1.0000 0.12510  0.04390  0.27650  Biso   1.000  H
  C199     1.0000 0.13130  0.96610  0.20160  Biso   1.000  C
  C200     1.0000 0.17450  0.91500  0.18480  Biso   1.000  C
  H241     1.0000 0.17060  0.89640  0.14110  Biso   1.000  H
  C201     1.0000 0.22520  0.88610  0.22520  Biso   1.000  C
  H242     1.0000 0.25150  0.84510  0.21020  Biso   1.000  H
  C202     1.0000 0.98420  0.04630  0.18040  Biso   1.000  C
  H243     1.0000 0.99680  0.05280  0.22770  Biso   1.000  H
  H244     1.0000 0.98720  0.09430  0.15920  Biso   1.000  H
  C203     1.0000 0.91610  0.02490  0.17700  Biso   1.000  C
  H245     1.0000 0.89310  0.03960  0.13490  Biso   1.000  H
  H246     1.0000 0.88690  0.04450  0.21440  Biso   1.000  H
  C204     1.0000 0.92340  0.93470  0.18200  Biso   1.000  C
  H247     1.0000 0.93900  0.92040  0.22740  Biso   1.000  H
  H248     1.0000 0.87550  0.91180  0.17270  Biso   1.000  H
  C205     1.0000 0.97990  0.91170  0.13230  Biso   1.000  C
  H249     1.0000 0.95980  0.91050  0.08680  Biso   1.000  H
  H250     1.0000 0.00200  0.86450  0.14340  Biso   1.000  H
  C206     1.0000 0.08810  0.03270  0.06870  Biso   1.000  C
  C207     1.0000 0.15760  0.02680  0.04670  Biso   1.000  C
  H251     1.0000 0.19170  0.99940  0.07190  Biso   1.000  H
  C208     1.0000 0.18170  0.05940  0.98810  Biso   1.000  C
  H252     1.0000 0.23270  0.06560  0.97970  Biso   1.000  H
  C209     1.0000 0.06330  0.07930  0.96350  Biso   1.000  C
  H253     1.0000 0.02740  0.09460  0.93250  Biso   1.000  H
  C210     1.0000 0.03820  0.05660  0.02450  Biso   1.000  C
  H254     1.0000 0.98740  0.05790  0.03500  Biso   1.000  H
  C211     1.0000 0.50730  0.89700  0.28870  Biso   1.000  C
  H255     1.0000 0.51760  0.87330  0.32930  Biso   1.000  H
  C212     1.0000 0.56540  0.92620  0.25230  Biso   1.000  C
  H256     1.0000 0.61330  0.92410  0.27080  Biso   1.000  H
  C213     1.0000 0.55700  0.95800  0.19080  Biso   1.000  C
  C214     1.0000 0.48380  0.96040  0.17050  Biso   1.000  C
  H257     1.0000 0.47090  0.98270  0.12980  Biso   1.000  H
  C215     1.0000 0.43030  0.93020  0.21010  Biso   1.000  C
  H258     1.0000 0.38170  0.93050  0.19280  Biso   1.000  H
  C216     1.0000 0.62330  0.95980  0.05000  Biso   1.000  C
  H259     1.0000 0.58060  0.92720  0.04510  Biso   1.000  H
  H260     1.0000 0.61860  0.00030  0.01850  Biso   1.000  H
  C217     1.0000 0.69600  0.91940  0.04080  Biso   1.000  C
  H261     1.0000 0.69950  0.90090  0.99550  Biso   1.000  H
  H262     1.0000 0.69880  0.87910  0.07210  Biso   1.000  H
  H263     1.0000 0.73740  0.95240  0.04910  Biso   1.000  H
  C218     1.0000 0.72510  0.95560  0.16740  Biso   1.000  C
  H264     1.0000 0.76090  0.95770  0.13050  Biso   1.000  H
  H265     1.0000 0.74440  0.98530  0.20420  Biso   1.000  H
  C219     1.0000 0.71600  0.87100  0.19200  Biso   1.000  C
  H266     1.0000 0.76450  0.84950  0.19800  Biso   1.000  H
  H267     1.0000 0.68790  0.84400  0.15940  Biso   1.000  H
  H268     1.0000 0.68960  0.87030  0.23480  Biso   1.000  H
  C220     1.0000 0.63680  0.09580  0.14240  Biso   1.000  C
  C221     1.0000 0.67830  0.13440  0.09730  Biso   1.000  C
  H269     1.0000 0.70390  0.10980  0.06310  Biso   1.000  H
  C222     1.0000 0.68250  0.20460  0.10150  Biso   1.000  C
  H270     1.0000 0.71210  0.22830  0.06940  Biso   1.000  H
  C223     1.0000 0.60730  0.21010  0.18900  Biso   1.000  C
  H271     1.0000 0.58250  0.23510  0.22340  Biso   1.000  H
  C224     1.0000 0.59820  0.13820  0.18580  Biso   1.000  C
  H272     1.0000 0.56380  0.11610  0.21460  Biso   1.000  H
