data_image0
_cell_length_a       18.094
_cell_length_b       18.445
_cell_length_c       20.183
_cell_angle_alpha    90
_cell_angle_beta     90
_cell_angle_gamma    90

_symmetry_space_group_name_H-M    "P 1"
_symmetry_int_tables_number       1

loop_
  _symmetry_equiv_pos_as_xyz
  'x, y, z'

loop_
  _atom_site_label
  _atom_site_occupancy
  _atom_site_fract_x
  _atom_site_fract_y
  _atom_site_fract_z
  _atom_site_thermal_displace_type
  _atom_site_B_iso_or_equiv
  _atom_site_type_symbol
  Ag1      1.0000 0.83987  0.37616  0.84512  Biso   1.000  Ag
  Si1      1.0000 0.95793  0.51640  0.14705  Biso   1.000  Si
  Si2      1.0000 0.12919  0.49597  0.63461  Biso   1.000  Si
  N1       1.0000 0.86990  0.42040  0.94630  Biso   1.000  N
  N2       1.0000 0.76120  0.58740  0.28610  Biso   1.000  N
  N3       1.0000 0.93860  0.40660  0.76850  Biso   1.000  N
  N4       1.0000 0.14270  0.75070  0.64180  Biso   1.000  N
  C1       1.0000 0.93630  0.41420  0.96440  Biso   1.000  C
  H1       1.0000 0.96950  0.38890  0.93630  Biso   1.000  H
  C2       1.0000 0.96370  0.44300  0.02450  Biso   1.000  C
  H2       1.0000 0.01450  0.43790  0.03550  Biso   1.000  H
  C3       1.0000 0.91710  0.47800  0.06650  Biso   1.000  C
  C4       1.0000 0.84880  0.48020  0.04650  Biso   1.000  C
  H3       1.0000 0.81390  0.50380  0.07430  Biso   1.000  H
  C5       1.0000 0.82410  0.45180  0.98970  Biso   1.000  C
  H4       1.0000 0.77280  0.45390  0.98000  Biso   1.000  H
  C6       1.0000 0.87470  0.54110  0.20210  Biso   1.000  C
  C7       1.0000 0.83330  0.60290  0.18780  Biso   1.000  C
  H5       1.0000 0.84220  0.63030  0.14870  Biso   1.000  H
  C8       1.0000 0.77910  0.62310  0.23200  Biso   1.000  C
  H6       1.0000 0.75250  0.66620  0.22270  Biso   1.000  H
  C9       1.0000 0.80060  0.52870  0.30020  Biso   1.000  C
  H7       1.0000 0.79090  0.50340  0.34030  Biso   1.000  H
  C10      1.0000 0.85460  0.50380  0.25890  Biso   1.000  C
  H8       1.0000 0.87910  0.45980  0.26940  Biso   1.000  H
  C11      1.0000 0.01800  0.44820  0.18500  Biso   1.000  C
  H9       1.0000 0.99540  0.43100  0.22680  Biso   1.000  H
  H10      1.0000 0.02260  0.40620  0.15480  Biso   1.000  H
  C12      1.0000 0.08980  0.47690  0.19860  Biso   1.000  C
  H11      1.0000 0.12050  0.43920  0.21890  Biso   1.000  H
  H12      1.0000 0.08550  0.51800  0.22900  Biso   1.000  H
  H13      1.0000 0.11270  0.49300  0.15720  Biso   1.000  H
  C13      1.0000 0.01730  0.59370  0.12570  Biso   1.000  C
  H14      1.0000 0.99050  0.62650  0.09600  Biso   1.000  H
  H15      1.0000 0.06210  0.57610  0.10360  Biso   1.000  H
  H16      1.0000 0.03100  0.61980  0.16620  Biso   1.000  H
  C14      1.0000 0.00700  0.40120  0.78780  Biso   1.000  C
  H17      1.0000 0.01760  0.37840  0.82900  Biso   1.000  H
  C15      1.0000 0.06640  0.42830  0.74890  Biso   1.000  C
  H18      1.0000 0.11580  0.42350  0.76440  Biso   1.000  H
  C16      1.0000 0.05330  0.46100  0.68950  Biso   1.000  C
  C17      1.0000 0.97960  0.46420  0.67190  Biso   1.000  C
  H19      1.0000 0.96630  0.48720  0.63160  Biso   1.000  H
  C18      1.0000 0.92610  0.43590  0.70970  Biso   1.000  C
  H20      1.0000 0.87680  0.43680  0.69360  Biso   1.000  H
  C19      1.0000 0.12850  0.59810  0.63740  Biso   1.000  C
  C20      1.0000 0.10100  0.63760  0.68740  Biso   1.000  C
  H21      1.0000 0.07680  0.61340  0.72290  Biso   1.000  H
  C21      1.0000 0.10670  0.71270  0.68910  Biso   1.000  C
  H22      1.0000 0.08450  0.73820  0.72480  Biso   1.000  H
  C22      1.0000 0.17210  0.71310  0.59230  Biso   1.000  C
  H23      1.0000 0.19700  0.73850  0.55800  Biso   1.000  H
  C23      1.0000 0.16790  0.63850  0.58890  Biso   1.000  C
  H24      1.0000 0.19170  0.61370  0.55360  Biso   1.000  H
  C24      1.0000 0.21860  0.46210  0.66580  Biso   1.000  C
  H25      1.0000 0.25320  0.50260  0.67430  Biso   1.000  H
  H26      1.0000 0.21200  0.43400  0.70720  Biso   1.000  H
  C25      1.0000 0.12540  0.46340  0.54840  Biso   1.000  C
  H27      1.0000 0.08430  0.42880  0.54110  Biso   1.000  H
  H28      1.0000 0.12210  0.50370  0.51620  Biso   1.000  H
  C26      1.0000 0.19620  0.42840  0.54700  Biso   1.000  C
  H29      1.0000 0.22730  0.45610  0.51560  Biso   1.000  H
  H30      1.0000 0.18860  0.37990  0.52720  Biso   1.000  H
  C27      1.0000 0.24480  0.41680  0.61320  Biso   1.000  C
  H31      1.0000 0.24190  0.36540  0.62710  Biso   1.000  H
  H32      1.0000 0.29710  0.42830  0.60380  Biso   1.000  H
  Ag2      1.0000 0.66013  0.62384  0.34512  Biso   1.000  Ag
  Si3      1.0000 0.54207  0.48360  0.64705  Biso   1.000  Si
  Si4      1.0000 0.37081  0.50403  0.13461  Biso   1.000  Si
  N5       1.0000 0.63010  0.57960  0.44630  Biso   1.000  N
  N6       1.0000 0.73880  0.41260  0.78610  Biso   1.000  N
  N7       1.0000 0.56140  0.59340  0.26850  Biso   1.000  N
  N8       1.0000 0.35730  0.24930  0.14180  Biso   1.000  N
  C28      1.0000 0.56370  0.58580  0.46440  Biso   1.000  C
  H33      1.0000 0.53050  0.61110  0.43630  Biso   1.000  H
  C29      1.0000 0.53630  0.55700  0.52450  Biso   1.000  C
  H34      1.0000 0.48550  0.56210  0.53550  Biso   1.000  H
  C30      1.0000 0.58290  0.52200  0.56650  Biso   1.000  C
  C31      1.0000 0.65120  0.51980  0.54650  Biso   1.000  C
  H35      1.0000 0.68610  0.49620  0.57430  Biso   1.000  H
  C32      1.0000 0.67590  0.54820  0.48970  Biso   1.000  C
  H36      1.0000 0.72720  0.54610  0.48000  Biso   1.000  H
  C33      1.0000 0.62530  0.45890  0.70210  Biso   1.000  C
  C34      1.0000 0.66670  0.39710  0.68780  Biso   1.000  C
  H37      1.0000 0.65780  0.36970  0.64870  Biso   1.000  H
  C35      1.0000 0.72090  0.37690  0.73200  Biso   1.000  C
  H38      1.0000 0.74750  0.33380  0.72270  Biso   1.000  H
  C36      1.0000 0.69940  0.47130  0.80020  Biso   1.000  C
  H39      1.0000 0.70910  0.49660  0.84030  Biso   1.000  H
  C37      1.0000 0.64540  0.49620  0.75890  Biso   1.000  C
  H40      1.0000 0.62090  0.54020  0.76940  Biso   1.000  H
  C38      1.0000 0.48200  0.55180  0.68500  Biso   1.000  C
  H41      1.0000 0.50460  0.56900  0.72680  Biso   1.000  H
  H42      1.0000 0.47740  0.59380  0.65480  Biso   1.000  H
  C39      1.0000 0.41020  0.52310  0.69860  Biso   1.000  C
  H43      1.0000 0.37950  0.56080  0.71890  Biso   1.000  H
  H44      1.0000 0.41450  0.48200  0.72900  Biso   1.000  H
  H45      1.0000 0.38730  0.50700  0.65720  Biso   1.000  H
  C40      1.0000 0.48270  0.40630  0.62570  Biso   1.000  C
  H46      1.0000 0.50950  0.37350  0.59600  Biso   1.000  H
  H47      1.0000 0.43790  0.42390  0.60360  Biso   1.000  H
  H48      1.0000 0.46900  0.38020  0.66620  Biso   1.000  H
  C41      1.0000 0.49300  0.59880  0.28780  Biso   1.000  C
  H49      1.0000 0.48240  0.62160  0.32900  Biso   1.000  H
  C42      1.0000 0.43360  0.57170  0.24890  Biso   1.000  C
  H50      1.0000 0.38420  0.57650  0.26440  Biso   1.000  H
  C43      1.0000 0.44670  0.53900  0.18950  Biso   1.000  C
  C44      1.0000 0.52040  0.53580  0.17190  Biso   1.000  C
  H51      1.0000 0.53370  0.51280  0.13160  Biso   1.000  H
  C45      1.0000 0.57390  0.56410  0.20970  Biso   1.000  C
  H52      1.0000 0.62320  0.56320  0.19360  Biso   1.000  H
  C46      1.0000 0.37150  0.40190  0.13740  Biso   1.000  C
  C47      1.0000 0.39900  0.36240  0.18740  Biso   1.000  C
  H53      1.0000 0.42320  0.38660  0.22290  Biso   1.000  H
  C48      1.0000 0.39330  0.28730  0.18910  Biso   1.000  C
  H54      1.0000 0.41550  0.26180  0.22480  Biso   1.000  H
  C49      1.0000 0.32790  0.28690  0.09230  Biso   1.000  C
  H55      1.0000 0.30300  0.26150  0.05800  Biso   1.000  H
  C50      1.0000 0.33210  0.36150  0.08890  Biso   1.000  C
  H56      1.0000 0.30830  0.38630  0.05360  Biso   1.000  H
  C51      1.0000 0.28140  0.53790  0.16580  Biso   1.000  C
  H57      1.0000 0.24680  0.49740  0.17430  Biso   1.000  H
  H58      1.0000 0.28800  0.56600  0.20720  Biso   1.000  H
  C52      1.0000 0.37460  0.53660  0.04840  Biso   1.000  C
  H59      1.0000 0.41570  0.57120  0.04110  Biso   1.000  H
  H60      1.0000 0.37790  0.49630  0.01620  Biso   1.000  H
  C53      1.0000 0.30380  0.57160  0.04700  Biso   1.000  C
  H61      1.0000 0.27270  0.54390  0.01560  Biso   1.000  H
  H62      1.0000 0.31140  0.62010  0.02720  Biso   1.000  H
  C54      1.0000 0.25520  0.58320  0.11320  Biso   1.000  C
  H63      1.0000 0.25810  0.63460  0.12710  Biso   1.000  H
  H64      1.0000 0.20290  0.57170  0.10380  Biso   1.000  H
  Ag3      1.0000 0.16013  0.87616  0.65488  Biso   1.000  Ag
  Si5      1.0000 0.04207  0.01640  0.35295  Biso   1.000  Si
  Si6      1.0000 0.87081  0.99597  0.86539  Biso   1.000  Si
  N9       1.0000 0.13010  0.92040  0.55370  Biso   1.000  N
  N10      1.0000 0.23880  0.08740  0.21390  Biso   1.000  N
  N11      1.0000 0.06140  0.90660  0.73150  Biso   1.000  N
  N12      1.0000 0.85730  0.25070  0.85820  Biso   1.000  N
  C55      1.0000 0.06370  0.91420  0.53560  Biso   1.000  C
  H65      1.0000 0.03050  0.88890  0.56370  Biso   1.000  H
  C56      1.0000 0.03630  0.94300  0.47550  Biso   1.000  C
  H66      1.0000 0.98550  0.93790  0.46450  Biso   1.000  H
  C57      1.0000 0.08290  0.97800  0.43350  Biso   1.000  C
  C58      1.0000 0.15120  0.98020  0.45350  Biso   1.000  C
  H67      1.0000 0.18610  0.00380  0.42570  Biso   1.000  H
  C59      1.0000 0.17590  0.95180  0.51030  Biso   1.000  C
  H68      1.0000 0.22720  0.95390  0.52000  Biso   1.000  H
  C60      1.0000 0.12530  0.04110  0.29790  Biso   1.000  C
  C61      1.0000 0.16670  0.10290  0.31220  Biso   1.000  C
  H69      1.0000 0.15780  0.13030  0.35130  Biso   1.000  H
  C62      1.0000 0.22090  0.12310  0.26800  Biso   1.000  C
  H70      1.0000 0.24750  0.16620  0.27730  Biso   1.000  H
  C63      1.0000 0.19940  0.02870  0.19980  Biso   1.000  C
  H71      1.0000 0.20910  0.00340  0.15970  Biso   1.000  H
  C64      1.0000 0.14540  0.00380  0.24110  Biso   1.000  C
  H72      1.0000 0.12090  0.95980  0.23060  Biso   1.000  H
  C65      1.0000 0.98200  0.94820  0.31500  Biso   1.000  C
  H73      1.0000 0.00460  0.93100  0.27320  Biso   1.000  H
  H74      1.0000 0.97740  0.90620  0.34520  Biso   1.000  H
  C66      1.0000 0.91020  0.97690  0.30140  Biso   1.000  C
  H75      1.0000 0.87950  0.93920  0.28110  Biso   1.000  H
  H76      1.0000 0.91450  0.01800  0.27100  Biso   1.000  H
  H77      1.0000 0.88730  0.99300  0.34280  Biso   1.000  H
  C67      1.0000 0.98270  0.09370  0.37430  Biso   1.000  C
  H78      1.0000 0.00950  0.12650  0.40400  Biso   1.000  H
  H79      1.0000 0.93790  0.07610  0.39640  Biso   1.000  H
  H80      1.0000 0.96900  0.11980  0.33380  Biso   1.000  H
  C68      1.0000 0.99300  0.90120  0.71220  Biso   1.000  C
  H81      1.0000 0.98240  0.87840  0.67100  Biso   1.000  H
  C69      1.0000 0.93360  0.92830  0.75110  Biso   1.000  C
  H82      1.0000 0.88420  0.92350  0.73560  Biso   1.000  H
  C70      1.0000 0.94670  0.96100  0.81050  Biso   1.000  C
  C71      1.0000 0.02040  0.96420  0.82810  Biso   1.000  C
  H83      1.0000 0.03370  0.98720  0.86840  Biso   1.000  H
  C72      1.0000 0.07390  0.93590  0.79030  Biso   1.000  C
  H84      1.0000 0.12320  0.93680  0.80640  Biso   1.000  H
  C73      1.0000 0.87150  0.09810  0.86260  Biso   1.000  C
  C74      1.0000 0.89900  0.13760  0.81260  Biso   1.000  C
  H85      1.0000 0.92320  0.11340  0.77710  Biso   1.000  H
  C75      1.0000 0.89330  0.21270  0.81090  Biso   1.000  C
  H86      1.0000 0.91550  0.23820  0.77520  Biso   1.000  H
  C76      1.0000 0.82790  0.21310  0.90770  Biso   1.000  C
  H87      1.0000 0.80300  0.23850  0.94200  Biso   1.000  H
  C77      1.0000 0.83210  0.13850  0.91110  Biso   1.000  C
  H88      1.0000 0.80830  0.11370  0.94640  Biso   1.000  H
  C78      1.0000 0.78140  0.96210  0.83420  Biso   1.000  C
  H89      1.0000 0.74680  0.00260  0.82570  Biso   1.000  H
  H90      1.0000 0.78800  0.93400  0.79280  Biso   1.000  H
  C79      1.0000 0.87460  0.96340  0.95160  Biso   1.000  C
  H91      1.0000 0.91570  0.92880  0.95890  Biso   1.000  H
  H92      1.0000 0.87790  0.00370  0.98380  Biso   1.000  H
  C80      1.0000 0.80380  0.92840  0.95300  Biso   1.000  C
  H93      1.0000 0.77270  0.95610  0.98440  Biso   1.000  H
  H94      1.0000 0.81140  0.87990  0.97280  Biso   1.000  H
  C81      1.0000 0.75520  0.91680  0.88680  Biso   1.000  C
  H95      1.0000 0.75810  0.86540  0.87290  Biso   1.000  H
  H96      1.0000 0.70290  0.92830  0.89620  Biso   1.000  H
  Ag4      1.0000 0.33987  0.12384  0.15488  Biso   1.000  Ag
  Si7      1.0000 0.45793  0.98360  0.85295  Biso   1.000  Si
  Si8      1.0000 0.62919  0.00403  0.36539  Biso   1.000  Si
  N13      1.0000 0.36990  0.07960  0.05370  Biso   1.000  N
  N14      1.0000 0.26120  0.91260  0.71390  Biso   1.000  N
  N15      1.0000 0.43860  0.09340  0.23150  Biso   1.000  N
  N16      1.0000 0.64270  0.74930  0.35820  Biso   1.000  N
  C82      1.0000 0.43630  0.08580  0.03560  Biso   1.000  C
  H97      1.0000 0.46950  0.11110  0.06370  Biso   1.000  H
  C83      1.0000 0.46370  0.05700  0.97550  Biso   1.000  C
  H98      1.0000 0.51450  0.06210  0.96450  Biso   1.000  H
  C84      1.0000 0.41710  0.02200  0.93350  Biso   1.000  C
  C85      1.0000 0.34880  0.01980  0.95350  Biso   1.000  C
  H99      1.0000 0.31390  0.99620  0.92570  Biso   1.000  H
  C86      1.0000 0.32410  0.04820  0.01030  Biso   1.000  C
  H100     1.0000 0.27280  0.04610  0.02000  Biso   1.000  H
  C87      1.0000 0.37470  0.95890  0.79790  Biso   1.000  C
  C88      1.0000 0.33330  0.89710  0.81220  Biso   1.000  C
  H101     1.0000 0.34220  0.86970  0.85130  Biso   1.000  H
  C89      1.0000 0.27910  0.87690  0.76800  Biso   1.000  C
  H102     1.0000 0.25250  0.83380  0.77730  Biso   1.000  H
  C90      1.0000 0.30060  0.97130  0.69980  Biso   1.000  C
  H103     1.0000 0.29090  0.99660  0.65970  Biso   1.000  H
  C91      1.0000 0.35460  0.99620  0.74110  Biso   1.000  C
  H104     1.0000 0.37910  0.04020  0.73060  Biso   1.000  H
  C92      1.0000 0.51800  0.05180  0.81500  Biso   1.000  C
  H105     1.0000 0.49540  0.06900  0.77320  Biso   1.000  H
  H106     1.0000 0.52260  0.09380  0.84520  Biso   1.000  H
  C93      1.0000 0.58980  0.02310  0.80140  Biso   1.000  C
  H107     1.0000 0.62050  0.06080  0.78110  Biso   1.000  H
  H108     1.0000 0.58550  0.98200  0.77100  Biso   1.000  H
  H109     1.0000 0.61270  0.00700  0.84280  Biso   1.000  H
  C94      1.0000 0.51730  0.90630  0.87430  Biso   1.000  C
  H110     1.0000 0.49050  0.87350  0.90400  Biso   1.000  H
  H111     1.0000 0.56210  0.92390  0.89640  Biso   1.000  H
  H112     1.0000 0.53100  0.88020  0.83380  Biso   1.000  H
  C95      1.0000 0.50700  0.09880  0.21220  Biso   1.000  C
  H113     1.0000 0.51760  0.12160  0.17100  Biso   1.000  H
  C96      1.0000 0.56640  0.07170  0.25110  Biso   1.000  C
  H114     1.0000 0.61580  0.07650  0.23560  Biso   1.000  H
  C97      1.0000 0.55330  0.03900  0.31050  Biso   1.000  C
  C98      1.0000 0.47960  0.03580  0.32810  Biso   1.000  C
  H115     1.0000 0.46630  0.01280  0.36840  Biso   1.000  H
  C99      1.0000 0.42610  0.06410  0.29030  Biso   1.000  C
  H116     1.0000 0.37680  0.06320  0.30640  Biso   1.000  H
  C100     1.0000 0.62850  0.90190  0.36260  Biso   1.000  C
  C101     1.0000 0.60100  0.86240  0.31260  Biso   1.000  C
  H117     1.0000 0.57680  0.88660  0.27710  Biso   1.000  H
  C102     1.0000 0.60670  0.78730  0.31090  Biso   1.000  C
  H118     1.0000 0.58450  0.76180  0.27520  Biso   1.000  H
  C103     1.0000 0.67210  0.78690  0.40770  Biso   1.000  C
  H119     1.0000 0.69700  0.76150  0.44200  Biso   1.000  H
  C104     1.0000 0.66790  0.86150  0.41110  Biso   1.000  C
  H120     1.0000 0.69170  0.88630  0.44640  Biso   1.000  H
  C105     1.0000 0.71860  0.03790  0.33420  Biso   1.000  C
  H121     1.0000 0.75320  0.99740  0.32570  Biso   1.000  H
  H122     1.0000 0.71200  0.06600  0.29280  Biso   1.000  H
  C106     1.0000 0.62540  0.03660  0.45160  Biso   1.000  C
  H123     1.0000 0.58430  0.07120  0.45890  Biso   1.000  H
  H124     1.0000 0.62210  0.99630  0.48380  Biso   1.000  H
  C107     1.0000 0.69620  0.07160  0.45300  Biso   1.000  C
  H125     1.0000 0.72730  0.04390  0.48440  Biso   1.000  H
  H126     1.0000 0.68860  0.12010  0.47280  Biso   1.000  H
  C108     1.0000 0.74480  0.08320  0.38680  Biso   1.000  C
  H127     1.0000 0.74190  0.13460  0.37290  Biso   1.000  H
  H128     1.0000 0.79710  0.07170  0.39620  Biso   1.000  H
  Ag5      1.0000 0.83315  0.86723  0.14911  Biso   1.000  Ag
  Si9      1.0000 0.44860  0.82810  0.13283  Biso   1.000  Si
  Si10     1.0000 0.96210  0.67640  0.42688  Biso   1.000  Si
  N17      1.0000 0.70720  0.85880  0.13720  Biso   1.000  N
  N18      1.0000 0.38230  0.70970  0.93540  Biso   1.000  N
  N19      1.0000 0.86880  0.79870  0.23880  Biso   1.000  N
  N20      1.0000 0.10200  0.47150  0.36030  Biso   1.000  N
  C109     1.0000 0.67530  0.79440  0.14060  Biso   1.000  C
  H129     1.0000 0.70620  0.75300  0.14470  Biso   1.000  H
  C110     1.0000 0.59810  0.78340  0.13860  Biso   1.000  C
  H130     1.0000 0.57870  0.73560  0.14000  Biso   1.000  H
  C111     1.0000 0.55060  0.84180  0.13470  Biso   1.000  C
  C112     1.0000 0.58480  0.90820  0.12860  Biso   1.000  C
  H131     1.0000 0.55540  0.95040  0.12280  Biso   1.000  H
  C113     1.0000 0.66120  0.91500  0.13090  Biso   1.000  C
  H132     1.0000 0.68190  0.96230  0.12780  Biso   1.000  H
  C114     1.0000 0.42720  0.78260  0.05190  Biso   1.000  C
  C115     1.0000 0.35430  0.77630  0.03560  Biso   1.000  C
  H133     1.0000 0.31750  0.79590  0.06400  Biso   1.000  H
  C116     1.0000 0.33320  0.74000  0.97540  Biso   1.000  C
  H134     1.0000 0.28230  0.73760  0.96400  Biso   1.000  H
  C117     1.0000 0.45200  0.71560  0.95470  Biso   1.000  C
  H135     1.0000 0.48920  0.69460  0.92750  Biso   1.000  H
  C118     1.0000 0.47330  0.74940  0.01040  Biso   1.000  C
  H136     1.0000 0.52450  0.74970  0.02090  Biso   1.000  H
  C119     1.0000 0.39710  0.90920  0.15750  Biso   1.000  C
  H137     1.0000 0.43030  0.94990  0.16940  Biso   1.000  H
  H138     1.0000 0.36190  0.92510  0.12290  Biso   1.000  H
  C120     1.0000 0.42030  0.77000  0.20200  Biso   1.000  C
  H139     1.0000 0.39040  0.72900  0.18540  Biso   1.000  H
  H140     1.0000 0.46440  0.75020  0.22460  Biso   1.000  H
  C121     1.0000 0.37770  0.81240  0.24760  Biso   1.000  C
  H141     1.0000 0.40650  0.82200  0.28840  Biso   1.000  H
  H142     1.0000 0.33180  0.78640  0.25990  Biso   1.000  H
  C122     1.0000 0.36010  0.87930  0.21460  Biso   1.000  C
  H143     1.0000 0.36280  0.91730  0.24920  Biso   1.000  H
  H144     1.0000 0.30740  0.87550  0.20200  Biso   1.000  H
  C123     1.0000 0.93110  0.76260  0.23780  Biso   1.000  C
  H145     1.0000 0.95980  0.76360  0.19840  Biso   1.000  H
  C124     1.0000 0.95730  0.72310  0.29110  Biso   1.000  C
  H146     1.0000 0.00180  0.69630  0.28640  Biso   1.000  H
  C125     1.0000 0.92060  0.72160  0.35060  Biso   1.000  C
  C126     1.0000 0.86010  0.76350  0.35100  Biso   1.000  C
  H147     1.0000 0.83400  0.76930  0.39150  Biso   1.000  H
  C127     1.0000 0.83530  0.79680  0.29810  Biso   1.000  C
  H148     1.0000 0.78960  0.82180  0.30210  Biso   1.000  H
  C128     1.0000 0.02010  0.59630  0.39830  Biso   1.000  C
  C129     1.0000 0.98830  0.52850  0.39290  Biso   1.000  C
  H149     1.0000 0.93710  0.52210  0.40150  Biso   1.000  H
  C130     1.0000 0.03260  0.46900  0.37460  Biso   1.000  C
  H150     1.0000 0.00930  0.42290  0.37250  Biso   1.000  H
  C131     1.0000 0.13380  0.53910  0.36600  Biso   1.000  C
  H151     1.0000 0.18530  0.54380  0.35790  Biso   1.000  H
  C132     1.0000 0.09440  0.59980  0.38280  Biso   1.000  C
  H152     1.0000 0.11870  0.64540  0.38390  Biso   1.000  H
  C133     1.0000 0.02450  0.73900  0.46980  Biso   1.000  C
  H153     1.0000 0.06370  0.75450  0.43940  Biso   1.000  H
  H154     1.0000 0.04660  0.71450  0.50810  Biso   1.000  H
  H155     1.0000 0.99670  0.78150  0.48490  Biso   1.000  H
  C134     1.0000 0.89360  0.64800  0.48830  Biso   1.000  C
  H156     1.0000 0.85490  0.68580  0.49080  Biso   1.000  H
  H157     1.0000 0.86960  0.60310  0.47200  Biso   1.000  H
  C135     1.0000 0.92040  0.63470  0.55400  Biso   1.000  C
  H158     1.0000 0.87910  0.62070  0.58270  Biso   1.000  H
  H159     1.0000 0.94360  0.67880  0.57140  Biso   1.000  H
  H160     1.0000 0.95690  0.59540  0.55290  Biso   1.000  H
  Ag6      1.0000 0.66685  0.13277  0.64911  Biso   1.000  Ag
  Si11     1.0000 0.05140  0.17190  0.63283  Biso   1.000  Si
  Si12     1.0000 0.53790  0.32360  0.92688  Biso   1.000  Si
  N21      1.0000 0.79280  0.14120  0.63720  Biso   1.000  N
  N22      1.0000 0.11770  0.29030  0.43540  Biso   1.000  N
  N23      1.0000 0.63120  0.20130  0.73880  Biso   1.000  N
  N24      1.0000 0.39800  0.52850  0.86030  Biso   1.000  N
  C136     1.0000 0.82470  0.20560  0.64060  Biso   1.000  C
  H161     1.0000 0.79380  0.24700  0.64470  Biso   1.000  H
  C137     1.0000 0.90190  0.21660  0.63860  Biso   1.000  C
  H162     1.0000 0.92130  0.26440  0.64000  Biso   1.000  H
  C138     1.0000 0.94940  0.15820  0.63470  Biso   1.000  C
  C139     1.0000 0.91520  0.09180  0.62860  Biso   1.000  C
  H163     1.0000 0.94460  0.04960  0.62280  Biso   1.000  H
  C140     1.0000 0.83880  0.08500  0.63090  Biso   1.000  C
  H164     1.0000 0.81810  0.03770  0.62780  Biso   1.000  H
  C141     1.0000 0.07280  0.21740  0.55190  Biso   1.000  C
  C142     1.0000 0.14570  0.22370  0.53560  Biso   1.000  C
  H165     1.0000 0.18250  0.20410  0.56400  Biso   1.000  H
  C143     1.0000 0.16680  0.26000  0.47540  Biso   1.000  C
  H166     1.0000 0.21770  0.26240  0.46400  Biso   1.000  H
  C144     1.0000 0.04800  0.28440  0.45470  Biso   1.000  C
  H167     1.0000 0.01080  0.30540  0.42750  Biso   1.000  H
  C145     1.0000 0.02670  0.25060  0.51040  Biso   1.000  C
  H168     1.0000 0.97550  0.25030  0.52090  Biso   1.000  H
  C146     1.0000 0.10290  0.09080  0.65750  Biso   1.000  C
  H169     1.0000 0.06970  0.05010  0.66940  Biso   1.000  H
  H170     1.0000 0.13810  0.07490  0.62290  Biso   1.000  H
  C147     1.0000 0.07970  0.23000  0.70200  Biso   1.000  C
  H171     1.0000 0.10960  0.27100  0.68540  Biso   1.000  H
  H172     1.0000 0.03560  0.24980  0.72460  Biso   1.000  H
  C148     1.0000 0.12230  0.18760  0.74760  Biso   1.000  C
  H173     1.0000 0.09350  0.17800  0.78840  Biso   1.000  H
  H174     1.0000 0.16820  0.21360  0.75990  Biso   1.000  H
  C149     1.0000 0.13990  0.12070  0.71460  Biso   1.000  C
  H175     1.0000 0.13720  0.08270  0.74920  Biso   1.000  H
  H176     1.0000 0.19260  0.12450  0.70200  Biso   1.000  H
  C150     1.0000 0.56890  0.23740  0.73780  Biso   1.000  C
  H177     1.0000 0.54020  0.23640  0.69840  Biso   1.000  H
  C151     1.0000 0.54270  0.27690  0.79110  Biso   1.000  C
  H178     1.0000 0.49820  0.30370  0.78640  Biso   1.000  H
  C152     1.0000 0.57940  0.27840  0.85060  Biso   1.000  C
  C153     1.0000 0.63990  0.23650  0.85100  Biso   1.000  C
  H179     1.0000 0.66600  0.23070  0.89150  Biso   1.000  H
  C154     1.0000 0.66470  0.20320  0.79810  Biso   1.000  C
  H180     1.0000 0.71040  0.17820  0.80210  Biso   1.000  H
  C155     1.0000 0.47990  0.40370  0.89830  Biso   1.000  C
  C156     1.0000 0.51170  0.47150  0.89290  Biso   1.000  C
  H181     1.0000 0.56290  0.47790  0.90150  Biso   1.000  H
  C157     1.0000 0.46740  0.53100  0.87460  Biso   1.000  C
  H182     1.0000 0.49070  0.57710  0.87250  Biso   1.000  H
  C158     1.0000 0.36620  0.46090  0.86600  Biso   1.000  C
  H183     1.0000 0.31470  0.45620  0.85790  Biso   1.000  H
  C159     1.0000 0.40560  0.40020  0.88280  Biso   1.000  C
  H184     1.0000 0.38130  0.35460  0.88390  Biso   1.000  H
  C160     1.0000 0.47550  0.26100  0.96980  Biso   1.000  C
  H185     1.0000 0.43630  0.24550  0.93940  Biso   1.000  H
  H186     1.0000 0.45340  0.28550  0.00810  Biso   1.000  H
  H187     1.0000 0.50330  0.21850  0.98490  Biso   1.000  H
  C161     1.0000 0.60640  0.35200  0.98830  Biso   1.000  C
  H188     1.0000 0.64510  0.31420  0.99080  Biso   1.000  H
  H189     1.0000 0.63040  0.39690  0.97200  Biso   1.000  H
  C162     1.0000 0.57960  0.36530  0.05400  Biso   1.000  C
  H190     1.0000 0.62090  0.37930  0.08270  Biso   1.000  H
  H191     1.0000 0.55640  0.32120  0.07140  Biso   1.000  H
  H192     1.0000 0.54310  0.40460  0.05290  Biso   1.000  H
  Ag7      1.0000 0.16685  0.36723  0.35089  Biso   1.000  Ag
  Si13     1.0000 0.55140  0.32810  0.36717  Biso   1.000  Si
  Si14     1.0000 0.03790  0.17640  0.07312  Biso   1.000  Si
  N25      1.0000 0.29280  0.35880  0.36280  Biso   1.000  N
  N26      1.0000 0.61770  0.20970  0.56460  Biso   1.000  N
  N27      1.0000 0.13120  0.29870  0.26120  Biso   1.000  N
  N28      1.0000 0.89800  0.97150  0.13970  Biso   1.000  N
  C163     1.0000 0.32470  0.29440  0.35940  Biso   1.000  C
  H193     1.0000 0.29380  0.25300  0.35530  Biso   1.000  H
  C164     1.0000 0.40190  0.28340  0.36140  Biso   1.000  C
  H194     1.0000 0.42130  0.23560  0.36000  Biso   1.000  H
  C165     1.0000 0.44940  0.34180  0.36530  Biso   1.000  C
  C166     1.0000 0.41520  0.40820  0.37140  Biso   1.000  C
  H195     1.0000 0.44460  0.45040  0.37720  Biso   1.000  H
  C167     1.0000 0.33880  0.41500  0.36910  Biso   1.000  C
  H196     1.0000 0.31810  0.46230  0.37220  Biso   1.000  H
  C168     1.0000 0.57280  0.28260  0.44810  Biso   1.000  C
  C169     1.0000 0.64570  0.27630  0.46440  Biso   1.000  C
  H197     1.0000 0.68250  0.29590  0.43600  Biso   1.000  H
  C170     1.0000 0.66680  0.24000  0.52460  Biso   1.000  C
  H198     1.0000 0.71770  0.23760  0.53600  Biso   1.000  H
  C171     1.0000 0.54800  0.21560  0.54530  Biso   1.000  C
  H199     1.0000 0.51080  0.19460  0.57250  Biso   1.000  H
  C172     1.0000 0.52670  0.24940  0.48960  Biso   1.000  C
  H200     1.0000 0.47550  0.24970  0.47910  Biso   1.000  H
  C173     1.0000 0.60290  0.40920  0.34250  Biso   1.000  C
  H201     1.0000 0.56970  0.44990  0.33060  Biso   1.000  H
  H202     1.0000 0.63810  0.42510  0.37710  Biso   1.000  H
  C174     1.0000 0.57970  0.27000  0.29800  Biso   1.000  C
  H203     1.0000 0.60960  0.22900  0.31460  Biso   1.000  H
  H204     1.0000 0.53560  0.25020  0.27540  Biso   1.000  H
  C175     1.0000 0.62230  0.31240  0.25240  Biso   1.000  C
  H205     1.0000 0.59350  0.32200  0.21160  Biso   1.000  H
  H206     1.0000 0.66820  0.28640  0.24010  Biso   1.000  H
  C176     1.0000 0.63990  0.37930  0.28540  Biso   1.000  C
  H207     1.0000 0.63720  0.41730  0.25080  Biso   1.000  H
  H208     1.0000 0.69260  0.37550  0.29800  Biso   1.000  H
  C177     1.0000 0.06890  0.26260  0.26220  Biso   1.000  C
  H209     1.0000 0.04020  0.26360  0.30160  Biso   1.000  H
  C178     1.0000 0.04270  0.22310  0.20890  Biso   1.000  C
  H210     1.0000 0.99820  0.19630  0.21360  Biso   1.000  H
  C179     1.0000 0.07940  0.22160  0.14940  Biso   1.000  C
  C180     1.0000 0.13990  0.26350  0.14900  Biso   1.000  C
  H211     1.0000 0.16600  0.26930  0.10850  Biso   1.000  H
  C181     1.0000 0.16470  0.29680  0.20190  Biso   1.000  C
  H212     1.0000 0.21040  0.32180  0.19790  Biso   1.000  H
  C182     1.0000 0.97990  0.09630  0.10170  Biso   1.000  C
  C183     1.0000 0.01170  0.02850  0.10710  Biso   1.000  C
  H213     1.0000 0.06290  0.02210  0.09850  Biso   1.000  H
  C184     1.0000 0.96740  0.96900  0.12540  Biso   1.000  C
  H214     1.0000 0.99070  0.92290  0.12750  Biso   1.000  H
  C185     1.0000 0.86620  0.03910  0.13400  Biso   1.000  C
  H215     1.0000 0.81470  0.04380  0.14210  Biso   1.000  H
  C186     1.0000 0.90560  0.09980  0.11720  Biso   1.000  C
  H216     1.0000 0.88130  0.14540  0.11610  Biso   1.000  H
  C187     1.0000 0.97550  0.23900  0.03020  Biso   1.000  C
  H217     1.0000 0.93630  0.25450  0.06060  Biso   1.000  H
  H218     1.0000 0.95340  0.21450  0.99190  Biso   1.000  H
  H219     1.0000 0.00330  0.28150  0.01510  Biso   1.000  H
  C188     1.0000 0.10640  0.14800  0.01170  Biso   1.000  C
  H220     1.0000 0.14510  0.18580  0.00920  Biso   1.000  H
  H221     1.0000 0.13040  0.10310  0.02800  Biso   1.000  H
  C189     1.0000 0.07960  0.13470  0.94600  Biso   1.000  C
  H222     1.0000 0.12090  0.12070  0.91730  Biso   1.000  H
  H223     1.0000 0.05640  0.17880  0.92860  Biso   1.000  H
  H224     1.0000 0.04310  0.09540  0.94710  Biso   1.000  H
  Ag8      1.0000 0.33315  0.63277  0.85089  Biso   1.000  Ag
  Si15     1.0000 0.94860  0.67190  0.86717  Biso   1.000  Si
  Si16     1.0000 0.46210  0.82360  0.57312  Biso   1.000  Si
  N29      1.0000 0.20720  0.64120  0.86280  Biso   1.000  N
  N30      1.0000 0.88230  0.79030  0.06460  Biso   1.000  N
  N31      1.0000 0.36880  0.70130  0.76120  Biso   1.000  N
  N32      1.0000 0.60200  0.02850  0.63970  Biso   1.000  N
  C190     1.0000 0.17530  0.70560  0.85940  Biso   1.000  C
  H225     1.0000 0.20620  0.74700  0.85530  Biso   1.000  H
  C191     1.0000 0.09810  0.71660  0.86140  Biso   1.000  C
  H226     1.0000 0.07870  0.76440  0.86000  Biso   1.000  H
  C192     1.0000 0.05060  0.65820  0.86530  Biso   1.000  C
  C193     1.0000 0.08480  0.59180  0.87140  Biso   1.000  C
  H227     1.0000 0.05540  0.54960  0.87720  Biso   1.000  H
  C194     1.0000 0.16120  0.58500  0.86910  Biso   1.000  C
  H228     1.0000 0.18190  0.53770  0.87220  Biso   1.000  H
  C195     1.0000 0.92720  0.71740  0.94810  Biso   1.000  C
  C196     1.0000 0.85430  0.72370  0.96440  Biso   1.000  C
  H229     1.0000 0.81750  0.70410  0.93600  Biso   1.000  H
  C197     1.0000 0.83320  0.76000  0.02460  Biso   1.000  C
  H230     1.0000 0.78230  0.76240  0.03600  Biso   1.000  H
  C198     1.0000 0.95200  0.78440  0.04530  Biso   1.000  C
  H231     1.0000 0.98920  0.80540  0.07250  Biso   1.000  H
  C199     1.0000 0.97330  0.75060  0.98960  Biso   1.000  C
  H232     1.0000 0.02450  0.75030  0.97910  Biso   1.000  H
  C200     1.0000 0.89710  0.59080  0.84250  Biso   1.000  C
  H233     1.0000 0.93030  0.55010  0.83060  Biso   1.000  H
  H234     1.0000 0.86190  0.57490  0.87710  Biso   1.000  H
  C201     1.0000 0.92030  0.73000  0.79800  Biso   1.000  C
  H235     1.0000 0.89040  0.77100  0.81460  Biso   1.000  H
  H236     1.0000 0.96440  0.74980  0.77540  Biso   1.000  H
  C202     1.0000 0.87770  0.68760  0.75240  Biso   1.000  C
  H237     1.0000 0.90650  0.67800  0.71160  Biso   1.000  H
  H238     1.0000 0.83180  0.71360  0.74010  Biso   1.000  H
  C203     1.0000 0.86010  0.62070  0.78540  Biso   1.000  C
  H239     1.0000 0.86280  0.58270  0.75080  Biso   1.000  H
  H240     1.0000 0.80740  0.62450  0.79800  Biso   1.000  H
  C204     1.0000 0.43110  0.73740  0.76220  Biso   1.000  C
  H241     1.0000 0.45980  0.73640  0.80160  Biso   1.000  H
  C205     1.0000 0.45730  0.77690  0.70890  Biso   1.000  C
  H242     1.0000 0.50180  0.80370  0.71360  Biso   1.000  H
  C206     1.0000 0.42060  0.77840  0.64940  Biso   1.000  C
  C207     1.0000 0.36010  0.73650  0.64900  Biso   1.000  C
  H243     1.0000 0.33400  0.73070  0.60850  Biso   1.000  H
  C208     1.0000 0.33530  0.70320  0.70190  Biso   1.000  C
  H244     1.0000 0.28960  0.67820  0.69790  Biso   1.000  H
  C209     1.0000 0.52010  0.90370  0.60170  Biso   1.000  C
  C210     1.0000 0.48830  0.97150  0.60710  Biso   1.000  C
  H245     1.0000 0.43710  0.97790  0.59850  Biso   1.000  H
  C211     1.0000 0.53260  0.03100  0.62540  Biso   1.000  C
  H246     1.0000 0.50930  0.07710  0.62750  Biso   1.000  H
  C212     1.0000 0.63380  0.96090  0.63400  Biso   1.000  C
  H247     1.0000 0.68530  0.95620  0.64210  Biso   1.000  H
  C213     1.0000 0.59440  0.90020  0.61720  Biso   1.000  C
  H248     1.0000 0.61870  0.85460  0.61610  Biso   1.000  H
  C214     1.0000 0.52450  0.76100  0.53020  Biso   1.000  C
  H249     1.0000 0.56370  0.74550  0.56060  Biso   1.000  H
  H250     1.0000 0.54660  0.78550  0.49190  Biso   1.000  H
  H251     1.0000 0.49670  0.71850  0.51510  Biso   1.000  H
  C215     1.0000 0.39360  0.85200  0.51170  Biso   1.000  C
  H252     1.0000 0.35490  0.81420  0.50920  Biso   1.000  H
  H253     1.0000 0.36960  0.89690  0.52800  Biso   1.000  H
  C216     1.0000 0.42040  0.86530  0.44600  Biso   1.000  C
  H254     1.0000 0.37910  0.87930  0.41730  Biso   1.000  H
  H255     1.0000 0.44360  0.82120  0.42860  Biso   1.000  H
  H256     1.0000 0.45690  0.90460  0.44710  Biso   1.000  H
