data_image0
_cell_length_a       10.1842
_cell_length_b       9.9803
_cell_length_c       10.4375
_cell_angle_alpha    90
_cell_angle_beta     92.312
_cell_angle_gamma    90

_symmetry_space_group_name_H-M    "P 1"
_symmetry_int_tables_number       1

loop_
  _symmetry_equiv_pos_as_xyz
  'x, y, z'

loop_
  _atom_site_label
  _atom_site_occupancy
  _atom_site_fract_x
  _atom_site_fract_y
  _atom_site_fract_z
  _atom_site_thermal_displace_type
  _atom_site_B_iso_or_equiv
  _atom_site_type_symbol
  Zn1      1.0000 0.87228  0.28857  0.12108  Biso   1.000  Zn
  Zn2      1.0000 0.58306  0.23746  0.39869  Biso   1.000  Zn
  Zn3      1.0000 0.36264  0.46405  0.10714  Biso   1.000  Zn
  Zn4      1.0000 0.07918  0.57307  0.37521  Biso   1.000  Zn
  P1       1.0000 0.06746  0.53283  0.07053  Biso   1.000  P
  P2       1.0000 0.88373  0.32379  0.43132  Biso   1.000  P
  P3       1.0000 0.38551  0.49048  0.41235  Biso   1.000  P
  P4       1.0000 0.57183  0.21628  0.09412  Biso   1.000  P
  O1       1.0000 0.93620  0.45740  0.06190  Biso   1.000  O
  O2       1.0000 0.90800  0.25730  0.30200  Biso   1.000  O
  O3       1.0000 0.68450  0.31360  0.06300  Biso   1.000  O
  O4       1.0000 0.06910  0.62430  0.95450  Biso   1.000  O
  O5       1.0000 0.59670  0.15840  0.22850  Biso   1.000  O
  O6       1.0000 0.43020  0.34520  0.42420  Biso   1.000  O
  O7       1.0000 0.46740  0.57940  0.50370  Biso   1.000  O
  O8       1.0000 0.73710  0.33150  0.45720  Biso   1.000  O
  O9       1.0000 0.44070  0.29080  0.08320  Biso   1.000  O
  O10      1.0000 0.56160  0.10090  0.99850  Biso   1.000  O
  O11      1.0000 0.39820  0.54300  0.27550  Biso   1.000  O
  O12      1.0000 0.17910  0.42990  0.07000  Biso   1.000  O
  O13      1.0000 0.93470  0.46850  0.43510  Biso   1.000  O
  O14      1.0000 0.95650  0.24240  0.53670  Biso   1.000  O
  O15      1.0000 0.23920  0.49250  0.44810  Biso   1.000  O
  O16      1.0000 0.07660  0.61810  0.19380  Biso   1.000  O
  Zn5      1.0000 0.12772  0.78857  0.87892  Biso   1.000  Zn
  Zn6      1.0000 0.41694  0.73746  0.60131  Biso   1.000  Zn
  Zn7      1.0000 0.63736  0.96405  0.89286  Biso   1.000  Zn
  Zn8      1.0000 0.92082  0.07307  0.62479  Biso   1.000  Zn
  P5       1.0000 0.93254  0.03283  0.92947  Biso   1.000  P
  P6       1.0000 0.11627  0.82379  0.56868  Biso   1.000  P
  P7       1.0000 0.61449  0.99048  0.58765  Biso   1.000  P
  P8       1.0000 0.42817  0.71628  0.90588  Biso   1.000  P
  O17      1.0000 0.06380  0.95740  0.93810  Biso   1.000  O
  O18      1.0000 0.09200  0.75730  0.69800  Biso   1.000  O
  O19      1.0000 0.31550  0.81360  0.93700  Biso   1.000  O
  O20      1.0000 0.93090  0.12430  0.04550  Biso   1.000  O
  O21      1.0000 0.40330  0.65840  0.77150  Biso   1.000  O
  O22      1.0000 0.56980  0.84520  0.57580  Biso   1.000  O
  O23      1.0000 0.53260  0.07940  0.49630  Biso   1.000  O
  O24      1.0000 0.26290  0.83150  0.54280  Biso   1.000  O
  O25      1.0000 0.55930  0.79080  0.91680  Biso   1.000  O
  O26      1.0000 0.43840  0.60090  0.00150  Biso   1.000  O
  O27      1.0000 0.60180  0.04300  0.72450  Biso   1.000  O
  O28      1.0000 0.82090  0.92990  0.93000  Biso   1.000  O
  O29      1.0000 0.06530  0.96850  0.56490  Biso   1.000  O
  O30      1.0000 0.04350  0.74240  0.46330  Biso   1.000  O
  O31      1.0000 0.76080  0.99250  0.55190  Biso   1.000  O
  O32      1.0000 0.92340  0.11810  0.80620  Biso   1.000  O
