data_image0
_cell_length_a       25.297
_cell_length_b       4.8861
_cell_length_c       24.268
_cell_angle_alpha    90
_cell_angle_beta     118.285
_cell_angle_gamma    90

_symmetry_space_group_name_H-M    "P 1"
_symmetry_int_tables_number       1

loop_
  _symmetry_equiv_pos_as_xyz
  'x, y, z'

loop_
  _atom_site_label
  _atom_site_occupancy
  _atom_site_fract_x
  _atom_site_fract_y
  _atom_site_fract_z
  _atom_site_thermal_displace_type
  _atom_site_B_iso_or_equiv
  _atom_site_type_symbol
  Be1      1.0000 0.18225  0.32400  0.74803  Biso   1.000  Be
  Be2      1.0000 0.05909  0.33980  0.84070  Biso   1.000  Be
  Be3      1.0000 0.26266  0.48310  0.07207  Biso   1.000  Be
  P1       1.0000 0.23952  0.83772  0.81549  Biso   1.000  P
  P2       1.0000 0.06601  0.51133  0.72543  Biso   1.000  P
  P3       1.0000 0.17740  0.52270  0.93460  Biso   1.000  P
  O1       1.0000 0.21750  0.53390  0.81191  Biso   1.000  O
  O2       1.0000 0.26617  0.93040  0.88371  Biso   1.000  O
  O3       1.0000 0.28771  0.85390  0.79629  Biso   1.000  O
  O4       1.0000 0.18500  0.01330  0.77367  Biso   1.000  O
  O5       1.0000 0.11361  0.41570  0.70884  Biso   1.000  O
  O6       1.0000 0.06912  0.83320  0.73025  Biso   1.000  O
  H1       1.0000 0.10420  0.88280  0.74500  Biso   1.000  H
  O7       1.0000 0.00388  0.46190  0.67146  Biso   1.000  O
  O8       1.0000 0.07575  0.39370  0.78611  Biso   1.000  O
  O9       1.0000 0.11163  0.45010  0.90621  Biso   1.000  O
  O10      1.0000 0.20735  0.45920  0.00346  Biso   1.000  O
  O11      1.0000 0.20933  0.34060  0.90469  Biso   1.000  O
  O12      1.0000 0.18362  0.82090  0.92030  Biso   1.000  O
  O13      1.0000 0.05656  0.00610  0.85164  Biso   1.000  O
  H2       1.0000 0.05390  0.97960  0.88360  Biso   1.000  H
  Be4      1.0000 0.68225  0.82400  0.74803  Biso   1.000  Be
  Be5      1.0000 0.55909  0.83980  0.84070  Biso   1.000  Be
  Be6      1.0000 0.76266  0.98310  0.07207  Biso   1.000  Be
  P4       1.0000 0.73952  0.33772  0.81549  Biso   1.000  P
  P5       1.0000 0.56601  0.01133  0.72543  Biso   1.000  P
  P6       1.0000 0.67740  0.02270  0.93460  Biso   1.000  P
  O14      1.0000 0.71750  0.03390  0.81191  Biso   1.000  O
  O15      1.0000 0.76617  0.43040  0.88371  Biso   1.000  O
  O16      1.0000 0.78771  0.35390  0.79629  Biso   1.000  O
  O17      1.0000 0.68500  0.51330  0.77367  Biso   1.000  O
  O18      1.0000 0.61361  0.91570  0.70884  Biso   1.000  O
  O19      1.0000 0.56912  0.33320  0.73025  Biso   1.000  O
  H3       1.0000 0.60420  0.38280  0.74500  Biso   1.000  H
  O20      1.0000 0.50388  0.96190  0.67146  Biso   1.000  O
  O21      1.0000 0.57575  0.89370  0.78611  Biso   1.000  O
  O22      1.0000 0.61163  0.95010  0.90621  Biso   1.000  O
  O23      1.0000 0.70735  0.95920  0.00346  Biso   1.000  O
  O24      1.0000 0.70933  0.84060  0.90469  Biso   1.000  O
  O25      1.0000 0.68362  0.32090  0.92030  Biso   1.000  O
  O26      1.0000 0.55656  0.50610  0.85164  Biso   1.000  O
  H4       1.0000 0.55390  0.47960  0.88360  Biso   1.000  H
  Be7      1.0000 0.81775  0.32400  0.75197  Biso   1.000  Be
  Be8      1.0000 0.94091  0.33980  0.65930  Biso   1.000  Be
  Be9      1.0000 0.73734  0.48310  0.42793  Biso   1.000  Be
  P7       1.0000 0.76048  0.83772  0.68451  Biso   1.000  P
  P8       1.0000 0.93399  0.51133  0.77457  Biso   1.000  P
  P9       1.0000 0.82260  0.52270  0.56540  Biso   1.000  P
  O27      1.0000 0.78250  0.53390  0.68809  Biso   1.000  O
  O28      1.0000 0.73383  0.93040  0.61629  Biso   1.000  O
  O29      1.0000 0.71229  0.85390  0.70371  Biso   1.000  O
  O30      1.0000 0.81500  0.01330  0.72633  Biso   1.000  O
  O31      1.0000 0.88639  0.41570  0.79116  Biso   1.000  O
  O32      1.0000 0.93088  0.83320  0.76975  Biso   1.000  O
  H5       1.0000 0.89580  0.88280  0.75500  Biso   1.000  H
  O33      1.0000 0.99612  0.46190  0.82854  Biso   1.000  O
  O34      1.0000 0.92425  0.39370  0.71389  Biso   1.000  O
  O35      1.0000 0.88837  0.45010  0.59379  Biso   1.000  O
  O36      1.0000 0.79265  0.45920  0.49654  Biso   1.000  O
  O37      1.0000 0.79067  0.34060  0.59531  Biso   1.000  O
  O38      1.0000 0.81638  0.82090  0.57970  Biso   1.000  O
  O39      1.0000 0.94344  0.00610  0.64836  Biso   1.000  O
  H6       1.0000 0.94610  0.97960  0.61640  Biso   1.000  H
  Be10     1.0000 0.31775  0.82400  0.75197  Biso   1.000  Be
  Be11     1.0000 0.44091  0.83980  0.65930  Biso   1.000  Be
  Be12     1.0000 0.23734  0.98310  0.42793  Biso   1.000  Be
  P10      1.0000 0.26048  0.33772  0.68451  Biso   1.000  P
  P11      1.0000 0.43399  0.01133  0.77457  Biso   1.000  P
  P12      1.0000 0.32260  0.02270  0.56540  Biso   1.000  P
  O40      1.0000 0.28250  0.03390  0.68809  Biso   1.000  O
  O41      1.0000 0.23383  0.43040  0.61629  Biso   1.000  O
  O42      1.0000 0.21229  0.35390  0.70371  Biso   1.000  O
  O43      1.0000 0.31500  0.51330  0.72633  Biso   1.000  O
  O44      1.0000 0.38639  0.91570  0.79116  Biso   1.000  O
  O45      1.0000 0.43088  0.33320  0.76975  Biso   1.000  O
  H7       1.0000 0.39580  0.38280  0.75500  Biso   1.000  H
  O46      1.0000 0.49612  0.96190  0.82854  Biso   1.000  O
  O47      1.0000 0.42425  0.89370  0.71389  Biso   1.000  O
  O48      1.0000 0.38837  0.95010  0.59379  Biso   1.000  O
  O49      1.0000 0.29265  0.95920  0.49654  Biso   1.000  O
  O50      1.0000 0.29067  0.84060  0.59531  Biso   1.000  O
  O51      1.0000 0.31638  0.32090  0.57970  Biso   1.000  O
  O52      1.0000 0.44344  0.50610  0.64836  Biso   1.000  O
  H8       1.0000 0.44610  0.47960  0.61640  Biso   1.000  H
  Be13     1.0000 0.81775  0.67600  0.25197  Biso   1.000  Be
  Be14     1.0000 0.94091  0.66020  0.15930  Biso   1.000  Be
  Be15     1.0000 0.73734  0.51690  0.92793  Biso   1.000  Be
  P13      1.0000 0.76048  0.16228  0.18451  Biso   1.000  P
  P14      1.0000 0.93399  0.48867  0.27457  Biso   1.000  P
  P15      1.0000 0.82260  0.47730  0.06540  Biso   1.000  P
  O53      1.0000 0.78250  0.46610  0.18809  Biso   1.000  O
  O54      1.0000 0.73383  0.06960  0.11629  Biso   1.000  O
  O55      1.0000 0.71229  0.14610  0.20371  Biso   1.000  O
  O56      1.0000 0.81500  0.98670  0.22633  Biso   1.000  O
  O57      1.0000 0.88639  0.58430  0.29116  Biso   1.000  O
  O58      1.0000 0.93088  0.16680  0.26975  Biso   1.000  O
  H9       1.0000 0.89580  0.11720  0.25500  Biso   1.000  H
  O59      1.0000 0.99612  0.53810  0.32854  Biso   1.000  O
  O60      1.0000 0.92425  0.60630  0.21389  Biso   1.000  O
  O61      1.0000 0.88837  0.54990  0.09379  Biso   1.000  O
  O62      1.0000 0.79265  0.54080  0.99654  Biso   1.000  O
  O63      1.0000 0.79067  0.65940  0.09531  Biso   1.000  O
  O64      1.0000 0.81638  0.17910  0.07970  Biso   1.000  O
  O65      1.0000 0.94344  0.99390  0.14836  Biso   1.000  O
  H10      1.0000 0.94610  0.02040  0.11640  Biso   1.000  H
  Be16     1.0000 0.31775  0.17600  0.25197  Biso   1.000  Be
  Be17     1.0000 0.44091  0.16020  0.15930  Biso   1.000  Be
  Be18     1.0000 0.23734  0.01690  0.92793  Biso   1.000  Be
  P16      1.0000 0.26048  0.66228  0.18451  Biso   1.000  P
  P17      1.0000 0.43399  0.98867  0.27457  Biso   1.000  P
  P18      1.0000 0.32260  0.97730  0.06540  Biso   1.000  P
  O66      1.0000 0.28250  0.96610  0.18809  Biso   1.000  O
  O67      1.0000 0.23383  0.56960  0.11629  Biso   1.000  O
  O68      1.0000 0.21229  0.64610  0.20371  Biso   1.000  O
  O69      1.0000 0.31500  0.48670  0.22633  Biso   1.000  O
  O70      1.0000 0.38639  0.08430  0.29116  Biso   1.000  O
  O71      1.0000 0.43088  0.66680  0.26975  Biso   1.000  O
  H11      1.0000 0.39580  0.61720  0.25500  Biso   1.000  H
  O72      1.0000 0.49612  0.03810  0.32854  Biso   1.000  O
  O73      1.0000 0.42425  0.10630  0.21389  Biso   1.000  O
  O74      1.0000 0.38837  0.04990  0.09379  Biso   1.000  O
  O75      1.0000 0.29265  0.04080  0.99654  Biso   1.000  O
  O76      1.0000 0.29067  0.15940  0.09531  Biso   1.000  O
  O77      1.0000 0.31638  0.67910  0.07970  Biso   1.000  O
  O78      1.0000 0.44344  0.49390  0.14836  Biso   1.000  O
  H12      1.0000 0.44610  0.52040  0.11640  Biso   1.000  H
  Be19     1.0000 0.18225  0.67600  0.24803  Biso   1.000  Be
  Be20     1.0000 0.05909  0.66020  0.34070  Biso   1.000  Be
  Be21     1.0000 0.26266  0.51690  0.57207  Biso   1.000  Be
  P19      1.0000 0.23952  0.16228  0.31549  Biso   1.000  P
  P20      1.0000 0.06601  0.48867  0.22543  Biso   1.000  P
  P21      1.0000 0.17740  0.47730  0.43460  Biso   1.000  P
  O79      1.0000 0.21750  0.46610  0.31191  Biso   1.000  O
  O80      1.0000 0.26617  0.06960  0.38371  Biso   1.000  O
  O81      1.0000 0.28771  0.14610  0.29629  Biso   1.000  O
  O82      1.0000 0.18500  0.98670  0.27367  Biso   1.000  O
  O83      1.0000 0.11361  0.58430  0.20884  Biso   1.000  O
  O84      1.0000 0.06912  0.16680  0.23025  Biso   1.000  O
  H13      1.0000 0.10420  0.11720  0.24500  Biso   1.000  H
  O85      1.0000 0.00388  0.53810  0.17146  Biso   1.000  O
  O86      1.0000 0.07575  0.60630  0.28611  Biso   1.000  O
  O87      1.0000 0.11163  0.54990  0.40621  Biso   1.000  O
  O88      1.0000 0.20735  0.54080  0.50346  Biso   1.000  O
  O89      1.0000 0.20933  0.65940  0.40469  Biso   1.000  O
  O90      1.0000 0.18362  0.17910  0.42030  Biso   1.000  O
  O91      1.0000 0.05656  0.99390  0.35164  Biso   1.000  O
  H14      1.0000 0.05390  0.02040  0.38360  Biso   1.000  H
  Be22     1.0000 0.68225  0.17600  0.24803  Biso   1.000  Be
  Be23     1.0000 0.55909  0.16020  0.34070  Biso   1.000  Be
  Be24     1.0000 0.76266  0.01690  0.57207  Biso   1.000  Be
  P22      1.0000 0.73952  0.66228  0.31549  Biso   1.000  P
  P23      1.0000 0.56601  0.98867  0.22543  Biso   1.000  P
  P24      1.0000 0.67740  0.97730  0.43460  Biso   1.000  P
  O92      1.0000 0.71750  0.96610  0.31191  Biso   1.000  O
  O93      1.0000 0.76617  0.56960  0.38371  Biso   1.000  O
  O94      1.0000 0.78771  0.64610  0.29629  Biso   1.000  O
  O95      1.0000 0.68500  0.48670  0.27367  Biso   1.000  O
  O96      1.0000 0.61361  0.08430  0.20884  Biso   1.000  O
  O97      1.0000 0.56912  0.66680  0.23025  Biso   1.000  O
  H15      1.0000 0.60420  0.61720  0.24500  Biso   1.000  H
  O98      1.0000 0.50388  0.03810  0.17146  Biso   1.000  O
  O99      1.0000 0.57575  0.10630  0.28611  Biso   1.000  O
  O100     1.0000 0.61163  0.04990  0.40621  Biso   1.000  O
  O101     1.0000 0.70735  0.04080  0.50346  Biso   1.000  O
  O102     1.0000 0.70933  0.15940  0.40469  Biso   1.000  O
  O103     1.0000 0.68362  0.67910  0.42030  Biso   1.000  O
  O104     1.0000 0.55656  0.49390  0.35164  Biso   1.000  O
  H16      1.0000 0.55390  0.52040  0.38360  Biso   1.000  H
