data_image0
_cell_length_a       22.0935
_cell_length_b       16.2897
_cell_length_c       25.6306
_cell_angle_alpha    90
_cell_angle_beta     115.277
_cell_angle_gamma    90

_symmetry_space_group_name_H-M    "P 1"
_symmetry_int_tables_number       1

loop_
  _symmetry_equiv_pos_as_xyz
  'x, y, z'

loop_
  _atom_site_label
  _atom_site_occupancy
  _atom_site_fract_x
  _atom_site_fract_y
  _atom_site_fract_z
  _atom_site_thermal_displace_type
  _atom_site_B_iso_or_equiv
  _atom_site_type_symbol
  Ag1      1.0000 0.34389  0.54296  0.36775  Biso   1.000  Ag
  Ag2      1.0000 0.82289  0.74813  0.86721  Biso   1.000  Ag
  N1       1.0000 0.73840  0.82240  0.56321  Biso   1.000  N
  N2       1.0000 0.27990  0.31310  0.92128  Biso   1.000  N
  N3       1.0000 0.12260  0.53710  0.05882  Biso   1.000  N
  N4       1.0000 0.43920  0.61580  0.41221  Biso   1.000  N
  N5       1.0000 0.91320  0.65780  0.90741  Biso   1.000  N
  C1       1.0000 0.62370  0.74280  0.50240  Biso   1.000  C
  N6       1.0000 0.12630  0.48890  0.97322  Biso   1.000  N
  N7       1.0000 0.64810  0.78980  0.47281  Biso   1.000  N
  C2       1.0000 0.73510  0.93510  0.38810  Biso   1.000  C
  H1       1.0000 0.71310  0.94220  0.34840  Biso   1.000  H
  N8       1.0000 0.79580  0.96960  0.41668  Biso   1.000  N
  N9       1.0000 0.21150  0.45010  0.06477  Biso   1.000  N
  N10      1.0000 0.80040  0.74670  0.77130  Biso   1.000  N
  C3       1.0000 0.27800  0.36230  0.00920  Biso   1.000  C
  H2       1.0000 0.29890  0.36600  0.04920  Biso   1.000  H
  C4       1.0000 0.79840  0.91580  0.50500  Biso   1.000  C
  H3       1.0000 0.82080  0.91130  0.54490  Biso   1.000  H
  C5       1.0000 0.21950  0.34830  0.89190  Biso   1.000  C
  H4       1.0000 0.19950  0.34410  0.85190  Biso   1.000  H
  C6       1.0000 0.55980  0.69780  0.47020  Biso   1.000  C
  N11      1.0000 0.27580  0.52920  0.27180  Biso   1.000  N
  C7       1.0000 0.09760  0.53040  0.00110  Biso   1.000  C
  N12      1.0000 0.65300  0.73200  0.55932  Biso   1.000  N
  C8       1.0000 0.94360  0.65700  0.96510  Biso   1.000  C
  H5       1.0000 0.92360  0.68530  0.98520  Biso   1.000  H
  C9       1.0000 0.53290  0.68800  0.41100  Biso   1.000  C
  H6       1.0000 0.55450  0.70950  0.38980  Biso   1.000  H
  C10      1.0000 0.00310  0.61620  0.99640  Biso   1.000  C
  H7       1.0000 0.02250  0.61710  0.03650  Biso   1.000  H
  C11      1.0000 0.74340  0.76280  0.65170  Biso   1.000  C
  C12      1.0000 0.18040  0.49780  0.08830  Biso   1.000  C
  C13      1.0000 0.17890  0.54380  0.18160  Biso   1.000  C
  H8       1.0000 0.13480  0.56120  0.16180  Biso   1.000  H
  C14      1.0000 0.52600  0.66490  0.50020  Biso   1.000  C
  H9       1.0000 0.54330  0.66970  0.54010  Biso   1.000  H
  C15      1.0000 0.21550  0.39870  0.97770  Biso   1.000  C
  C16      1.0000 0.82620  0.95910  0.47410  Biso   1.000  C
  H10      1.0000 0.86830  0.98220  0.49430  Biso   1.000  H
  C17      1.0000 0.70950  0.77330  0.58760  Biso   1.000  C
  C18      1.0000 0.03310  0.57390  0.96700  Biso   1.000  C
  C19      1.0000 0.30780  0.32040  0.97920  Biso   1.000  C
  H11      1.0000 0.34930  0.29600  0.00020  Biso   1.000  H
  C20      1.0000 0.73620  0.87910  0.47490  Biso   1.000  C
  C21      1.0000 0.94330  0.61660  0.87940  Biso   1.000  C
  H12      1.0000 0.92350  0.61760  0.83930  Biso   1.000  H
  C22      1.0000 0.70560  0.82780  0.50520  Biso   1.000  C
  C23      1.0000 0.30780  0.49510  0.24290  Biso   1.000  C
  H13      1.0000 0.35200  0.47860  0.26370  Biso   1.000  H
  C24      1.0000 0.18280  0.44850  0.00690  Biso   1.000  C
  C25      1.0000 0.18560  0.39050  0.91840  Biso   1.000  C
  H14      1.0000 0.14360  0.41290  0.89660  Biso   1.000  H
  C26      1.0000 0.70390  0.88960  0.41520  Biso   1.000  C
  H15      1.0000 0.66210  0.86620  0.39390  Biso   1.000  H
  C27      1.0000 0.47310  0.64560  0.38400  Biso   1.000  C
  H16      1.0000 0.45580  0.63750  0.34430  Biso   1.000  H
  C28      1.0000 0.46650  0.62500  0.46970  Biso   1.000  C
  H17      1.0000 0.44390  0.60320  0.48990  Biso   1.000  H
  C29      1.0000 0.82850  0.79330  0.74480  Biso   1.000  C
  H18      1.0000 0.86780  0.82100  0.76750  Biso   1.000  H
  C30      1.0000 0.21220  0.50790  0.15200  Biso   1.000  C
  C31      1.0000 0.00230  0.57290  0.90730  Biso   1.000  C
  H19      1.0000 0.02060  0.54360  0.88640  Biso   1.000  H
  C32      1.0000 0.80220  0.80280  0.68520  Biso   1.000  C
  H20      1.0000 0.82380  0.83520  0.66850  Biso   1.000  H
  C33      1.0000 0.21220  0.55320  0.24060  Biso   1.000  C
  H21      1.0000 0.18940  0.57750  0.25990  Biso   1.000  H
  C34      1.0000 0.71520  0.71060  0.67820  Biso   1.000  C
  H22      1.0000 0.67710  0.68020  0.65640  Biso   1.000  H
  C35      1.0000 0.27830  0.48330  0.18340  Biso   1.000  C
  H23      1.0000 0.30220  0.45950  0.16500  Biso   1.000  H
  C36      1.0000 0.74490  0.70500  0.73740  Biso   1.000  C
  H24      1.0000 0.72560  0.67050  0.75500  Biso   1.000  H
  Ag3      1.0000 0.84389  0.04296  0.36775  Biso   1.000  Ag
  Ag4      1.0000 0.32289  0.24813  0.86722  Biso   1.000  Ag
  N13      1.0000 0.23840  0.32240  0.56321  Biso   1.000  N
  N14      1.0000 0.77990  0.81310  0.92128  Biso   1.000  N
  N15      1.0000 0.62260  0.03710  0.05882  Biso   1.000  N
  N16      1.0000 0.93920  0.11580  0.41221  Biso   1.000  N
  N17      1.0000 0.41320  0.15780  0.90741  Biso   1.000  N
  C37      1.0000 0.12370  0.24280  0.50240  Biso   1.000  C
  N18      1.0000 0.62630  0.98890  0.97322  Biso   1.000  N
  N19      1.0000 0.14810  0.28980  0.47281  Biso   1.000  N
  C38      1.0000 0.23510  0.43510  0.38810  Biso   1.000  C
  H25      1.0000 0.21310  0.44220  0.34840  Biso   1.000  H
  N20      1.0000 0.29580  0.46960  0.41668  Biso   1.000  N
  N21      1.0000 0.71150  0.95010  0.06477  Biso   1.000  N
  N22      1.0000 0.30040  0.24670  0.77130  Biso   1.000  N
  C39      1.0000 0.77800  0.86230  0.00920  Biso   1.000  C
  H26      1.0000 0.79890  0.86600  0.04920  Biso   1.000  H
  C40      1.0000 0.29840  0.41580  0.50500  Biso   1.000  C
  H27      1.0000 0.32080  0.41130  0.54490  Biso   1.000  H
  C41      1.0000 0.71950  0.84830  0.89190  Biso   1.000  C
  H28      1.0000 0.69950  0.84410  0.85190  Biso   1.000  H
  C42      1.0000 0.05980  0.19780  0.47020  Biso   1.000  C
  N23      1.0000 0.77580  0.02920  0.27180  Biso   1.000  N
  C43      1.0000 0.59760  0.03040  0.00110  Biso   1.000  C
  N24      1.0000 0.15300  0.23200  0.55932  Biso   1.000  N
  C44      1.0000 0.44360  0.15700  0.96510  Biso   1.000  C
  H29      1.0000 0.42360  0.18530  0.98520  Biso   1.000  H
  C45      1.0000 0.03290  0.18800  0.41100  Biso   1.000  C
  H30      1.0000 0.05450  0.20950  0.38980  Biso   1.000  H
  C46      1.0000 0.50310  0.11620  0.99640  Biso   1.000  C
  H31      1.0000 0.52250  0.11710  0.03650  Biso   1.000  H
  C47      1.0000 0.24340  0.26280  0.65170  Biso   1.000  C
  C48      1.0000 0.68040  0.99780  0.08830  Biso   1.000  C
  C49      1.0000 0.67890  0.04380  0.18160  Biso   1.000  C
  H32      1.0000 0.63480  0.06120  0.16180  Biso   1.000  H
  C50      1.0000 0.02600  0.16490  0.50020  Biso   1.000  C
  H33      1.0000 0.04330  0.16970  0.54010  Biso   1.000  H
  C51      1.0000 0.71550  0.89870  0.97770  Biso   1.000  C
  C52      1.0000 0.32620  0.45910  0.47410  Biso   1.000  C
  H34      1.0000 0.36830  0.48220  0.49430  Biso   1.000  H
  C53      1.0000 0.20950  0.27330  0.58760  Biso   1.000  C
  C54      1.0000 0.53310  0.07390  0.96700  Biso   1.000  C
  C55      1.0000 0.80780  0.82040  0.97920  Biso   1.000  C
  H35      1.0000 0.84930  0.79600  0.00020  Biso   1.000  H
  C56      1.0000 0.23620  0.37910  0.47490  Biso   1.000  C
  C57      1.0000 0.44330  0.11660  0.87940  Biso   1.000  C
  H36      1.0000 0.42350  0.11760  0.83930  Biso   1.000  H
  C58      1.0000 0.20560  0.32780  0.50520  Biso   1.000  C
  C59      1.0000 0.80780  0.99510  0.24290  Biso   1.000  C
  H37      1.0000 0.85200  0.97860  0.26370  Biso   1.000  H
  C60      1.0000 0.68280  0.94850  0.00690  Biso   1.000  C
  C61      1.0000 0.68560  0.89050  0.91840  Biso   1.000  C
  H38      1.0000 0.64360  0.91290  0.89660  Biso   1.000  H
  C62      1.0000 0.20390  0.38960  0.41520  Biso   1.000  C
  H39      1.0000 0.16210  0.36620  0.39390  Biso   1.000  H
  C63      1.0000 0.97310  0.14560  0.38400  Biso   1.000  C
  H40      1.0000 0.95580  0.13750  0.34430  Biso   1.000  H
  C64      1.0000 0.96650  0.12500  0.46970  Biso   1.000  C
  H41      1.0000 0.94390  0.10320  0.48990  Biso   1.000  H
  C65      1.0000 0.32850  0.29330  0.74480  Biso   1.000  C
  H42      1.0000 0.36780  0.32100  0.76750  Biso   1.000  H
  C66      1.0000 0.71220  0.00790  0.15200  Biso   1.000  C
  C67      1.0000 0.50230  0.07290  0.90730  Biso   1.000  C
  H43      1.0000 0.52060  0.04360  0.88640  Biso   1.000  H
  C68      1.0000 0.30220  0.30280  0.68520  Biso   1.000  C
  H44      1.0000 0.32380  0.33520  0.66850  Biso   1.000  H
  C69      1.0000 0.71220  0.05320  0.24060  Biso   1.000  C
  H45      1.0000 0.68940  0.07750  0.25990  Biso   1.000  H
  C70      1.0000 0.21520  0.21060  0.67820  Biso   1.000  C
  H46      1.0000 0.17710  0.18020  0.65640  Biso   1.000  H
  C71      1.0000 0.77830  0.98330  0.18340  Biso   1.000  C
  H47      1.0000 0.80220  0.95950  0.16500  Biso   1.000  H
  C72      1.0000 0.24490  0.20500  0.73740  Biso   1.000  C
  H48      1.0000 0.22560  0.17050  0.75500  Biso   1.000  H
  Ag5      1.0000 0.65611  0.54296  0.13225  Biso   1.000  Ag
  Ag6      1.0000 0.17711  0.74813  0.63278  Biso   1.000  Ag
  N25      1.0000 0.26160  0.82240  0.93679  Biso   1.000  N
  N26      1.0000 0.72010  0.31310  0.57872  Biso   1.000  N
  N27      1.0000 0.87740  0.53710  0.44118  Biso   1.000  N
  N28      1.0000 0.56080  0.61580  0.08779  Biso   1.000  N
  N29      1.0000 0.08680  0.65780  0.59259  Biso   1.000  N
  C73      1.0000 0.37630  0.74280  0.99760  Biso   1.000  C
  N30      1.0000 0.87370  0.48890  0.52678  Biso   1.000  N
  N31      1.0000 0.35190  0.78980  0.02719  Biso   1.000  N
  C74      1.0000 0.26490  0.93510  0.11190  Biso   1.000  C
  H49      1.0000 0.28690  0.94220  0.15160  Biso   1.000  H
  N32      1.0000 0.20420  0.96960  0.08332  Biso   1.000  N
  N33      1.0000 0.78850  0.45010  0.43523  Biso   1.000  N
  N34      1.0000 0.19960  0.74670  0.72870  Biso   1.000  N
  C75      1.0000 0.72200  0.36230  0.49080  Biso   1.000  C
  H50      1.0000 0.70110  0.36600  0.45080  Biso   1.000  H
  C76      1.0000 0.20160  0.91580  0.99500  Biso   1.000  C
  H51      1.0000 0.17920  0.91130  0.95510  Biso   1.000  H
  C77      1.0000 0.78050  0.34830  0.60810  Biso   1.000  C
  H52      1.0000 0.80050  0.34410  0.64810  Biso   1.000  H
  C78      1.0000 0.44020  0.69780  0.02980  Biso   1.000  C
  N35      1.0000 0.72420  0.52920  0.22820  Biso   1.000  N
  C79      1.0000 0.90240  0.53040  0.49890  Biso   1.000  C
  N36      1.0000 0.34700  0.73200  0.94068  Biso   1.000  N
  C80      1.0000 0.05640  0.65700  0.53490  Biso   1.000  C
  H53      1.0000 0.07640  0.68530  0.51480  Biso   1.000  H
  C81      1.0000 0.46710  0.68800  0.08900  Biso   1.000  C
  H54      1.0000 0.44550  0.70950  0.11020  Biso   1.000  H
  C82      1.0000 0.99690  0.61620  0.50360  Biso   1.000  C
  H55      1.0000 0.97750  0.61710  0.46350  Biso   1.000  H
  C83      1.0000 0.25660  0.76280  0.84830  Biso   1.000  C
  C84      1.0000 0.81960  0.49780  0.41170  Biso   1.000  C
  C85      1.0000 0.82110  0.54380  0.31840  Biso   1.000  C
  H56      1.0000 0.86520  0.56120  0.33820  Biso   1.000  H
  C86      1.0000 0.47400  0.66490  0.99980  Biso   1.000  C
  H57      1.0000 0.45670  0.66970  0.95990  Biso   1.000  H
  C87      1.0000 0.78450  0.39870  0.52230  Biso   1.000  C
  C88      1.0000 0.17380  0.95910  0.02590  Biso   1.000  C
  H58      1.0000 0.13170  0.98220  0.00570  Biso   1.000  H
  C89      1.0000 0.29050  0.77330  0.91240  Biso   1.000  C
  C90      1.0000 0.96690  0.57390  0.53300  Biso   1.000  C
  C91      1.0000 0.69220  0.32040  0.52080  Biso   1.000  C
  H59      1.0000 0.65070  0.29600  0.49980  Biso   1.000  H
  C92      1.0000 0.26380  0.87910  0.02510  Biso   1.000  C
  C93      1.0000 0.05670  0.61660  0.62060  Biso   1.000  C
  H60      1.0000 0.07650  0.61760  0.66070  Biso   1.000  H
  C94      1.0000 0.29440  0.82780  0.99480  Biso   1.000  C
  C95      1.0000 0.69220  0.49510  0.25710  Biso   1.000  C
  H61      1.0000 0.64800  0.47860  0.23630  Biso   1.000  H
  C96      1.0000 0.81720  0.44850  0.49310  Biso   1.000  C
  C97      1.0000 0.81440  0.39050  0.58160  Biso   1.000  C
  H62      1.0000 0.85640  0.41290  0.60340  Biso   1.000  H
  C98      1.0000 0.29610  0.88960  0.08480  Biso   1.000  C
  H63      1.0000 0.33790  0.86620  0.10610  Biso   1.000  H
  C99      1.0000 0.52690  0.64560  0.11600  Biso   1.000  C
  H64      1.0000 0.54420  0.63750  0.15570  Biso   1.000  H
  C100     1.0000 0.53350  0.62500  0.03030  Biso   1.000  C
  H65      1.0000 0.55610  0.60320  0.01010  Biso   1.000  H
  C101     1.0000 0.17150  0.79330  0.75520  Biso   1.000  C
  H66      1.0000 0.13220  0.82100  0.73250  Biso   1.000  H
  C102     1.0000 0.78780  0.50790  0.34800  Biso   1.000  C
  C103     1.0000 0.99770  0.57290  0.59270  Biso   1.000  C
  H67      1.0000 0.97940  0.54360  0.61360  Biso   1.000  H
  C104     1.0000 0.19780  0.80280  0.81480  Biso   1.000  C
  H68      1.0000 0.17620  0.83520  0.83150  Biso   1.000  H
  C105     1.0000 0.78780  0.55320  0.25940  Biso   1.000  C
  H69      1.0000 0.81060  0.57750  0.24010  Biso   1.000  H
  C106     1.0000 0.28480  0.71060  0.82180  Biso   1.000  C
  H70      1.0000 0.32290  0.68020  0.84360  Biso   1.000  H
  C107     1.0000 0.72170  0.48330  0.31660  Biso   1.000  C
  H71      1.0000 0.69780  0.45950  0.33500  Biso   1.000  H
  C108     1.0000 0.25510  0.70500  0.76260  Biso   1.000  C
  H72      1.0000 0.27440  0.67050  0.74500  Biso   1.000  H
  Ag7      1.0000 0.15611  0.04296  0.13225  Biso   1.000  Ag
  Ag8      1.0000 0.67711  0.24813  0.63278  Biso   1.000  Ag
  N37      1.0000 0.76160  0.32240  0.93679  Biso   1.000  N
  N38      1.0000 0.22010  0.81310  0.57872  Biso   1.000  N
  N39      1.0000 0.37740  0.03710  0.44118  Biso   1.000  N
  N40      1.0000 0.06080  0.11580  0.08779  Biso   1.000  N
  N41      1.0000 0.58680  0.15780  0.59259  Biso   1.000  N
  C109     1.0000 0.87630  0.24280  0.99760  Biso   1.000  C
  N42      1.0000 0.37370  0.98890  0.52678  Biso   1.000  N
  N43      1.0000 0.85190  0.28980  0.02719  Biso   1.000  N
  C110     1.0000 0.76490  0.43510  0.11190  Biso   1.000  C
  H73      1.0000 0.78690  0.44220  0.15160  Biso   1.000  H
  N44      1.0000 0.70420  0.46960  0.08332  Biso   1.000  N
  N45      1.0000 0.28850  0.95010  0.43523  Biso   1.000  N
  N46      1.0000 0.69960  0.24670  0.72870  Biso   1.000  N
  C111     1.0000 0.22200  0.86230  0.49080  Biso   1.000  C
  H74      1.0000 0.20110  0.86600  0.45080  Biso   1.000  H
  C112     1.0000 0.70160  0.41580  0.99500  Biso   1.000  C
  H75      1.0000 0.67920  0.41130  0.95510  Biso   1.000  H
  C113     1.0000 0.28050  0.84830  0.60810  Biso   1.000  C
  H76      1.0000 0.30050  0.84410  0.64810  Biso   1.000  H
  C114     1.0000 0.94020  0.19780  0.02980  Biso   1.000  C
  N47      1.0000 0.22420  0.02920  0.22820  Biso   1.000  N
  C115     1.0000 0.40240  0.03040  0.49890  Biso   1.000  C
  N48      1.0000 0.84700  0.23200  0.94068  Biso   1.000  N
  C116     1.0000 0.55640  0.15700  0.53490  Biso   1.000  C
  H77      1.0000 0.57640  0.18530  0.51480  Biso   1.000  H
  C117     1.0000 0.96710  0.18800  0.08900  Biso   1.000  C
  H78      1.0000 0.94550  0.20950  0.11020  Biso   1.000  H
  C118     1.0000 0.49690  0.11620  0.50360  Biso   1.000  C
  H79      1.0000 0.47750  0.11710  0.46350  Biso   1.000  H
  C119     1.0000 0.75660  0.26280  0.84830  Biso   1.000  C
  C120     1.0000 0.31960  0.99780  0.41170  Biso   1.000  C
  C121     1.0000 0.32110  0.04380  0.31840  Biso   1.000  C
  H80      1.0000 0.36520  0.06120  0.33820  Biso   1.000  H
  C122     1.0000 0.97400  0.16490  0.99980  Biso   1.000  C
  H81      1.0000 0.95670  0.16970  0.95990  Biso   1.000  H
  C123     1.0000 0.28450  0.89870  0.52230  Biso   1.000  C
  C124     1.0000 0.67380  0.45910  0.02590  Biso   1.000  C
  H82      1.0000 0.63170  0.48220  0.00570  Biso   1.000  H
  C125     1.0000 0.79050  0.27330  0.91240  Biso   1.000  C
  C126     1.0000 0.46690  0.07390  0.53300  Biso   1.000  C
  C127     1.0000 0.19220  0.82040  0.52080  Biso   1.000  C
  H83      1.0000 0.15070  0.79600  0.49980  Biso   1.000  H
  C128     1.0000 0.76380  0.37910  0.02510  Biso   1.000  C
  C129     1.0000 0.55670  0.11660  0.62060  Biso   1.000  C
  H84      1.0000 0.57650  0.11760  0.66070  Biso   1.000  H
  C130     1.0000 0.79440  0.32780  0.99480  Biso   1.000  C
  C131     1.0000 0.19220  0.99510  0.25710  Biso   1.000  C
  H85      1.0000 0.14800  0.97860  0.23630  Biso   1.000  H
  C132     1.0000 0.31720  0.94850  0.49310  Biso   1.000  C
  C133     1.0000 0.31440  0.89050  0.58160  Biso   1.000  C
  H86      1.0000 0.35640  0.91290  0.60340  Biso   1.000  H
  C134     1.0000 0.79610  0.38960  0.08480  Biso   1.000  C
  H87      1.0000 0.83790  0.36620  0.10610  Biso   1.000  H
  C135     1.0000 0.02690  0.14560  0.11600  Biso   1.000  C
  H88      1.0000 0.04420  0.13750  0.15570  Biso   1.000  H
  C136     1.0000 0.03350  0.12500  0.03030  Biso   1.000  C
  H89      1.0000 0.05610  0.10320  0.01010  Biso   1.000  H
  C137     1.0000 0.67150  0.29330  0.75520  Biso   1.000  C
  H90      1.0000 0.63220  0.32100  0.73250  Biso   1.000  H
  C138     1.0000 0.28780  0.00790  0.34800  Biso   1.000  C
  C139     1.0000 0.49770  0.07290  0.59270  Biso   1.000  C
  H91      1.0000 0.47940  0.04360  0.61360  Biso   1.000  H
  C140     1.0000 0.69780  0.30280  0.81480  Biso   1.000  C
  H92      1.0000 0.67620  0.33520  0.83150  Biso   1.000  H
  C141     1.0000 0.28780  0.05320  0.25940  Biso   1.000  C
  H93      1.0000 0.31060  0.07750  0.24010  Biso   1.000  H
  C142     1.0000 0.78480  0.21060  0.82180  Biso   1.000  C
  H94      1.0000 0.82290  0.18020  0.84360  Biso   1.000  H
  C143     1.0000 0.22170  0.98330  0.31660  Biso   1.000  C
  H95      1.0000 0.19780  0.95950  0.33500  Biso   1.000  H
  C144     1.0000 0.75510  0.20500  0.76260  Biso   1.000  C
  H96      1.0000 0.77440  0.17050  0.74500  Biso   1.000  H
  Ag9      1.0000 0.65611  0.45704  0.63225  Biso   1.000  Ag
  Ag10     1.0000 0.17711  0.25187  0.13278  Biso   1.000  Ag
  N49      1.0000 0.26160  0.17760  0.43679  Biso   1.000  N
  N50      1.0000 0.72010  0.68690  0.07872  Biso   1.000  N
  N51      1.0000 0.87740  0.46290  0.94118  Biso   1.000  N
  N52      1.0000 0.56080  0.38420  0.58779  Biso   1.000  N
  N53      1.0000 0.08680  0.34220  0.09259  Biso   1.000  N
  C145     1.0000 0.37630  0.25720  0.49760  Biso   1.000  C
  N54      1.0000 0.87370  0.51110  0.02678  Biso   1.000  N
  N55      1.0000 0.35190  0.21020  0.52719  Biso   1.000  N
  C146     1.0000 0.26490  0.06490  0.61190  Biso   1.000  C
  H97      1.0000 0.28690  0.05780  0.65160  Biso   1.000  H
  N56      1.0000 0.20420  0.03040  0.58332  Biso   1.000  N
  N57      1.0000 0.78850  0.54990  0.93523  Biso   1.000  N
  N58      1.0000 0.19960  0.25330  0.22870  Biso   1.000  N
  C147     1.0000 0.72200  0.63770  0.99080  Biso   1.000  C
  H98      1.0000 0.70110  0.63400  0.95080  Biso   1.000  H
  C148     1.0000 0.20160  0.08420  0.49500  Biso   1.000  C
  H99      1.0000 0.17920  0.08870  0.45510  Biso   1.000  H
  C149     1.0000 0.78050  0.65170  0.10810  Biso   1.000  C
  H100     1.0000 0.80050  0.65590  0.14810  Biso   1.000  H
  C150     1.0000 0.44020  0.30220  0.52980  Biso   1.000  C
  N59      1.0000 0.72420  0.47080  0.72820  Biso   1.000  N
  C151     1.0000 0.90240  0.46960  0.99890  Biso   1.000  C
  N60      1.0000 0.34700  0.26800  0.44068  Biso   1.000  N
  C152     1.0000 0.05640  0.34300  0.03490  Biso   1.000  C
  H101     1.0000 0.07640  0.31470  0.01480  Biso   1.000  H
  C153     1.0000 0.46710  0.31200  0.58900  Biso   1.000  C
  H102     1.0000 0.44550  0.29050  0.61020  Biso   1.000  H
  C154     1.0000 0.99690  0.38380  0.00360  Biso   1.000  C
  H103     1.0000 0.97750  0.38290  0.96350  Biso   1.000  H
  C155     1.0000 0.25660  0.23720  0.34830  Biso   1.000  C
  C156     1.0000 0.81960  0.50220  0.91170  Biso   1.000  C
  C157     1.0000 0.82110  0.45620  0.81840  Biso   1.000  C
  H104     1.0000 0.86520  0.43880  0.83820  Biso   1.000  H
  C158     1.0000 0.47400  0.33510  0.49980  Biso   1.000  C
  H105     1.0000 0.45670  0.33030  0.45990  Biso   1.000  H
  C159     1.0000 0.78450  0.60130  0.02230  Biso   1.000  C
  C160     1.0000 0.17380  0.04090  0.52590  Biso   1.000  C
  H106     1.0000 0.13170  0.01780  0.50570  Biso   1.000  H
  C161     1.0000 0.29050  0.22670  0.41240  Biso   1.000  C
  C162     1.0000 0.96690  0.42610  0.03300  Biso   1.000  C
  C163     1.0000 0.69220  0.67960  0.02080  Biso   1.000  C
  H107     1.0000 0.65070  0.70400  0.99980  Biso   1.000  H
  C164     1.0000 0.26380  0.12090  0.52510  Biso   1.000  C
  C165     1.0000 0.05670  0.38340  0.12060  Biso   1.000  C
  H108     1.0000 0.07650  0.38240  0.16070  Biso   1.000  H
  C166     1.0000 0.29440  0.17220  0.49480  Biso   1.000  C
  C167     1.0000 0.69220  0.50490  0.75710  Biso   1.000  C
  H109     1.0000 0.64800  0.52140  0.73630  Biso   1.000  H
  C168     1.0000 0.81720  0.55150  0.99310  Biso   1.000  C
  C169     1.0000 0.81440  0.60950  0.08160  Biso   1.000  C
  H110     1.0000 0.85640  0.58710  0.10340  Biso   1.000  H
  C170     1.0000 0.29610  0.11040  0.58480  Biso   1.000  C
  H111     1.0000 0.33790  0.13380  0.60610  Biso   1.000  H
  C171     1.0000 0.52690  0.35440  0.61600  Biso   1.000  C
  H112     1.0000 0.54420  0.36250  0.65570  Biso   1.000  H
  C172     1.0000 0.53350  0.37500  0.53030  Biso   1.000  C
  H113     1.0000 0.55610  0.39680  0.51010  Biso   1.000  H
  C173     1.0000 0.17150  0.20670  0.25520  Biso   1.000  C
  H114     1.0000 0.13220  0.17900  0.23250  Biso   1.000  H
  C174     1.0000 0.78780  0.49210  0.84800  Biso   1.000  C
  C175     1.0000 0.99770  0.42710  0.09270  Biso   1.000  C
  H115     1.0000 0.97940  0.45640  0.11360  Biso   1.000  H
  C176     1.0000 0.19780  0.19720  0.31480  Biso   1.000  C
  H116     1.0000 0.17620  0.16480  0.33150  Biso   1.000  H
  C177     1.0000 0.78780  0.44680  0.75940  Biso   1.000  C
  H117     1.0000 0.81060  0.42250  0.74010  Biso   1.000  H
  C178     1.0000 0.28480  0.28940  0.32180  Biso   1.000  C
  H118     1.0000 0.32290  0.31980  0.34360  Biso   1.000  H
  C179     1.0000 0.72170  0.51670  0.81660  Biso   1.000  C
  H119     1.0000 0.69780  0.54050  0.83500  Biso   1.000  H
  C180     1.0000 0.25510  0.29500  0.26260  Biso   1.000  C
  H120     1.0000 0.27440  0.32950  0.24500  Biso   1.000  H
  Ag11     1.0000 0.15611  0.95704  0.63225  Biso   1.000  Ag
  Ag12     1.0000 0.67711  0.75187  0.13278  Biso   1.000  Ag
  N61      1.0000 0.76160  0.67760  0.43679  Biso   1.000  N
  N62      1.0000 0.22010  0.18690  0.07872  Biso   1.000  N
  N63      1.0000 0.37740  0.96290  0.94118  Biso   1.000  N
  N64      1.0000 0.06080  0.88420  0.58779  Biso   1.000  N
  N65      1.0000 0.58680  0.84220  0.09259  Biso   1.000  N
  C181     1.0000 0.87630  0.75720  0.49760  Biso   1.000  C
  N66      1.0000 0.37370  0.01110  0.02678  Biso   1.000  N
  N67      1.0000 0.85190  0.71020  0.52719  Biso   1.000  N
  C182     1.0000 0.76490  0.56490  0.61190  Biso   1.000  C
  H121     1.0000 0.78690  0.55780  0.65160  Biso   1.000  H
  N68      1.0000 0.70420  0.53040  0.58332  Biso   1.000  N
  N69      1.0000 0.28850  0.04990  0.93523  Biso   1.000  N
  N70      1.0000 0.69960  0.75330  0.22870  Biso   1.000  N
  C183     1.0000 0.22200  0.13770  0.99080  Biso   1.000  C
  H122     1.0000 0.20110  0.13400  0.95080  Biso   1.000  H
  C184     1.0000 0.70160  0.58420  0.49500  Biso   1.000  C
  H123     1.0000 0.67920  0.58870  0.45510  Biso   1.000  H
  C185     1.0000 0.28050  0.15170  0.10810  Biso   1.000  C
  H124     1.0000 0.30050  0.15590  0.14810  Biso   1.000  H
  C186     1.0000 0.94020  0.80220  0.52980  Biso   1.000  C
  N71      1.0000 0.22420  0.97080  0.72820  Biso   1.000  N
  C187     1.0000 0.40240  0.96960  0.99890  Biso   1.000  C
  N72      1.0000 0.84700  0.76800  0.44068  Biso   1.000  N
  C188     1.0000 0.55640  0.84300  0.03490  Biso   1.000  C
  H125     1.0000 0.57640  0.81470  0.01480  Biso   1.000  H
  C189     1.0000 0.96710  0.81200  0.58900  Biso   1.000  C
  H126     1.0000 0.94550  0.79050  0.61020  Biso   1.000  H
  C190     1.0000 0.49690  0.88380  0.00360  Biso   1.000  C
  H127     1.0000 0.47750  0.88290  0.96350  Biso   1.000  H
  C191     1.0000 0.75660  0.73720  0.34830  Biso   1.000  C
  C192     1.0000 0.31960  0.00220  0.91170  Biso   1.000  C
  C193     1.0000 0.32110  0.95620  0.81840  Biso   1.000  C
  H128     1.0000 0.36520  0.93880  0.83820  Biso   1.000  H
  C194     1.0000 0.97400  0.83510  0.49980  Biso   1.000  C
  H129     1.0000 0.95670  0.83030  0.45990  Biso   1.000  H
  C195     1.0000 0.28450  0.10130  0.02230  Biso   1.000  C
  C196     1.0000 0.67380  0.54090  0.52590  Biso   1.000  C
  H130     1.0000 0.63170  0.51780  0.50570  Biso   1.000  H
  C197     1.0000 0.79050  0.72670  0.41240  Biso   1.000  C
  C198     1.0000 0.46690  0.92610  0.03300  Biso   1.000  C
  C199     1.0000 0.19220  0.17960  0.02080  Biso   1.000  C
  H131     1.0000 0.15070  0.20400  0.99980  Biso   1.000  H
  C200     1.0000 0.76380  0.62090  0.52510  Biso   1.000  C
  C201     1.0000 0.55670  0.88340  0.12060  Biso   1.000  C
  H132     1.0000 0.57650  0.88240  0.16070  Biso   1.000  H
  C202     1.0000 0.79440  0.67220  0.49480  Biso   1.000  C
  C203     1.0000 0.19220  0.00490  0.75710  Biso   1.000  C
  H133     1.0000 0.14800  0.02140  0.73630  Biso   1.000  H
  C204     1.0000 0.31720  0.05150  0.99310  Biso   1.000  C
  C205     1.0000 0.31440  0.10950  0.08160  Biso   1.000  C
  H134     1.0000 0.35640  0.08710  0.10340  Biso   1.000  H
  C206     1.0000 0.79610  0.61040  0.58480  Biso   1.000  C
  H135     1.0000 0.83790  0.63380  0.60610  Biso   1.000  H
  C207     1.0000 0.02690  0.85440  0.61600  Biso   1.000  C
  H136     1.0000 0.04420  0.86250  0.65570  Biso   1.000  H
  C208     1.0000 0.03350  0.87500  0.53030  Biso   1.000  C
  H137     1.0000 0.05610  0.89680  0.51010  Biso   1.000  H
  C209     1.0000 0.67150  0.70670  0.25520  Biso   1.000  C
  H138     1.0000 0.63220  0.67900  0.23250  Biso   1.000  H
  C210     1.0000 0.28780  0.99210  0.84800  Biso   1.000  C
  C211     1.0000 0.49770  0.92710  0.09270  Biso   1.000  C
  H139     1.0000 0.47940  0.95640  0.11360  Biso   1.000  H
  C212     1.0000 0.69780  0.69720  0.31480  Biso   1.000  C
  H140     1.0000 0.67620  0.66480  0.33150  Biso   1.000  H
  C213     1.0000 0.28780  0.94680  0.75940  Biso   1.000  C
  H141     1.0000 0.31060  0.92250  0.74010  Biso   1.000  H
  C214     1.0000 0.78480  0.78940  0.32180  Biso   1.000  C
  H142     1.0000 0.82290  0.81980  0.34360  Biso   1.000  H
  C215     1.0000 0.22170  0.01670  0.81660  Biso   1.000  C
  H143     1.0000 0.19780  0.04050  0.83500  Biso   1.000  H
  C216     1.0000 0.75510  0.79500  0.26260  Biso   1.000  C
  H144     1.0000 0.77440  0.82950  0.24500  Biso   1.000  H
  Ag13     1.0000 0.34389  0.45704  0.86775  Biso   1.000  Ag
  Ag14     1.0000 0.82289  0.25187  0.36722  Biso   1.000  Ag
  N73      1.0000 0.73840  0.17760  0.06321  Biso   1.000  N
  N74      1.0000 0.27990  0.68690  0.42128  Biso   1.000  N
  N75      1.0000 0.12260  0.46290  0.55882  Biso   1.000  N
  N76      1.0000 0.43920  0.38420  0.91221  Biso   1.000  N
  N77      1.0000 0.91320  0.34220  0.40741  Biso   1.000  N
  C217     1.0000 0.62370  0.25720  0.00240  Biso   1.000  C
  N78      1.0000 0.12630  0.51110  0.47322  Biso   1.000  N
  N79      1.0000 0.64810  0.21020  0.97281  Biso   1.000  N
  C218     1.0000 0.73510  0.06490  0.88810  Biso   1.000  C
  H145     1.0000 0.71310  0.05780  0.84840  Biso   1.000  H
  N80      1.0000 0.79580  0.03040  0.91668  Biso   1.000  N
  N81      1.0000 0.21150  0.54990  0.56477  Biso   1.000  N
  N82      1.0000 0.80040  0.25330  0.27130  Biso   1.000  N
  C219     1.0000 0.27800  0.63770  0.50920  Biso   1.000  C
  H146     1.0000 0.29890  0.63400  0.54920  Biso   1.000  H
  C220     1.0000 0.79840  0.08420  0.00500  Biso   1.000  C
  H147     1.0000 0.82080  0.08870  0.04490  Biso   1.000  H
  C221     1.0000 0.21950  0.65170  0.39190  Biso   1.000  C
  H148     1.0000 0.19950  0.65590  0.35190  Biso   1.000  H
  C222     1.0000 0.55980  0.30220  0.97020  Biso   1.000  C
  N83      1.0000 0.27580  0.47080  0.77180  Biso   1.000  N
  C223     1.0000 0.09760  0.46960  0.50110  Biso   1.000  C
  N84      1.0000 0.65300  0.26800  0.05932  Biso   1.000  N
  C224     1.0000 0.94360  0.34300  0.46510  Biso   1.000  C
  H149     1.0000 0.92360  0.31470  0.48520  Biso   1.000  H
  C225     1.0000 0.53290  0.31200  0.91100  Biso   1.000  C
  H150     1.0000 0.55450  0.29050  0.88980  Biso   1.000  H
  C226     1.0000 0.00310  0.38380  0.49640  Biso   1.000  C
  H151     1.0000 0.02250  0.38290  0.53650  Biso   1.000  H
  C227     1.0000 0.74340  0.23720  0.15170  Biso   1.000  C
  C228     1.0000 0.18040  0.50220  0.58830  Biso   1.000  C
  C229     1.0000 0.17890  0.45620  0.68160  Biso   1.000  C
  H152     1.0000 0.13480  0.43880  0.66180  Biso   1.000  H
  C230     1.0000 0.52600  0.33510  0.00020  Biso   1.000  C
  H153     1.0000 0.54330  0.33030  0.04010  Biso   1.000  H
  C231     1.0000 0.21550  0.60130  0.47770  Biso   1.000  C
  C232     1.0000 0.82620  0.04090  0.97410  Biso   1.000  C
  H154     1.0000 0.86830  0.01780  0.99430  Biso   1.000  H
  C233     1.0000 0.70950  0.22670  0.08760  Biso   1.000  C
  C234     1.0000 0.03310  0.42610  0.46700  Biso   1.000  C
  C235     1.0000 0.30780  0.67960  0.47920  Biso   1.000  C
  H155     1.0000 0.34930  0.70400  0.50020  Biso   1.000  H
  C236     1.0000 0.73620  0.12090  0.97490  Biso   1.000  C
  C237     1.0000 0.94330  0.38340  0.37940  Biso   1.000  C
  H156     1.0000 0.92350  0.38240  0.33930  Biso   1.000  H
  C238     1.0000 0.70560  0.17220  0.00520  Biso   1.000  C
  C239     1.0000 0.30780  0.50490  0.74290  Biso   1.000  C
  H157     1.0000 0.35200  0.52140  0.76370  Biso   1.000  H
  C240     1.0000 0.18280  0.55150  0.50690  Biso   1.000  C
  C241     1.0000 0.18560  0.60950  0.41840  Biso   1.000  C
  H158     1.0000 0.14360  0.58710  0.39660  Biso   1.000  H
  C242     1.0000 0.70390  0.11040  0.91520  Biso   1.000  C
  H159     1.0000 0.66210  0.13380  0.89390  Biso   1.000  H
  C243     1.0000 0.47310  0.35440  0.88400  Biso   1.000  C
  H160     1.0000 0.45580  0.36250  0.84430  Biso   1.000  H
  C244     1.0000 0.46650  0.37500  0.96970  Biso   1.000  C
  H161     1.0000 0.44390  0.39680  0.98990  Biso   1.000  H
  C245     1.0000 0.82850  0.20670  0.24480  Biso   1.000  C
  H162     1.0000 0.86780  0.17900  0.26750  Biso   1.000  H
  C246     1.0000 0.21220  0.49210  0.65200  Biso   1.000  C
  C247     1.0000 0.00230  0.42710  0.40730  Biso   1.000  C
  H163     1.0000 0.02060  0.45640  0.38640  Biso   1.000  H
  C248     1.0000 0.80220  0.19720  0.18520  Biso   1.000  C
  H164     1.0000 0.82380  0.16480  0.16850  Biso   1.000  H
  C249     1.0000 0.21220  0.44680  0.74060  Biso   1.000  C
  H165     1.0000 0.18940  0.42250  0.75990  Biso   1.000  H
  C250     1.0000 0.71520  0.28940  0.17820  Biso   1.000  C
  H166     1.0000 0.67710  0.31980  0.15640  Biso   1.000  H
  C251     1.0000 0.27830  0.51670  0.68340  Biso   1.000  C
  H167     1.0000 0.30220  0.54050  0.66500  Biso   1.000  H
  C252     1.0000 0.74490  0.29500  0.23740  Biso   1.000  C
  H168     1.0000 0.72560  0.32950  0.25500  Biso   1.000  H
  Ag15     1.0000 0.84389  0.95704  0.86775  Biso   1.000  Ag
  Ag16     1.0000 0.32289  0.75187  0.36722  Biso   1.000  Ag
  N85      1.0000 0.23840  0.67760  0.06321  Biso   1.000  N
  N86      1.0000 0.77990  0.18690  0.42128  Biso   1.000  N
  N87      1.0000 0.62260  0.96290  0.55882  Biso   1.000  N
  N88      1.0000 0.93920  0.88420  0.91221  Biso   1.000  N
  N89      1.0000 0.41320  0.84220  0.40741  Biso   1.000  N
  C253     1.0000 0.12370  0.75720  0.00240  Biso   1.000  C
  N90      1.0000 0.62630  0.01110  0.47322  Biso   1.000  N
  N91      1.0000 0.14810  0.71020  0.97281  Biso   1.000  N
  C254     1.0000 0.23510  0.56490  0.88810  Biso   1.000  C
  H169     1.0000 0.21310  0.55780  0.84840  Biso   1.000  H
  N92      1.0000 0.29580  0.53040  0.91668  Biso   1.000  N
  N93      1.0000 0.71150  0.04990  0.56477  Biso   1.000  N
  N94      1.0000 0.30040  0.75330  0.27130  Biso   1.000  N
  C255     1.0000 0.77800  0.13770  0.50920  Biso   1.000  C
  H170     1.0000 0.79890  0.13400  0.54920  Biso   1.000  H
  C256     1.0000 0.29840  0.58420  0.00500  Biso   1.000  C
  H171     1.0000 0.32080  0.58870  0.04490  Biso   1.000  H
  C257     1.0000 0.71950  0.15170  0.39190  Biso   1.000  C
  H172     1.0000 0.69950  0.15590  0.35190  Biso   1.000  H
  C258     1.0000 0.05980  0.80220  0.97020  Biso   1.000  C
  N95      1.0000 0.77580  0.97080  0.77180  Biso   1.000  N
  C259     1.0000 0.59760  0.96960  0.50110  Biso   1.000  C
  N96      1.0000 0.15300  0.76800  0.05932  Biso   1.000  N
  C260     1.0000 0.44360  0.84300  0.46510  Biso   1.000  C
  H173     1.0000 0.42360  0.81470  0.48520  Biso   1.000  H
  C261     1.0000 0.03290  0.81200  0.91100  Biso   1.000  C
  H174     1.0000 0.05450  0.79050  0.88980  Biso   1.000  H
  C262     1.0000 0.50310  0.88380  0.49640  Biso   1.000  C
  H175     1.0000 0.52250  0.88290  0.53650  Biso   1.000  H
  C263     1.0000 0.24340  0.73720  0.15170  Biso   1.000  C
  C264     1.0000 0.68040  0.00220  0.58830  Biso   1.000  C
  C265     1.0000 0.67890  0.95620  0.68160  Biso   1.000  C
  H176     1.0000 0.63480  0.93880  0.66180  Biso   1.000  H
  C266     1.0000 0.02600  0.83510  0.00020  Biso   1.000  C
  H177     1.0000 0.04330  0.83030  0.04010  Biso   1.000  H
  C267     1.0000 0.71550  0.10130  0.47770  Biso   1.000  C
  C268     1.0000 0.32620  0.54090  0.97410  Biso   1.000  C
  H178     1.0000 0.36830  0.51780  0.99430  Biso   1.000  H
  C269     1.0000 0.20950  0.72670  0.08760  Biso   1.000  C
  C270     1.0000 0.53310  0.92610  0.46700  Biso   1.000  C
  C271     1.0000 0.80780  0.17960  0.47920  Biso   1.000  C
  H179     1.0000 0.84930  0.20400  0.50020  Biso   1.000  H
  C272     1.0000 0.23620  0.62090  0.97490  Biso   1.000  C
  C273     1.0000 0.44330  0.88340  0.37940  Biso   1.000  C
  H180     1.0000 0.42350  0.88240  0.33930  Biso   1.000  H
  C274     1.0000 0.20560  0.67220  0.00520  Biso   1.000  C
  C275     1.0000 0.80780  0.00490  0.74290  Biso   1.000  C
  H181     1.0000 0.85200  0.02140  0.76370  Biso   1.000  H
  C276     1.0000 0.68280  0.05150  0.50690  Biso   1.000  C
  C277     1.0000 0.68560  0.10950  0.41840  Biso   1.000  C
  H182     1.0000 0.64360  0.08710  0.39660  Biso   1.000  H
  C278     1.0000 0.20390  0.61040  0.91520  Biso   1.000  C
  H183     1.0000 0.16210  0.63380  0.89390  Biso   1.000  H
  C279     1.0000 0.97310  0.85440  0.88400  Biso   1.000  C
  H184     1.0000 0.95580  0.86250  0.84430  Biso   1.000  H
  C280     1.0000 0.96650  0.87500  0.96970  Biso   1.000  C
  H185     1.0000 0.94390  0.89680  0.98990  Biso   1.000  H
  C281     1.0000 0.32850  0.70670  0.24480  Biso   1.000  C
  H186     1.0000 0.36780  0.67900  0.26750  Biso   1.000  H
  C282     1.0000 0.71220  0.99210  0.65200  Biso   1.000  C
  C283     1.0000 0.50230  0.92710  0.40730  Biso   1.000  C
  H187     1.0000 0.52060  0.95640  0.38640  Biso   1.000  H
  C284     1.0000 0.30220  0.69720  0.18520  Biso   1.000  C
  H188     1.0000 0.32380  0.66480  0.16850  Biso   1.000  H
  C285     1.0000 0.71220  0.94680  0.74060  Biso   1.000  C
  H189     1.0000 0.68940  0.92250  0.75990  Biso   1.000  H
  C286     1.0000 0.21520  0.78940  0.17820  Biso   1.000  C
  H190     1.0000 0.17710  0.81980  0.15640  Biso   1.000  H
  C287     1.0000 0.77830  0.01670  0.68340  Biso   1.000  C
  H191     1.0000 0.80220  0.04050  0.66500  Biso   1.000  H
  C288     1.0000 0.24490  0.79500  0.23740  Biso   1.000  C
  H192     1.0000 0.22560  0.82950  0.25500  Biso   1.000  H
