data_image0
_cell_length_a       22.07
_cell_length_b       16.4328
_cell_length_c       25.6173
_cell_angle_alpha    90
_cell_angle_beta     115.315
_cell_angle_gamma    90

_symmetry_space_group_name_H-M    "P 1"
_symmetry_int_tables_number       1

loop_
  _symmetry_equiv_pos_as_xyz
  'x, y, z'

loop_
  _atom_site_label
  _atom_site_occupancy
  _atom_site_fract_x
  _atom_site_fract_y
  _atom_site_fract_z
  _atom_site_thermal_displace_type
  _atom_site_B_iso_or_equiv
  _atom_site_type_symbol
  Ag1      1.0000 0.34417  0.95761  0.36780  Biso   1.000  Ag
  Ag2      1.0000 0.32282  0.25282  0.86720  Biso   1.000  Ag
  C1       1.0000 0.12390  0.25680  0.50186  Biso   1.000  C
  C2       1.0000 0.03320  0.31230  0.41090  Biso   1.000  C
  H1       1.0000 0.05490  0.29140  0.38970  Biso   1.000  H
  C3       1.0000 0.44410  0.34350  0.96480  Biso   1.000  C
  H2       1.0000 0.42410  0.31560  0.98490  Biso   1.000  H
  C4       1.0000 0.59780  0.47020  0.00070  Biso   1.000  C
  C5       1.0000 0.77800  0.63790  0.00920  Biso   1.000  C
  H3       1.0000 0.79890  0.63420  0.04920  Biso   1.000  H
  C6       1.0000 0.06000  0.30180  0.46980  Biso   1.000  C
  C7       1.0000 0.23520  0.06460  0.38840  Biso   1.000  C
  H4       1.0000 0.21320  0.05750  0.34860  Biso   1.000  H
  C8       1.0000 0.50360  0.38370  0.99630  Biso   1.000  C
  H5       1.0000 0.52320  0.38230  0.03650  Biso   1.000  H
  C9       1.0000 0.72010  0.65210  0.89220  Biso   1.000  C
  H6       1.0000 0.69990  0.65660  0.85220  Biso   1.000  H
  C10      1.0000 0.20970  0.22640  0.58730  Biso   1.000  C
  C11      1.0000 0.29790  0.08430  0.50470  Biso   1.000  C
  H7       1.0000 0.32020  0.08880  0.54460  Biso   1.000  H
  C12      1.0000 0.53360  0.42640  0.96667  Biso   1.000  C
  C13      1.0000 0.02600  0.33530  0.49960  Biso   1.000  C
  H8       1.0000 0.04340  0.33060  0.53960  Biso   1.000  H
  C14      1.0000 0.96690  0.37530  0.46940  Biso   1.000  C
  H9       1.0000 0.94460  0.39710  0.48980  Biso   1.000  H
  C15      1.0000 0.24330  0.23710  0.65100  Biso   1.000  C
  C16      1.0000 0.68250  0.55180  0.00660  Biso   1.000  C
  C17      1.0000 0.71550  0.60150  0.97750  Biso   1.000  C
  C18      1.0000 0.68030  0.50220  0.08790  Biso   1.000  C
  C19      1.0000 0.67910  0.45590  0.18100  Biso   1.000  C
  H10      1.0000 0.63500  0.43840  0.16090  Biso   1.000  H
  C20      1.0000 0.20540  0.17210  0.50510  Biso   1.000  C
  C21      1.0000 0.97340  0.35450  0.38390  Biso   1.000  C
  H11      1.0000 0.95620  0.36230  0.34410  Biso   1.000  H
  C22      1.0000 0.80740  0.50490  0.24250  Biso   1.000  C
  H12      1.0000 0.85150  0.52160  0.26340  Biso   1.000  H
  C23      1.0000 0.23590  0.12140  0.47440  Biso   1.000  C
  C24      1.0000 0.32560  0.04040  0.47380  Biso   1.000  C
  H13      1.0000 0.36760  0.01690  0.49410  Biso   1.000  H
  C25      1.0000 0.20380  0.10990  0.41500  Biso   1.000  C
  H14      1.0000 0.16180  0.13250  0.39340  Biso   1.000  H
  C26      1.0000 0.71240  0.49150  0.15170  Biso   1.000  C
  C27      1.0000 0.80790  0.67980  0.97900  Biso   1.000  C
  H15      1.0000 0.84930  0.70430  0.00010  Biso   1.000  H
  C28      1.0000 0.68650  0.61000  0.91830  Biso   1.000  C
  H16      1.0000 0.64460  0.58750  0.89620  Biso   1.000  H
  C29      1.0000 0.50240  0.42710  0.90700  Biso   1.000  C
  H17      1.0000 0.52060  0.45630  0.88600  Biso   1.000  H
  C30      1.0000 0.44360  0.38350  0.87900  Biso   1.000  C
  H18      1.0000 0.42370  0.38270  0.83880  Biso   1.000  H
  C31      1.0000 0.71190  0.44660  0.24040  Biso   1.000  C
  H19      1.0000 0.68900  0.42270  0.25960  Biso   1.000  H
  C32      1.0000 0.21550  0.28860  0.67780  Biso   1.000  C
  H20      1.0000 0.17700  0.31830  0.65610  Biso   1.000  H
  C33      1.0000 0.24580  0.29520  0.73720  Biso   1.000  C
  H21      1.0000 0.22690  0.33020  0.75470  Biso   1.000  H
  C34      1.0000 0.30230  0.19780  0.68490  Biso   1.000  C
  H22      1.0000 0.32410  0.16580  0.66820  Biso   1.000  H
  C35      1.0000 0.77830  0.51670  0.18330  Biso   1.000  C
  H23      1.0000 0.80220  0.54090  0.16510  Biso   1.000  H
  C36      1.0000 0.32840  0.20720  0.74410  Biso   1.000  C
  H24      1.0000 0.36760  0.17920  0.76670  Biso   1.000  H
  N1       1.0000 0.93922  0.38460  0.41173  Biso   1.000  N
  N2       1.0000 0.29547  0.03020  0.41670  Biso   1.000  N
  N3       1.0000 0.30080  0.25390  0.77089  Biso   1.000  N
  N4       1.0000 0.15295  0.26800  0.55910  Biso   1.000  N
  N5       1.0000 0.14800  0.21090  0.47237  Biso   1.000  N
  N6       1.0000 0.23813  0.17760  0.56265  Biso   1.000  N
  N7       1.0000 0.41350  0.34230  0.90683  Biso   1.000  N
  N8       1.0000 0.78020  0.68680  0.92143  Biso   1.000  N
  N9       1.0000 0.77580  0.47100  0.27145  Biso   1.000  N
  N10      1.0000 0.62287  0.46240  0.05853  Biso   1.000  N
  N11      1.0000 0.62625  0.51150  0.97295  Biso   1.000  N
  N12      1.0000 0.71152  0.54950  0.06460  Biso   1.000  N
  Ag3      1.0000 0.84417  0.45761  0.36780  Biso   1.000  Ag
  Ag4      1.0000 0.82282  0.75282  0.86720  Biso   1.000  Ag
  C37      1.0000 0.62390  0.75680  0.50186  Biso   1.000  C
  C38      1.0000 0.53320  0.81230  0.41090  Biso   1.000  C
  H25      1.0000 0.55490  0.79140  0.38970  Biso   1.000  H
  C39      1.0000 0.94410  0.84350  0.96480  Biso   1.000  C
  H26      1.0000 0.92410  0.81560  0.98490  Biso   1.000  H
  C40      1.0000 0.09780  0.97020  0.00070  Biso   1.000  C
  C41      1.0000 0.27800  0.13790  0.00920  Biso   1.000  C
  H27      1.0000 0.29890  0.13420  0.04920  Biso   1.000  H
  C42      1.0000 0.56000  0.80180  0.46980  Biso   1.000  C
  C43      1.0000 0.73520  0.56460  0.38840  Biso   1.000  C
  H28      1.0000 0.71320  0.55750  0.34860  Biso   1.000  H
  C44      1.0000 0.00360  0.88370  0.99630  Biso   1.000  C
  H29      1.0000 0.02320  0.88230  0.03650  Biso   1.000  H
  C45      1.0000 0.22010  0.15210  0.89220  Biso   1.000  C
  H30      1.0000 0.19990  0.15660  0.85220  Biso   1.000  H
  C46      1.0000 0.70970  0.72640  0.58730  Biso   1.000  C
  C47      1.0000 0.79790  0.58430  0.50470  Biso   1.000  C
  H31      1.0000 0.82020  0.58880  0.54460  Biso   1.000  H
  C48      1.0000 0.03360  0.92640  0.96667  Biso   1.000  C
  C49      1.0000 0.52600  0.83530  0.49960  Biso   1.000  C
  H32      1.0000 0.54340  0.83060  0.53960  Biso   1.000  H
  C50      1.0000 0.46690  0.87530  0.46940  Biso   1.000  C
  H33      1.0000 0.44460  0.89710  0.48980  Biso   1.000  H
  C51      1.0000 0.74330  0.73710  0.65100  Biso   1.000  C
  C52      1.0000 0.18250  0.05180  0.00660  Biso   1.000  C
  C53      1.0000 0.21550  0.10150  0.97750  Biso   1.000  C
  C54      1.0000 0.18030  0.00220  0.08790  Biso   1.000  C
  C55      1.0000 0.17910  0.95590  0.18100  Biso   1.000  C
  H34      1.0000 0.13500  0.93840  0.16090  Biso   1.000  H
  C56      1.0000 0.70540  0.67210  0.50510  Biso   1.000  C
  C57      1.0000 0.47340  0.85450  0.38390  Biso   1.000  C
  H35      1.0000 0.45620  0.86230  0.34410  Biso   1.000  H
  C58      1.0000 0.30740  0.00490  0.24250  Biso   1.000  C
  H36      1.0000 0.35150  0.02160  0.26340  Biso   1.000  H
  C59      1.0000 0.73590  0.62140  0.47440  Biso   1.000  C
  C60      1.0000 0.82560  0.54040  0.47380  Biso   1.000  C
  H37      1.0000 0.86760  0.51690  0.49410  Biso   1.000  H
  C61      1.0000 0.70380  0.60990  0.41500  Biso   1.000  C
  H38      1.0000 0.66180  0.63250  0.39340  Biso   1.000  H
  C62      1.0000 0.21240  0.99150  0.15170  Biso   1.000  C
  C63      1.0000 0.30790  0.17980  0.97900  Biso   1.000  C
  H39      1.0000 0.34930  0.20430  0.00010  Biso   1.000  H
  C64      1.0000 0.18650  0.11000  0.91830  Biso   1.000  C
  H40      1.0000 0.14460  0.08750  0.89620  Biso   1.000  H
  C65      1.0000 0.00240  0.92710  0.90700  Biso   1.000  C
  H41      1.0000 0.02060  0.95630  0.88600  Biso   1.000  H
  C66      1.0000 0.94360  0.88350  0.87900  Biso   1.000  C
  H42      1.0000 0.92370  0.88270  0.83880  Biso   1.000  H
  C67      1.0000 0.21190  0.94660  0.24040  Biso   1.000  C
  H43      1.0000 0.18900  0.92270  0.25960  Biso   1.000  H
  C68      1.0000 0.71550  0.78860  0.67780  Biso   1.000  C
  H44      1.0000 0.67700  0.81830  0.65610  Biso   1.000  H
  C69      1.0000 0.74580  0.79520  0.73720  Biso   1.000  C
  H45      1.0000 0.72690  0.83020  0.75470  Biso   1.000  H
  C70      1.0000 0.80230  0.69780  0.68490  Biso   1.000  C
  H46      1.0000 0.82410  0.66580  0.66820  Biso   1.000  H
  C71      1.0000 0.27830  0.01670  0.18330  Biso   1.000  C
  H47      1.0000 0.30220  0.04090  0.16510  Biso   1.000  H
  C72      1.0000 0.82840  0.70720  0.74410  Biso   1.000  C
  H48      1.0000 0.86760  0.67920  0.76670  Biso   1.000  H
  N13      1.0000 0.43922  0.88460  0.41173  Biso   1.000  N
  N14      1.0000 0.79547  0.53020  0.41670  Biso   1.000  N
  N15      1.0000 0.80080  0.75390  0.77089  Biso   1.000  N
  N16      1.0000 0.65295  0.76800  0.55910  Biso   1.000  N
  N17      1.0000 0.64800  0.71090  0.47237  Biso   1.000  N
  N18      1.0000 0.73813  0.67760  0.56265  Biso   1.000  N
  N19      1.0000 0.91350  0.84230  0.90683  Biso   1.000  N
  N20      1.0000 0.28020  0.18680  0.92143  Biso   1.000  N
  N21      1.0000 0.27580  0.97100  0.27145  Biso   1.000  N
  N22      1.0000 0.12287  0.96240  0.05853  Biso   1.000  N
  N23      1.0000 0.12625  0.01150  0.97295  Biso   1.000  N
  N24      1.0000 0.21152  0.04950  0.06460  Biso   1.000  N
  Ag5      1.0000 0.65583  0.95761  0.13220  Biso   1.000  Ag
  Ag6      1.0000 0.67718  0.25282  0.63280  Biso   1.000  Ag
  C73      1.0000 0.87610  0.25680  0.99814  Biso   1.000  C
  C74      1.0000 0.96680  0.31230  0.08910  Biso   1.000  C
  H49      1.0000 0.94510  0.29140  0.11030  Biso   1.000  H
  C75      1.0000 0.55590  0.34350  0.53520  Biso   1.000  C
  H50      1.0000 0.57590  0.31560  0.51510  Biso   1.000  H
  C76      1.0000 0.40220  0.47020  0.49930  Biso   1.000  C
  C77      1.0000 0.22200  0.63790  0.49080  Biso   1.000  C
  H51      1.0000 0.20110  0.63420  0.45080  Biso   1.000  H
  C78      1.0000 0.94000  0.30180  0.03020  Biso   1.000  C
  C79      1.0000 0.76480  0.06460  0.11160  Biso   1.000  C
  H52      1.0000 0.78680  0.05750  0.15140  Biso   1.000  H
  C80      1.0000 0.49640  0.38370  0.50370  Biso   1.000  C
  H53      1.0000 0.47680  0.38230  0.46350  Biso   1.000  H
  C81      1.0000 0.27990  0.65210  0.60780  Biso   1.000  C
  H54      1.0000 0.30010  0.65660  0.64780  Biso   1.000  H
  C82      1.0000 0.79030  0.22640  0.91270  Biso   1.000  C
  C83      1.0000 0.70210  0.08430  0.99530  Biso   1.000  C
  H55      1.0000 0.67980  0.08880  0.95540  Biso   1.000  H
  C84      1.0000 0.46640  0.42640  0.53333  Biso   1.000  C
  C85      1.0000 0.97400  0.33530  0.00040  Biso   1.000  C
  H56      1.0000 0.95660  0.33060  0.96040  Biso   1.000  H
  C86      1.0000 0.03310  0.37530  0.03060  Biso   1.000  C
  H57      1.0000 0.05540  0.39710  0.01020  Biso   1.000  H
  C87      1.0000 0.75670  0.23710  0.84900  Biso   1.000  C
  C88      1.0000 0.31750  0.55180  0.49340  Biso   1.000  C
  C89      1.0000 0.28450  0.60150  0.52250  Biso   1.000  C
  C90      1.0000 0.31970  0.50220  0.41210  Biso   1.000  C
  C91      1.0000 0.32090  0.45590  0.31900  Biso   1.000  C
  H58      1.0000 0.36500  0.43840  0.33910  Biso   1.000  H
  C92      1.0000 0.79460  0.17210  0.99490  Biso   1.000  C
  C93      1.0000 0.02660  0.35450  0.11610  Biso   1.000  C
  H59      1.0000 0.04380  0.36230  0.15590  Biso   1.000  H
  C94      1.0000 0.19260  0.50490  0.25750  Biso   1.000  C
  H60      1.0000 0.14850  0.52160  0.23660  Biso   1.000  H
  C95      1.0000 0.76410  0.12140  0.02560  Biso   1.000  C
  C96      1.0000 0.67440  0.04040  0.02620  Biso   1.000  C
  H61      1.0000 0.63240  0.01690  0.00590  Biso   1.000  H
  C97      1.0000 0.79620  0.10990  0.08500  Biso   1.000  C
  H62      1.0000 0.83820  0.13250  0.10660  Biso   1.000  H
  C98      1.0000 0.28760  0.49150  0.34830  Biso   1.000  C
  C99      1.0000 0.19210  0.67980  0.52100  Biso   1.000  C
  H63      1.0000 0.15070  0.70430  0.49990  Biso   1.000  H
  C100     1.0000 0.31350  0.61000  0.58170  Biso   1.000  C
  H64      1.0000 0.35540  0.58750  0.60380  Biso   1.000  H
  C101     1.0000 0.49760  0.42710  0.59300  Biso   1.000  C
  H65      1.0000 0.47940  0.45630  0.61400  Biso   1.000  H
  C102     1.0000 0.55640  0.38350  0.62100  Biso   1.000  C
  H66      1.0000 0.57630  0.38270  0.66120  Biso   1.000  H
  C103     1.0000 0.28810  0.44660  0.25960  Biso   1.000  C
  H67      1.0000 0.31100  0.42270  0.24040  Biso   1.000  H
  C104     1.0000 0.78450  0.28860  0.82220  Biso   1.000  C
  H68      1.0000 0.82300  0.31830  0.84390  Biso   1.000  H
  C105     1.0000 0.75420  0.29520  0.76280  Biso   1.000  C
  H69      1.0000 0.77310  0.33020  0.74530  Biso   1.000  H
  C106     1.0000 0.69770  0.19780  0.81510  Biso   1.000  C
  H70      1.0000 0.67590  0.16580  0.83180  Biso   1.000  H
  C107     1.0000 0.22170  0.51670  0.31670  Biso   1.000  C
  H71      1.0000 0.19780  0.54090  0.33490  Biso   1.000  H
  C108     1.0000 0.67160  0.20720  0.75590  Biso   1.000  C
  H72      1.0000 0.63240  0.17920  0.73330  Biso   1.000  H
  N25      1.0000 0.06078  0.38460  0.08827  Biso   1.000  N
  N26      1.0000 0.70453  0.03020  0.08330  Biso   1.000  N
  N27      1.0000 0.69920  0.25390  0.72911  Biso   1.000  N
  N28      1.0000 0.84705  0.26800  0.94090  Biso   1.000  N
  N29      1.0000 0.85200  0.21090  0.02763  Biso   1.000  N
  N30      1.0000 0.76187  0.17760  0.93735  Biso   1.000  N
  N31      1.0000 0.58650  0.34230  0.59317  Biso   1.000  N
  N32      1.0000 0.21980  0.68680  0.57857  Biso   1.000  N
  N33      1.0000 0.22420  0.47100  0.22855  Biso   1.000  N
  N34      1.0000 0.37713  0.46240  0.44147  Biso   1.000  N
  N35      1.0000 0.37375  0.51150  0.52705  Biso   1.000  N
  N36      1.0000 0.28848  0.54950  0.43540  Biso   1.000  N
  Ag7      1.0000 0.15583  0.45761  0.13220  Biso   1.000  Ag
  Ag8      1.0000 0.17718  0.75282  0.63280  Biso   1.000  Ag
  C109     1.0000 0.37610  0.75680  0.99814  Biso   1.000  C
  C110     1.0000 0.46680  0.81230  0.08910  Biso   1.000  C
  H73      1.0000 0.44510  0.79140  0.11030  Biso   1.000  H
  C111     1.0000 0.05590  0.84350  0.53520  Biso   1.000  C
  H74      1.0000 0.07590  0.81560  0.51510  Biso   1.000  H
  C112     1.0000 0.90220  0.97020  0.49930  Biso   1.000  C
  C113     1.0000 0.72200  0.13790  0.49080  Biso   1.000  C
  H75      1.0000 0.70110  0.13420  0.45080  Biso   1.000  H
  C114     1.0000 0.44000  0.80180  0.03020  Biso   1.000  C
  C115     1.0000 0.26480  0.56460  0.11160  Biso   1.000  C
  H76      1.0000 0.28680  0.55750  0.15140  Biso   1.000  H
  C116     1.0000 0.99640  0.88370  0.50370  Biso   1.000  C
  H77      1.0000 0.97680  0.88230  0.46350  Biso   1.000  H
  C117     1.0000 0.77990  0.15210  0.60780  Biso   1.000  C
  H78      1.0000 0.80010  0.15660  0.64780  Biso   1.000  H
  C118     1.0000 0.29030  0.72640  0.91270  Biso   1.000  C
  C119     1.0000 0.20210  0.58430  0.99530  Biso   1.000  C
  H79      1.0000 0.17980  0.58880  0.95540  Biso   1.000  H
  C120     1.0000 0.96640  0.92640  0.53333  Biso   1.000  C
  C121     1.0000 0.47400  0.83530  0.00040  Biso   1.000  C
  H80      1.0000 0.45660  0.83060  0.96040  Biso   1.000  H
  C122     1.0000 0.53310  0.87530  0.03060  Biso   1.000  C
  H81      1.0000 0.55540  0.89710  0.01020  Biso   1.000  H
  C123     1.0000 0.25670  0.73710  0.84900  Biso   1.000  C
  C124     1.0000 0.81750  0.05180  0.49340  Biso   1.000  C
  C125     1.0000 0.78450  0.10150  0.52250  Biso   1.000  C
  C126     1.0000 0.81970  0.00220  0.41210  Biso   1.000  C
  C127     1.0000 0.82090  0.95590  0.31900  Biso   1.000  C
  H82      1.0000 0.86500  0.93840  0.33910  Biso   1.000  H
  C128     1.0000 0.29460  0.67210  0.99490  Biso   1.000  C
  C129     1.0000 0.52660  0.85450  0.11610  Biso   1.000  C
  H83      1.0000 0.54380  0.86230  0.15590  Biso   1.000  H
  C130     1.0000 0.69260  0.00490  0.25750  Biso   1.000  C
  H84      1.0000 0.64850  0.02160  0.23660  Biso   1.000  H
  C131     1.0000 0.26410  0.62140  0.02560  Biso   1.000  C
  C132     1.0000 0.17440  0.54040  0.02620  Biso   1.000  C
  H85      1.0000 0.13240  0.51690  0.00590  Biso   1.000  H
  C133     1.0000 0.29620  0.60990  0.08500  Biso   1.000  C
  H86      1.0000 0.33820  0.63250  0.10660  Biso   1.000  H
  C134     1.0000 0.78760  0.99150  0.34830  Biso   1.000  C
  C135     1.0000 0.69210  0.17980  0.52100  Biso   1.000  C
  H87      1.0000 0.65070  0.20430  0.49990  Biso   1.000  H
  C136     1.0000 0.81350  0.11000  0.58170  Biso   1.000  C
  H88      1.0000 0.85540  0.08750  0.60380  Biso   1.000  H
  C137     1.0000 0.99760  0.92710  0.59300  Biso   1.000  C
  H89      1.0000 0.97940  0.95630  0.61400  Biso   1.000  H
  C138     1.0000 0.05640  0.88350  0.62100  Biso   1.000  C
  H90      1.0000 0.07630  0.88270  0.66120  Biso   1.000  H
  C139     1.0000 0.78810  0.94660  0.25960  Biso   1.000  C
  H91      1.0000 0.81100  0.92270  0.24040  Biso   1.000  H
  C140     1.0000 0.28450  0.78860  0.82220  Biso   1.000  C
  H92      1.0000 0.32300  0.81830  0.84390  Biso   1.000  H
  C141     1.0000 0.25420  0.79520  0.76280  Biso   1.000  C
  H93      1.0000 0.27310  0.83020  0.74530  Biso   1.000  H
  C142     1.0000 0.19770  0.69780  0.81510  Biso   1.000  C
  H94      1.0000 0.17590  0.66580  0.83180  Biso   1.000  H
  C143     1.0000 0.72170  0.01670  0.31670  Biso   1.000  C
  H95      1.0000 0.69780  0.04090  0.33490  Biso   1.000  H
  C144     1.0000 0.17160  0.70720  0.75590  Biso   1.000  C
  H96      1.0000 0.13240  0.67920  0.73330  Biso   1.000  H
  N37      1.0000 0.56078  0.88460  0.08827  Biso   1.000  N
  N38      1.0000 0.20453  0.53020  0.08330  Biso   1.000  N
  N39      1.0000 0.19920  0.75390  0.72911  Biso   1.000  N
  N40      1.0000 0.34705  0.76800  0.94090  Biso   1.000  N
  N41      1.0000 0.35200  0.71090  0.02763  Biso   1.000  N
  N42      1.0000 0.26187  0.67760  0.93735  Biso   1.000  N
  N43      1.0000 0.08650  0.84230  0.59317  Biso   1.000  N
  N44      1.0000 0.71980  0.18680  0.57857  Biso   1.000  N
  N45      1.0000 0.72420  0.97100  0.22855  Biso   1.000  N
  N46      1.0000 0.87713  0.96240  0.44147  Biso   1.000  N
  N47      1.0000 0.87375  0.01150  0.52705  Biso   1.000  N
  N48      1.0000 0.78848  0.04950  0.43540  Biso   1.000  N
  Ag9      1.0000 0.65583  0.04239  0.63220  Biso   1.000  Ag
  Ag10     1.0000 0.67718  0.74718  0.13280  Biso   1.000  Ag
  C145     1.0000 0.87610  0.74320  0.49814  Biso   1.000  C
  C146     1.0000 0.96680  0.68770  0.58910  Biso   1.000  C
  H97      1.0000 0.94510  0.70860  0.61030  Biso   1.000  H
  C147     1.0000 0.55590  0.65650  0.03520  Biso   1.000  C
  H98      1.0000 0.57590  0.68440  0.01510  Biso   1.000  H
  C148     1.0000 0.40220  0.52980  0.99930  Biso   1.000  C
  C149     1.0000 0.22200  0.36210  0.99080  Biso   1.000  C
  H99      1.0000 0.20110  0.36580  0.95080  Biso   1.000  H
  C150     1.0000 0.94000  0.69820  0.53020  Biso   1.000  C
  C151     1.0000 0.76480  0.93540  0.61160  Biso   1.000  C
  H100     1.0000 0.78680  0.94250  0.65140  Biso   1.000  H
  C152     1.0000 0.49640  0.61630  0.00370  Biso   1.000  C
  H101     1.0000 0.47680  0.61770  0.96350  Biso   1.000  H
  C153     1.0000 0.27990  0.34790  0.10780  Biso   1.000  C
  H102     1.0000 0.30010  0.34340  0.14780  Biso   1.000  H
  C154     1.0000 0.79030  0.77360  0.41270  Biso   1.000  C
  C155     1.0000 0.70210  0.91570  0.49530  Biso   1.000  C
  H103     1.0000 0.67980  0.91120  0.45540  Biso   1.000  H
  C156     1.0000 0.46640  0.57360  0.03333  Biso   1.000  C
  C157     1.0000 0.97400  0.66470  0.50040  Biso   1.000  C
  H104     1.0000 0.95660  0.66940  0.46040  Biso   1.000  H
  C158     1.0000 0.03310  0.62470  0.53060  Biso   1.000  C
  H105     1.0000 0.05540  0.60290  0.51020  Biso   1.000  H
  C159     1.0000 0.75670  0.76290  0.34900  Biso   1.000  C
  C160     1.0000 0.31750  0.44820  0.99340  Biso   1.000  C
  C161     1.0000 0.28450  0.39850  0.02250  Biso   1.000  C
  C162     1.0000 0.31970  0.49780  0.91210  Biso   1.000  C
  C163     1.0000 0.32090  0.54410  0.81900  Biso   1.000  C
  H106     1.0000 0.36500  0.56160  0.83910  Biso   1.000  H
  C164     1.0000 0.79460  0.82790  0.49490  Biso   1.000  C
  C165     1.0000 0.02660  0.64550  0.61610  Biso   1.000  C
  H107     1.0000 0.04380  0.63770  0.65590  Biso   1.000  H
  C166     1.0000 0.19260  0.49510  0.75750  Biso   1.000  C
  H108     1.0000 0.14850  0.47840  0.73660  Biso   1.000  H
  C167     1.0000 0.76410  0.87860  0.52560  Biso   1.000  C
  C168     1.0000 0.67440  0.95960  0.52620  Biso   1.000  C
  H109     1.0000 0.63240  0.98310  0.50590  Biso   1.000  H
  C169     1.0000 0.79620  0.89010  0.58500  Biso   1.000  C
  H110     1.0000 0.83820  0.86750  0.60660  Biso   1.000  H
  C170     1.0000 0.28760  0.50850  0.84830  Biso   1.000  C
  C171     1.0000 0.19210  0.32020  0.02100  Biso   1.000  C
  H111     1.0000 0.15070  0.29570  0.99990  Biso   1.000  H
  C172     1.0000 0.31350  0.39000  0.08170  Biso   1.000  C
  H112     1.0000 0.35540  0.41250  0.10380  Biso   1.000  H
  C173     1.0000 0.49760  0.57290  0.09300  Biso   1.000  C
  H113     1.0000 0.47940  0.54370  0.11400  Biso   1.000  H
  C174     1.0000 0.55640  0.61650  0.12100  Biso   1.000  C
  H114     1.0000 0.57630  0.61730  0.16120  Biso   1.000  H
  C175     1.0000 0.28810  0.55340  0.75960  Biso   1.000  C
  H115     1.0000 0.31100  0.57730  0.74040  Biso   1.000  H
  C176     1.0000 0.78450  0.71140  0.32220  Biso   1.000  C
  H116     1.0000 0.82300  0.68170  0.34390  Biso   1.000  H
  C177     1.0000 0.75420  0.70480  0.26280  Biso   1.000  C
  H117     1.0000 0.77310  0.66980  0.24530  Biso   1.000  H
  C178     1.0000 0.69770  0.80220  0.31510  Biso   1.000  C
  H118     1.0000 0.67590  0.83420  0.33180  Biso   1.000  H
  C179     1.0000 0.22170  0.48330  0.81670  Biso   1.000  C
  H119     1.0000 0.19780  0.45910  0.83490  Biso   1.000  H
  C180     1.0000 0.67160  0.79280  0.25590  Biso   1.000  C
  H120     1.0000 0.63240  0.82080  0.23330  Biso   1.000  H
  N49      1.0000 0.06078  0.61540  0.58827  Biso   1.000  N
  N50      1.0000 0.70453  0.96980  0.58330  Biso   1.000  N
  N51      1.0000 0.69920  0.74610  0.22911  Biso   1.000  N
  N52      1.0000 0.84705  0.73200  0.44090  Biso   1.000  N
  N53      1.0000 0.85200  0.78910  0.52763  Biso   1.000  N
  N54      1.0000 0.76187  0.82240  0.43735  Biso   1.000  N
  N55      1.0000 0.58650  0.65770  0.09317  Biso   1.000  N
  N56      1.0000 0.21980  0.31320  0.07857  Biso   1.000  N
  N57      1.0000 0.22420  0.52900  0.72855  Biso   1.000  N
  N58      1.0000 0.37713  0.53760  0.94147  Biso   1.000  N
  N59      1.0000 0.37375  0.48850  0.02705  Biso   1.000  N
  N60      1.0000 0.28848  0.45050  0.93540  Biso   1.000  N
  Ag11     1.0000 0.15583  0.54239  0.63220  Biso   1.000  Ag
  Ag12     1.0000 0.17718  0.24718  0.13280  Biso   1.000  Ag
  C181     1.0000 0.37610  0.24320  0.49814  Biso   1.000  C
  C182     1.0000 0.46680  0.18770  0.58910  Biso   1.000  C
  H121     1.0000 0.44510  0.20860  0.61030  Biso   1.000  H
  C183     1.0000 0.05590  0.15650  0.03520  Biso   1.000  C
  H122     1.0000 0.07590  0.18440  0.01510  Biso   1.000  H
  C184     1.0000 0.90220  0.02980  0.99930  Biso   1.000  C
  C185     1.0000 0.72200  0.86210  0.99080  Biso   1.000  C
  H123     1.0000 0.70110  0.86580  0.95080  Biso   1.000  H
  C186     1.0000 0.44000  0.19820  0.53020  Biso   1.000  C
  C187     1.0000 0.26480  0.43540  0.61160  Biso   1.000  C
  H124     1.0000 0.28680  0.44250  0.65140  Biso   1.000  H
  C188     1.0000 0.99640  0.11630  0.00370  Biso   1.000  C
  H125     1.0000 0.97680  0.11770  0.96350  Biso   1.000  H
  C189     1.0000 0.77990  0.84790  0.10780  Biso   1.000  C
  H126     1.0000 0.80010  0.84340  0.14780  Biso   1.000  H
  C190     1.0000 0.29030  0.27360  0.41270  Biso   1.000  C
  C191     1.0000 0.20210  0.41570  0.49530  Biso   1.000  C
  H127     1.0000 0.17980  0.41120  0.45540  Biso   1.000  H
  C192     1.0000 0.96640  0.07360  0.03333  Biso   1.000  C
  C193     1.0000 0.47400  0.16470  0.50040  Biso   1.000  C
  H128     1.0000 0.45660  0.16940  0.46040  Biso   1.000  H
  C194     1.0000 0.53310  0.12470  0.53060  Biso   1.000  C
  H129     1.0000 0.55540  0.10290  0.51020  Biso   1.000  H
  C195     1.0000 0.25670  0.26290  0.34900  Biso   1.000  C
  C196     1.0000 0.81750  0.94820  0.99340  Biso   1.000  C
  C197     1.0000 0.78450  0.89850  0.02250  Biso   1.000  C
  C198     1.0000 0.81970  0.99780  0.91210  Biso   1.000  C
  C199     1.0000 0.82090  0.04410  0.81900  Biso   1.000  C
  H130     1.0000 0.86500  0.06160  0.83910  Biso   1.000  H
  C200     1.0000 0.29460  0.32790  0.49490  Biso   1.000  C
  C201     1.0000 0.52660  0.14550  0.61610  Biso   1.000  C
  H131     1.0000 0.54380  0.13770  0.65590  Biso   1.000  H
  C202     1.0000 0.69260  0.99510  0.75750  Biso   1.000  C
  H132     1.0000 0.64850  0.97840  0.73660  Biso   1.000  H
  C203     1.0000 0.26410  0.37860  0.52560  Biso   1.000  C
  C204     1.0000 0.17440  0.45960  0.52620  Biso   1.000  C
  H133     1.0000 0.13240  0.48310  0.50590  Biso   1.000  H
  C205     1.0000 0.29620  0.39010  0.58500  Biso   1.000  C
  H134     1.0000 0.33820  0.36750  0.60660  Biso   1.000  H
  C206     1.0000 0.78760  0.00850  0.84830  Biso   1.000  C
  C207     1.0000 0.69210  0.82020  0.02100  Biso   1.000  C
  H135     1.0000 0.65070  0.79570  0.99990  Biso   1.000  H
  C208     1.0000 0.81350  0.89000  0.08170  Biso   1.000  C
  H136     1.0000 0.85540  0.91250  0.10380  Biso   1.000  H
  C209     1.0000 0.99760  0.07290  0.09300  Biso   1.000  C
  H137     1.0000 0.97940  0.04370  0.11400  Biso   1.000  H
  C210     1.0000 0.05640  0.11650  0.12100  Biso   1.000  C
  H138     1.0000 0.07630  0.11730  0.16120  Biso   1.000  H
  C211     1.0000 0.78810  0.05340  0.75960  Biso   1.000  C
  H139     1.0000 0.81100  0.07730  0.74040  Biso   1.000  H
  C212     1.0000 0.28450  0.21140  0.32220  Biso   1.000  C
  H140     1.0000 0.32300  0.18170  0.34390  Biso   1.000  H
  C213     1.0000 0.25420  0.20480  0.26280  Biso   1.000  C
  H141     1.0000 0.27310  0.16980  0.24530  Biso   1.000  H
  C214     1.0000 0.19770  0.30220  0.31510  Biso   1.000  C
  H142     1.0000 0.17590  0.33420  0.33180  Biso   1.000  H
  C215     1.0000 0.72170  0.98330  0.81670  Biso   1.000  C
  H143     1.0000 0.69780  0.95910  0.83490  Biso   1.000  H
  C216     1.0000 0.17160  0.29280  0.25590  Biso   1.000  C
  H144     1.0000 0.13240  0.32080  0.23330  Biso   1.000  H
  N61      1.0000 0.56078  0.11540  0.58827  Biso   1.000  N
  N62      1.0000 0.20453  0.46980  0.58330  Biso   1.000  N
  N63      1.0000 0.19920  0.24610  0.22911  Biso   1.000  N
  N64      1.0000 0.34705  0.23200  0.44090  Biso   1.000  N
  N65      1.0000 0.35200  0.28910  0.52763  Biso   1.000  N
  N66      1.0000 0.26187  0.32240  0.43735  Biso   1.000  N
  N67      1.0000 0.08650  0.15770  0.09317  Biso   1.000  N
  N68      1.0000 0.71980  0.81320  0.07857  Biso   1.000  N
  N69      1.0000 0.72420  0.02900  0.72855  Biso   1.000  N
  N70      1.0000 0.87713  0.03760  0.94147  Biso   1.000  N
  N71      1.0000 0.87375  0.98850  0.02705  Biso   1.000  N
  N72      1.0000 0.78848  0.95050  0.93540  Biso   1.000  N
  Ag13     1.0000 0.34417  0.04239  0.86780  Biso   1.000  Ag
  Ag14     1.0000 0.32282  0.74718  0.36720  Biso   1.000  Ag
  C217     1.0000 0.12390  0.74320  0.00186  Biso   1.000  C
  C218     1.0000 0.03320  0.68770  0.91090  Biso   1.000  C
  H145     1.0000 0.05490  0.70860  0.88970  Biso   1.000  H
  C219     1.0000 0.44410  0.65650  0.46480  Biso   1.000  C
  H146     1.0000 0.42410  0.68440  0.48490  Biso   1.000  H
  C220     1.0000 0.59780  0.52980  0.50070  Biso   1.000  C
  C221     1.0000 0.77800  0.36210  0.50920  Biso   1.000  C
  H147     1.0000 0.79890  0.36580  0.54920  Biso   1.000  H
  C222     1.0000 0.06000  0.69820  0.96980  Biso   1.000  C
  C223     1.0000 0.23520  0.93540  0.88840  Biso   1.000  C
  H148     1.0000 0.21320  0.94250  0.84860  Biso   1.000  H
  C224     1.0000 0.50360  0.61630  0.49630  Biso   1.000  C
  H149     1.0000 0.52320  0.61770  0.53650  Biso   1.000  H
  C225     1.0000 0.72010  0.34790  0.39220  Biso   1.000  C
  H150     1.0000 0.69990  0.34340  0.35220  Biso   1.000  H
  C226     1.0000 0.20970  0.77360  0.08730  Biso   1.000  C
  C227     1.0000 0.29790  0.91570  0.00470  Biso   1.000  C
  H151     1.0000 0.32020  0.91120  0.04460  Biso   1.000  H
  C228     1.0000 0.53360  0.57360  0.46667  Biso   1.000  C
  C229     1.0000 0.02600  0.66470  0.99960  Biso   1.000  C
  H152     1.0000 0.04340  0.66940  0.03960  Biso   1.000  H
  C230     1.0000 0.96690  0.62470  0.96940  Biso   1.000  C
  H153     1.0000 0.94460  0.60290  0.98980  Biso   1.000  H
  C231     1.0000 0.24330  0.76290  0.15100  Biso   1.000  C
  C232     1.0000 0.68250  0.44820  0.50660  Biso   1.000  C
  C233     1.0000 0.71550  0.39850  0.47750  Biso   1.000  C
  C234     1.0000 0.68030  0.49780  0.58790  Biso   1.000  C
  C235     1.0000 0.67910  0.54410  0.68100  Biso   1.000  C
  H154     1.0000 0.63500  0.56160  0.66090  Biso   1.000  H
  C236     1.0000 0.20540  0.82790  0.00510  Biso   1.000  C
  C237     1.0000 0.97340  0.64550  0.88390  Biso   1.000  C
  H155     1.0000 0.95620  0.63770  0.84410  Biso   1.000  H
  C238     1.0000 0.80740  0.49510  0.74250  Biso   1.000  C
  H156     1.0000 0.85150  0.47840  0.76340  Biso   1.000  H
  C239     1.0000 0.23590  0.87860  0.97440  Biso   1.000  C
  C240     1.0000 0.32560  0.95960  0.97380  Biso   1.000  C
  H157     1.0000 0.36760  0.98310  0.99410  Biso   1.000  H
  C241     1.0000 0.20380  0.89010  0.91500  Biso   1.000  C
  H158     1.0000 0.16180  0.86750  0.89340  Biso   1.000  H
  C242     1.0000 0.71240  0.50850  0.65170  Biso   1.000  C
  C243     1.0000 0.80790  0.32020  0.47900  Biso   1.000  C
  H159     1.0000 0.84930  0.29570  0.50010  Biso   1.000  H
  C244     1.0000 0.68650  0.39000  0.41830  Biso   1.000  C
  H160     1.0000 0.64460  0.41250  0.39620  Biso   1.000  H
  C245     1.0000 0.50240  0.57290  0.40700  Biso   1.000  C
  H161     1.0000 0.52060  0.54370  0.38600  Biso   1.000  H
  C246     1.0000 0.44360  0.61650  0.37900  Biso   1.000  C
  H162     1.0000 0.42370  0.61730  0.33880  Biso   1.000  H
  C247     1.0000 0.71190  0.55340  0.74040  Biso   1.000  C
  H163     1.0000 0.68900  0.57730  0.75960  Biso   1.000  H
  C248     1.0000 0.21550  0.71140  0.17780  Biso   1.000  C
  H164     1.0000 0.17700  0.68170  0.15610  Biso   1.000  H
  C249     1.0000 0.24580  0.70480  0.23720  Biso   1.000  C
  H165     1.0000 0.22690  0.66980  0.25470  Biso   1.000  H
  C250     1.0000 0.30230  0.80220  0.18490  Biso   1.000  C
  H166     1.0000 0.32410  0.83420  0.16820  Biso   1.000  H
  C251     1.0000 0.77830  0.48330  0.68330  Biso   1.000  C
  H167     1.0000 0.80220  0.45910  0.66510  Biso   1.000  H
  C252     1.0000 0.32840  0.79280  0.24410  Biso   1.000  C
  H168     1.0000 0.36760  0.82080  0.26670  Biso   1.000  H
  N73      1.0000 0.93922  0.61540  0.91173  Biso   1.000  N
  N74      1.0000 0.29547  0.96980  0.91670  Biso   1.000  N
  N75      1.0000 0.30080  0.74610  0.27089  Biso   1.000  N
  N76      1.0000 0.15295  0.73200  0.05910  Biso   1.000  N
  N77      1.0000 0.14800  0.78910  0.97237  Biso   1.000  N
  N78      1.0000 0.23813  0.82240  0.06265  Biso   1.000  N
  N79      1.0000 0.41350  0.65770  0.40683  Biso   1.000  N
  N80      1.0000 0.78020  0.31320  0.42143  Biso   1.000  N
  N81      1.0000 0.77580  0.52900  0.77145  Biso   1.000  N
  N82      1.0000 0.62287  0.53760  0.55853  Biso   1.000  N
  N83      1.0000 0.62625  0.48850  0.47295  Biso   1.000  N
  N84      1.0000 0.71152  0.45050  0.56460  Biso   1.000  N
  Ag15     1.0000 0.84417  0.54239  0.86780  Biso   1.000  Ag
  Ag16     1.0000 0.82282  0.24718  0.36720  Biso   1.000  Ag
  C253     1.0000 0.62390  0.24320  0.00186  Biso   1.000  C
  C254     1.0000 0.53320  0.18770  0.91090  Biso   1.000  C
  H169     1.0000 0.55490  0.20860  0.88970  Biso   1.000  H
  C255     1.0000 0.94410  0.15650  0.46480  Biso   1.000  C
  H170     1.0000 0.92410  0.18440  0.48490  Biso   1.000  H
  C256     1.0000 0.09780  0.02980  0.50070  Biso   1.000  C
  C257     1.0000 0.27800  0.86210  0.50920  Biso   1.000  C
  H171     1.0000 0.29890  0.86580  0.54920  Biso   1.000  H
  C258     1.0000 0.56000  0.19820  0.96980  Biso   1.000  C
  C259     1.0000 0.73520  0.43540  0.88840  Biso   1.000  C
  H172     1.0000 0.71320  0.44250  0.84860  Biso   1.000  H
  C260     1.0000 0.00360  0.11630  0.49630  Biso   1.000  C
  H173     1.0000 0.02320  0.11770  0.53650  Biso   1.000  H
  C261     1.0000 0.22010  0.84790  0.39220  Biso   1.000  C
  H174     1.0000 0.19990  0.84340  0.35220  Biso   1.000  H
  C262     1.0000 0.70970  0.27360  0.08730  Biso   1.000  C
  C263     1.0000 0.79790  0.41570  0.00470  Biso   1.000  C
  H175     1.0000 0.82020  0.41120  0.04460  Biso   1.000  H
  C264     1.0000 0.03360  0.07360  0.46667  Biso   1.000  C
  C265     1.0000 0.52600  0.16470  0.99960  Biso   1.000  C
  H176     1.0000 0.54340  0.16940  0.03960  Biso   1.000  H
  C266     1.0000 0.46690  0.12470  0.96940  Biso   1.000  C
  H177     1.0000 0.44460  0.10290  0.98980  Biso   1.000  H
  C267     1.0000 0.74330  0.26290  0.15100  Biso   1.000  C
  C268     1.0000 0.18250  0.94820  0.50660  Biso   1.000  C
  C269     1.0000 0.21550  0.89850  0.47750  Biso   1.000  C
  C270     1.0000 0.18030  0.99780  0.58790  Biso   1.000  C
  C271     1.0000 0.17910  0.04410  0.68100  Biso   1.000  C
  H178     1.0000 0.13500  0.06160  0.66090  Biso   1.000  H
  C272     1.0000 0.70540  0.32790  0.00510  Biso   1.000  C
  C273     1.0000 0.47340  0.14550  0.88390  Biso   1.000  C
  H179     1.0000 0.45620  0.13770  0.84410  Biso   1.000  H
  C274     1.0000 0.30740  0.99510  0.74250  Biso   1.000  C
  H180     1.0000 0.35150  0.97840  0.76340  Biso   1.000  H
  C275     1.0000 0.73590  0.37860  0.97440  Biso   1.000  C
  C276     1.0000 0.82560  0.45960  0.97380  Biso   1.000  C
  H181     1.0000 0.86760  0.48310  0.99410  Biso   1.000  H
  C277     1.0000 0.70380  0.39010  0.91500  Biso   1.000  C
  H182     1.0000 0.66180  0.36750  0.89340  Biso   1.000  H
  C278     1.0000 0.21240  0.00850  0.65170  Biso   1.000  C
  C279     1.0000 0.30790  0.82020  0.47900  Biso   1.000  C
  H183     1.0000 0.34930  0.79570  0.50010  Biso   1.000  H
  C280     1.0000 0.18650  0.89000  0.41830  Biso   1.000  C
  H184     1.0000 0.14460  0.91250  0.39620  Biso   1.000  H
  C281     1.0000 0.00240  0.07290  0.40700  Biso   1.000  C
  H185     1.0000 0.02060  0.04370  0.38600  Biso   1.000  H
  C282     1.0000 0.94360  0.11650  0.37900  Biso   1.000  C
  H186     1.0000 0.92370  0.11730  0.33880  Biso   1.000  H
  C283     1.0000 0.21190  0.05340  0.74040  Biso   1.000  C
  H187     1.0000 0.18900  0.07730  0.75960  Biso   1.000  H
  C284     1.0000 0.71550  0.21140  0.17780  Biso   1.000  C
  H188     1.0000 0.67700  0.18170  0.15610  Biso   1.000  H
  C285     1.0000 0.74580  0.20480  0.23720  Biso   1.000  C
  H189     1.0000 0.72690  0.16980  0.25470  Biso   1.000  H
  C286     1.0000 0.80230  0.30220  0.18490  Biso   1.000  C
  H190     1.0000 0.82410  0.33420  0.16820  Biso   1.000  H
  C287     1.0000 0.27830  0.98330  0.68330  Biso   1.000  C
  H191     1.0000 0.30220  0.95910  0.66510  Biso   1.000  H
  C288     1.0000 0.82840  0.29280  0.24410  Biso   1.000  C
  H192     1.0000 0.86760  0.32080  0.26670  Biso   1.000  H
  N85      1.0000 0.43922  0.11540  0.91173  Biso   1.000  N
  N86      1.0000 0.79547  0.46980  0.91670  Biso   1.000  N
  N87      1.0000 0.80080  0.24610  0.27089  Biso   1.000  N
  N88      1.0000 0.65295  0.23200  0.05910  Biso   1.000  N
  N89      1.0000 0.64800  0.28910  0.97237  Biso   1.000  N
  N90      1.0000 0.73813  0.32240  0.06265  Biso   1.000  N
  N91      1.0000 0.91350  0.15770  0.40683  Biso   1.000  N
  N92      1.0000 0.28020  0.81320  0.42143  Biso   1.000  N
  N93      1.0000 0.27580  0.02900  0.77145  Biso   1.000  N
  N94      1.0000 0.12287  0.03760  0.55853  Biso   1.000  N
  N95      1.0000 0.12625  0.98850  0.47295  Biso   1.000  N
  N96      1.0000 0.21152  0.95050  0.56460  Biso   1.000  N
