data_image0
_cell_length_a       22.029
_cell_length_b       16.4861
_cell_length_c       25.5887
_cell_angle_alpha    90
_cell_angle_beta     115.233
_cell_angle_gamma    90

_symmetry_space_group_name_H-M    "P 1"
_symmetry_int_tables_number       1

loop_
  _symmetry_equiv_pos_as_xyz
  'x, y, z'

loop_
  _atom_site_label
  _atom_site_occupancy
  _atom_site_fract_x
  _atom_site_fract_y
  _atom_site_fract_z
  _atom_site_thermal_displace_type
  _atom_site_B_iso_or_equiv
  _atom_site_type_symbol
  Ag1      1.0000 0.34427  0.04257  0.36763  Biso   1.000  Ag
  Ag2      1.0000 0.82266  0.24623  0.86705  Biso   1.000  Ag
  C1       1.0000 0.09770  0.02930  0.00030  Biso   1.000  C
  C2       1.0000 0.27750  0.86190  0.00870  Biso   1.000  C
  H1       1.0000 0.29830  0.86540  0.04880  Biso   1.000  H
  C3       1.0000 0.62370  0.24320  0.50150  Biso   1.000  C
  C4       1.0000 0.55980  0.19830  0.46910  Biso   1.000  C
  C5       1.0000 0.73550  0.43560  0.38820  Biso   1.000  C
  H2       1.0000 0.71370  0.44270  0.34840  Biso   1.000  H
  C6       1.0000 0.79780  0.41610  0.50470  Biso   1.000  C
  H3       1.0000 0.82000  0.41210  0.54470  Biso   1.000  H
  C7       1.0000 0.94390  0.15630  0.96420  Biso   1.000  C
  H4       1.0000 0.92390  0.18430  0.98420  Biso   1.000  H
  C8       1.0000 0.21990  0.84730  0.89170  Biso   1.000  C
  H5       1.0000 0.19990  0.84250  0.85170  Biso   1.000  H
  C9       1.0000 0.53290  0.18810  0.41030  Biso   1.000  C
  H6       1.0000 0.55440  0.20910  0.38890  Biso   1.000  H
  C10      1.0000 0.70980  0.27330  0.58680  Biso   1.000  C
  C11      1.0000 0.00360  0.11580  0.99580  Biso   1.000  C
  H7       1.0000 0.02320  0.11710  0.03600  Biso   1.000  H
  C12      1.0000 0.74350  0.26330  0.65090  Biso   1.000  C
  C13      1.0000 0.18020  0.99770  0.08740  Biso   1.000  C
  C14      1.0000 0.18230  0.94820  0.00630  Biso   1.000  C
  C15      1.0000 0.17930  0.04390  0.18070  Biso   1.000  C
  H8       1.0000 0.13540  0.06200  0.16070  Biso   1.000  H
  C16      1.0000 0.03340  0.07360  0.96610  Biso   1.000  C
  C17      1.0000 0.52610  0.16450  0.49910  Biso   1.000  C
  H9       1.0000 0.54350  0.16880  0.53910  Biso   1.000  H
  C18      1.0000 0.73570  0.37890  0.47410  Biso   1.000  C
  C19      1.0000 0.21510  0.89850  0.97700  Biso   1.000  C
  C20      1.0000 0.70380  0.39020  0.41460  Biso   1.000  C
  H10      1.0000 0.66180  0.36750  0.39300  Biso   1.000  H
  C21      1.0000 0.70540  0.32780  0.50460  Biso   1.000  C
  C22      1.0000 0.21230  0.00750  0.15140  Biso   1.000  C
  C23      1.0000 0.18610  0.88970  0.91800  Biso   1.000  C
  H11      1.0000 0.14420  0.91210  0.89580  Biso   1.000  H
  C24      1.0000 0.82550  0.45920  0.47370  Biso   1.000  C
  H12      1.0000 0.86760  0.48210  0.49390  Biso   1.000  H
  C25      1.0000 0.47340  0.14630  0.38360  Biso   1.000  C
  H13      1.0000 0.45610  0.13850  0.34390  Biso   1.000  H
  C26      1.0000 0.30790  0.81980  0.97860  Biso   1.000  C
  H14      1.0000 0.34940  0.79550  0.99950  Biso   1.000  H
  C27      1.0000 0.46700  0.12470  0.46850  Biso   1.000  C
  H15      1.0000 0.44480  0.10220  0.48890  Biso   1.000  H
  C28      1.0000 0.00200  0.07250  0.90630  Biso   1.000  C
  H16      1.0000 0.01950  0.04240  0.88530  Biso   1.000  H
  C29      1.0000 0.30700  0.99470  0.24170  Biso   1.000  C
  H17      1.0000 0.35120  0.97780  0.26260  Biso   1.000  H
  C30      1.0000 0.80210  0.30150  0.68440  Biso   1.000  C
  H18      1.0000 0.82400  0.33340  0.66780  Biso   1.000  H
  C31      1.0000 0.94420  0.11690  0.87890  Biso   1.000  C
  H19      1.0000 0.92530  0.11930  0.83880  Biso   1.000  H
  C32      1.0000 0.74550  0.20490  0.73670  Biso   1.000  C
  H20      1.0000 0.72650  0.17010  0.75430  Biso   1.000  H
  C33      1.0000 0.21190  0.05330  0.23960  Biso   1.000  C
  H21      1.0000 0.18900  0.07760  0.25870  Biso   1.000  H
  C34      1.0000 0.27820  0.98320  0.18280  Biso   1.000  C
  H22      1.0000 0.30240  0.95960  0.16460  Biso   1.000  H
  C35      1.0000 0.71500  0.21140  0.67720  Biso   1.000  C
  H23      1.0000 0.67650  0.18200  0.65530  Biso   1.000  H
  C36      1.0000 0.82850  0.29190  0.74400  Biso   1.000  C
  H24      1.0000 0.86790  0.31930  0.76660  Biso   1.000  H
  N1       1.0000 0.43940  0.11640  0.41130  Biso   1.000  N
  N2       1.0000 0.79540  0.46980  0.41660  Biso   1.000  N
  N3       1.0000 0.80080  0.24600  0.77040  Biso   1.000  N
  N4       1.0000 0.65290  0.23270  0.55850  Biso   1.000  N
  N5       1.0000 0.73780  0.32240  0.56210  Biso   1.000  N
  N6       1.0000 0.64790  0.28970  0.47190  Biso   1.000  N
  N7       1.0000 0.91350  0.15710  0.90640  Biso   1.000  N
  N8       1.0000 0.27970  0.81300  0.92120  Biso   1.000  N
  N9       1.0000 0.27560  0.02880  0.27100  Biso   1.000  N
  N10      1.0000 0.12270  0.03730  0.05800  Biso   1.000  N
  N11      1.0000 0.12610  0.98770  0.97260  Biso   1.000  N
  N12      1.0000 0.21140  0.95010  0.06410  Biso   1.000  N
  Ag3      1.0000 0.84427  0.54257  0.36763  Biso   1.000  Ag
  Ag4      1.0000 0.32266  0.74623  0.86705  Biso   1.000  Ag
  C37      1.0000 0.59770  0.52930  0.00030  Biso   1.000  C
  C38      1.0000 0.77750  0.36190  0.00870  Biso   1.000  C
  H25      1.0000 0.79830  0.36540  0.04880  Biso   1.000  H
  C39      1.0000 0.12370  0.74320  0.50150  Biso   1.000  C
  C40      1.0000 0.05980  0.69830  0.46910  Biso   1.000  C
  C41      1.0000 0.23550  0.93560  0.38820  Biso   1.000  C
  H26      1.0000 0.21370  0.94270  0.34840  Biso   1.000  H
  C42      1.0000 0.29780  0.91610  0.50470  Biso   1.000  C
  H27      1.0000 0.32000  0.91210  0.54470  Biso   1.000  H
  C43      1.0000 0.44390  0.65630  0.96420  Biso   1.000  C
  H28      1.0000 0.42390  0.68430  0.98420  Biso   1.000  H
  C44      1.0000 0.71990  0.34730  0.89170  Biso   1.000  C
  H29      1.0000 0.69990  0.34250  0.85170  Biso   1.000  H
  C45      1.0000 0.03290  0.68810  0.41030  Biso   1.000  C
  H30      1.0000 0.05440  0.70910  0.38890  Biso   1.000  H
  C46      1.0000 0.20980  0.77330  0.58680  Biso   1.000  C
  C47      1.0000 0.50360  0.61580  0.99580  Biso   1.000  C
  H31      1.0000 0.52320  0.61710  0.03600  Biso   1.000  H
  C48      1.0000 0.24350  0.76330  0.65090  Biso   1.000  C
  C49      1.0000 0.68020  0.49770  0.08740  Biso   1.000  C
  C50      1.0000 0.68230  0.44820  0.00630  Biso   1.000  C
  C51      1.0000 0.67930  0.54390  0.18070  Biso   1.000  C
  H32      1.0000 0.63540  0.56200  0.16070  Biso   1.000  H
  C52      1.0000 0.53340  0.57360  0.96610  Biso   1.000  C
  C53      1.0000 0.02610  0.66450  0.49910  Biso   1.000  C
  H33      1.0000 0.04350  0.66880  0.53910  Biso   1.000  H
  C54      1.0000 0.23570  0.87890  0.47410  Biso   1.000  C
  C55      1.0000 0.71510  0.39850  0.97700  Biso   1.000  C
  C56      1.0000 0.20380  0.89020  0.41460  Biso   1.000  C
  H34      1.0000 0.16180  0.86750  0.39300  Biso   1.000  H
  C57      1.0000 0.20540  0.82780  0.50460  Biso   1.000  C
  C58      1.0000 0.71230  0.50750  0.15140  Biso   1.000  C
  C59      1.0000 0.68610  0.38970  0.91800  Biso   1.000  C
  H35      1.0000 0.64420  0.41210  0.89580  Biso   1.000  H
  C60      1.0000 0.32550  0.95920  0.47370  Biso   1.000  C
  H36      1.0000 0.36760  0.98210  0.49390  Biso   1.000  H
  C61      1.0000 0.97340  0.64630  0.38360  Biso   1.000  C
  H37      1.0000 0.95610  0.63850  0.34390  Biso   1.000  H
  C62      1.0000 0.80790  0.31980  0.97860  Biso   1.000  C
  H38      1.0000 0.84940  0.29550  0.99950  Biso   1.000  H
  C63      1.0000 0.96700  0.62470  0.46850  Biso   1.000  C
  H39      1.0000 0.94480  0.60220  0.48890  Biso   1.000  H
  C64      1.0000 0.50200  0.57250  0.90630  Biso   1.000  C
  H40      1.0000 0.51950  0.54240  0.88530  Biso   1.000  H
  C65      1.0000 0.80700  0.49470  0.24170  Biso   1.000  C
  H41      1.0000 0.85120  0.47780  0.26260  Biso   1.000  H
  C66      1.0000 0.30210  0.80150  0.68440  Biso   1.000  C
  H42      1.0000 0.32400  0.83340  0.66780  Biso   1.000  H
  C67      1.0000 0.44420  0.61690  0.87890  Biso   1.000  C
  H43      1.0000 0.42530  0.61930  0.83880  Biso   1.000  H
  C68      1.0000 0.24550  0.70490  0.73670  Biso   1.000  C
  H44      1.0000 0.22650  0.67010  0.75430  Biso   1.000  H
  C69      1.0000 0.71190  0.55330  0.23960  Biso   1.000  C
  H45      1.0000 0.68900  0.57760  0.25870  Biso   1.000  H
  C70      1.0000 0.77820  0.48320  0.18280  Biso   1.000  C
  H46      1.0000 0.80240  0.45960  0.16460  Biso   1.000  H
  C71      1.0000 0.21500  0.71140  0.67720  Biso   1.000  C
  H47      1.0000 0.17650  0.68200  0.65530  Biso   1.000  H
  C72      1.0000 0.32850  0.79190  0.74400  Biso   1.000  C
  H48      1.0000 0.36790  0.81930  0.76660  Biso   1.000  H
  N13      1.0000 0.93940  0.61640  0.41130  Biso   1.000  N
  N14      1.0000 0.29540  0.96980  0.41660  Biso   1.000  N
  N15      1.0000 0.30080  0.74600  0.77040  Biso   1.000  N
  N16      1.0000 0.15290  0.73270  0.55850  Biso   1.000  N
  N17      1.0000 0.23780  0.82240  0.56210  Biso   1.000  N
  N18      1.0000 0.14790  0.78970  0.47190  Biso   1.000  N
  N19      1.0000 0.41350  0.65710  0.90640  Biso   1.000  N
  N20      1.0000 0.77970  0.31300  0.92120  Biso   1.000  N
  N21      1.0000 0.77560  0.52880  0.27100  Biso   1.000  N
  N22      1.0000 0.62270  0.53730  0.05800  Biso   1.000  N
  N23      1.0000 0.62610  0.48770  0.97260  Biso   1.000  N
  N24      1.0000 0.71140  0.45010  0.06410  Biso   1.000  N
  Ag5      1.0000 0.65573  0.04257  0.13237  Biso   1.000  Ag
  Ag6      1.0000 0.17734  0.24623  0.63295  Biso   1.000  Ag
  C73      1.0000 0.90230  0.02930  0.49970  Biso   1.000  C
  C74      1.0000 0.72250  0.86190  0.49130  Biso   1.000  C
  H49      1.0000 0.70170  0.86540  0.45120  Biso   1.000  H
  C75      1.0000 0.37630  0.24320  0.99850  Biso   1.000  C
  C76      1.0000 0.44020  0.19830  0.03090  Biso   1.000  C
  C77      1.0000 0.26450  0.43560  0.11180  Biso   1.000  C
  H50      1.0000 0.28630  0.44270  0.15160  Biso   1.000  H
  C78      1.0000 0.20220  0.41610  0.99530  Biso   1.000  C
  H51      1.0000 0.18000  0.41210  0.95530  Biso   1.000  H
  C79      1.0000 0.05610  0.15630  0.53580  Biso   1.000  C
  H52      1.0000 0.07610  0.18430  0.51580  Biso   1.000  H
  C80      1.0000 0.78010  0.84730  0.60830  Biso   1.000  C
  H53      1.0000 0.80010  0.84250  0.64830  Biso   1.000  H
  C81      1.0000 0.46710  0.18810  0.08970  Biso   1.000  C
  H54      1.0000 0.44560  0.20910  0.11110  Biso   1.000  H
  C82      1.0000 0.29020  0.27330  0.91320  Biso   1.000  C
  C83      1.0000 0.99640  0.11580  0.50420  Biso   1.000  C
  H55      1.0000 0.97680  0.11710  0.46400  Biso   1.000  H
  C84      1.0000 0.25650  0.26330  0.84910  Biso   1.000  C
  C85      1.0000 0.81980  0.99770  0.41260  Biso   1.000  C
  C86      1.0000 0.81770  0.94820  0.49370  Biso   1.000  C
  C87      1.0000 0.82070  0.04390  0.31930  Biso   1.000  C
  H56      1.0000 0.86460  0.06200  0.33930  Biso   1.000  H
  C88      1.0000 0.96660  0.07360  0.53390  Biso   1.000  C
  C89      1.0000 0.47390  0.16450  0.00090  Biso   1.000  C
  H57      1.0000 0.45650  0.16880  0.96090  Biso   1.000  H
  C90      1.0000 0.26430  0.37890  0.02590  Biso   1.000  C
  C91      1.0000 0.78490  0.89850  0.52300  Biso   1.000  C
  C92      1.0000 0.29620  0.39020  0.08540  Biso   1.000  C
  H58      1.0000 0.33820  0.36750  0.10700  Biso   1.000  H
  C93      1.0000 0.29460  0.32780  0.99540  Biso   1.000  C
  C94      1.0000 0.78770  0.00750  0.34860  Biso   1.000  C
  C95      1.0000 0.81390  0.88970  0.58200  Biso   1.000  C
  H59      1.0000 0.85580  0.91210  0.60420  Biso   1.000  H
  C96      1.0000 0.17450  0.45920  0.02630  Biso   1.000  C
  H60      1.0000 0.13240  0.48210  0.00610  Biso   1.000  H
  C97      1.0000 0.52660  0.14630  0.11640  Biso   1.000  C
  H61      1.0000 0.54390  0.13850  0.15610  Biso   1.000  H
  C98      1.0000 0.69210  0.81980  0.52140  Biso   1.000  C
  H62      1.0000 0.65060  0.79550  0.50050  Biso   1.000  H
  C99      1.0000 0.53300  0.12470  0.03150  Biso   1.000  C
  H63      1.0000 0.55520  0.10220  0.01110  Biso   1.000  H
  C100     1.0000 0.99800  0.07250  0.59370  Biso   1.000  C
  H64      1.0000 0.98050  0.04240  0.61470  Biso   1.000  H
  C101     1.0000 0.69300  0.99470  0.25830  Biso   1.000  C
  H65      1.0000 0.64880  0.97780  0.23740  Biso   1.000  H
  C102     1.0000 0.19790  0.30150  0.81560  Biso   1.000  C
  H66      1.0000 0.17600  0.33340  0.83220  Biso   1.000  H
  C103     1.0000 0.05580  0.11690  0.62110  Biso   1.000  C
  H67      1.0000 0.07470  0.11930  0.66120  Biso   1.000  H
  C104     1.0000 0.25450  0.20490  0.76330  Biso   1.000  C
  H68      1.0000 0.27350  0.17010  0.74570  Biso   1.000  H
  C105     1.0000 0.78810  0.05330  0.26040  Biso   1.000  C
  H69      1.0000 0.81100  0.07760  0.24130  Biso   1.000  H
  C106     1.0000 0.72180  0.98320  0.31720  Biso   1.000  C
  H70      1.0000 0.69760  0.95960  0.33540  Biso   1.000  H
  C107     1.0000 0.28500  0.21140  0.82280  Biso   1.000  C
  H71      1.0000 0.32350  0.18200  0.84470  Biso   1.000  H
  C108     1.0000 0.17150  0.29190  0.75600  Biso   1.000  C
  H72      1.0000 0.13210  0.31930  0.73340  Biso   1.000  H
  N25      1.0000 0.56060  0.11640  0.08870  Biso   1.000  N
  N26      1.0000 0.20460  0.46980  0.08340  Biso   1.000  N
  N27      1.0000 0.19920  0.24600  0.72960  Biso   1.000  N
  N28      1.0000 0.34710  0.23270  0.94150  Biso   1.000  N
  N29      1.0000 0.26220  0.32240  0.93790  Biso   1.000  N
  N30      1.0000 0.35210  0.28970  0.02810  Biso   1.000  N
  N31      1.0000 0.08650  0.15710  0.59360  Biso   1.000  N
  N32      1.0000 0.72030  0.81300  0.57880  Biso   1.000  N
  N33      1.0000 0.72440  0.02880  0.22900  Biso   1.000  N
  N34      1.0000 0.87730  0.03730  0.44200  Biso   1.000  N
  N35      1.0000 0.87390  0.98770  0.52740  Biso   1.000  N
  N36      1.0000 0.78860  0.95010  0.43590  Biso   1.000  N
  Ag7      1.0000 0.15573  0.54257  0.13237  Biso   1.000  Ag
  Ag8      1.0000 0.67734  0.74623  0.63295  Biso   1.000  Ag
  C109     1.0000 0.40230  0.52930  0.49970  Biso   1.000  C
  C110     1.0000 0.22250  0.36190  0.49130  Biso   1.000  C
  H73      1.0000 0.20170  0.36540  0.45120  Biso   1.000  H
  C111     1.0000 0.87630  0.74320  0.99850  Biso   1.000  C
  C112     1.0000 0.94020  0.69830  0.03090  Biso   1.000  C
  C113     1.0000 0.76450  0.93560  0.11180  Biso   1.000  C
  H74      1.0000 0.78630  0.94270  0.15160  Biso   1.000  H
  C114     1.0000 0.70220  0.91610  0.99530  Biso   1.000  C
  H75      1.0000 0.68000  0.91210  0.95530  Biso   1.000  H
  C115     1.0000 0.55610  0.65630  0.53580  Biso   1.000  C
  H76      1.0000 0.57610  0.68430  0.51580  Biso   1.000  H
  C116     1.0000 0.28010  0.34730  0.60830  Biso   1.000  C
  H77      1.0000 0.30010  0.34250  0.64830  Biso   1.000  H
  C117     1.0000 0.96710  0.68810  0.08970  Biso   1.000  C
  H78      1.0000 0.94560  0.70910  0.11110  Biso   1.000  H
  C118     1.0000 0.79020  0.77330  0.91320  Biso   1.000  C
  C119     1.0000 0.49640  0.61580  0.50420  Biso   1.000  C
  H79      1.0000 0.47680  0.61710  0.46400  Biso   1.000  H
  C120     1.0000 0.75650  0.76330  0.84910  Biso   1.000  C
  C121     1.0000 0.31980  0.49770  0.41260  Biso   1.000  C
  C122     1.0000 0.31770  0.44820  0.49370  Biso   1.000  C
  C123     1.0000 0.32070  0.54390  0.31930  Biso   1.000  C
  H80      1.0000 0.36460  0.56200  0.33930  Biso   1.000  H
  C124     1.0000 0.46660  0.57360  0.53390  Biso   1.000  C
  C125     1.0000 0.97390  0.66450  0.00090  Biso   1.000  C
  H81      1.0000 0.95650  0.66880  0.96090  Biso   1.000  H
  C126     1.0000 0.76430  0.87890  0.02590  Biso   1.000  C
  C127     1.0000 0.28490  0.39850  0.52300  Biso   1.000  C
  C128     1.0000 0.79620  0.89020  0.08540  Biso   1.000  C
  H82      1.0000 0.83820  0.86750  0.10700  Biso   1.000  H
  C129     1.0000 0.79460  0.82780  0.99540  Biso   1.000  C
  C130     1.0000 0.28770  0.50750  0.34860  Biso   1.000  C
  C131     1.0000 0.31390  0.38970  0.58200  Biso   1.000  C
  H83      1.0000 0.35580  0.41210  0.60420  Biso   1.000  H
  C132     1.0000 0.67450  0.95920  0.02630  Biso   1.000  C
  H84      1.0000 0.63240  0.98210  0.00610  Biso   1.000  H
  C133     1.0000 0.02660  0.64630  0.11640  Biso   1.000  C
  H85      1.0000 0.04390  0.63850  0.15610  Biso   1.000  H
  C134     1.0000 0.19210  0.31980  0.52140  Biso   1.000  C
  H86      1.0000 0.15060  0.29550  0.50050  Biso   1.000  H
  C135     1.0000 0.03300  0.62470  0.03150  Biso   1.000  C
  H87      1.0000 0.05520  0.60220  0.01110  Biso   1.000  H
  C136     1.0000 0.49800  0.57250  0.59370  Biso   1.000  C
  H88      1.0000 0.48050  0.54240  0.61470  Biso   1.000  H
  C137     1.0000 0.19300  0.49470  0.25830  Biso   1.000  C
  H89      1.0000 0.14880  0.47780  0.23740  Biso   1.000  H
  C138     1.0000 0.69790  0.80150  0.81560  Biso   1.000  C
  H90      1.0000 0.67600  0.83340  0.83220  Biso   1.000  H
  C139     1.0000 0.55580  0.61690  0.62110  Biso   1.000  C
  H91      1.0000 0.57470  0.61930  0.66120  Biso   1.000  H
  C140     1.0000 0.75450  0.70490  0.76330  Biso   1.000  C
  H92      1.0000 0.77350  0.67010  0.74570  Biso   1.000  H
  C141     1.0000 0.28810  0.55330  0.26040  Biso   1.000  C
  H93      1.0000 0.31100  0.57760  0.24130  Biso   1.000  H
  C142     1.0000 0.22180  0.48320  0.31720  Biso   1.000  C
  H94      1.0000 0.19760  0.45960  0.33540  Biso   1.000  H
  C143     1.0000 0.78500  0.71140  0.82280  Biso   1.000  C
  H95      1.0000 0.82350  0.68200  0.84470  Biso   1.000  H
  C144     1.0000 0.67150  0.79190  0.75600  Biso   1.000  C
  H96      1.0000 0.63210  0.81930  0.73340  Biso   1.000  H
  N37      1.0000 0.06060  0.61640  0.08870  Biso   1.000  N
  N38      1.0000 0.70460  0.96980  0.08340  Biso   1.000  N
  N39      1.0000 0.69920  0.74600  0.72960  Biso   1.000  N
  N40      1.0000 0.84710  0.73270  0.94150  Biso   1.000  N
  N41      1.0000 0.76220  0.82240  0.93790  Biso   1.000  N
  N42      1.0000 0.85210  0.78970  0.02810  Biso   1.000  N
  N43      1.0000 0.58650  0.65710  0.59360  Biso   1.000  N
  N44      1.0000 0.22030  0.31300  0.57880  Biso   1.000  N
  N45      1.0000 0.22440  0.52880  0.22900  Biso   1.000  N
  N46      1.0000 0.37730  0.53730  0.44200  Biso   1.000  N
  N47      1.0000 0.37390  0.48770  0.52740  Biso   1.000  N
  N48      1.0000 0.28860  0.45010  0.43590  Biso   1.000  N
  Ag9      1.0000 0.65573  0.95743  0.63237  Biso   1.000  Ag
  Ag10     1.0000 0.17734  0.75377  0.13295  Biso   1.000  Ag
  C145     1.0000 0.90230  0.97070  0.99970  Biso   1.000  C
  C146     1.0000 0.72250  0.13810  0.99130  Biso   1.000  C
  H97      1.0000 0.70170  0.13460  0.95120  Biso   1.000  H
  C147     1.0000 0.37630  0.75680  0.49850  Biso   1.000  C
  C148     1.0000 0.44020  0.80170  0.53090  Biso   1.000  C
  C149     1.0000 0.26450  0.56440  0.61180  Biso   1.000  C
  H98      1.0000 0.28630  0.55730  0.65160  Biso   1.000  H
  C150     1.0000 0.20220  0.58390  0.49530  Biso   1.000  C
  H99      1.0000 0.18000  0.58790  0.45530  Biso   1.000  H
  C151     1.0000 0.05610  0.84370  0.03580  Biso   1.000  C
  H100     1.0000 0.07610  0.81570  0.01580  Biso   1.000  H
  C152     1.0000 0.78010  0.15270  0.10830  Biso   1.000  C
  H101     1.0000 0.80010  0.15750  0.14830  Biso   1.000  H
  C153     1.0000 0.46710  0.81190  0.58970  Biso   1.000  C
  H102     1.0000 0.44560  0.79090  0.61110  Biso   1.000  H
  C154     1.0000 0.29020  0.72670  0.41320  Biso   1.000  C
  C155     1.0000 0.99640  0.88420  0.00420  Biso   1.000  C
  H103     1.0000 0.97680  0.88290  0.96400  Biso   1.000  H
  C156     1.0000 0.25650  0.73670  0.34910  Biso   1.000  C
  C157     1.0000 0.81980  0.00230  0.91260  Biso   1.000  C
  C158     1.0000 0.81770  0.05180  0.99370  Biso   1.000  C
  C159     1.0000 0.82070  0.95610  0.81930  Biso   1.000  C
  H104     1.0000 0.86460  0.93800  0.83930  Biso   1.000  H
  C160     1.0000 0.96660  0.92640  0.03390  Biso   1.000  C
  C161     1.0000 0.47390  0.83550  0.50090  Biso   1.000  C
  H105     1.0000 0.45650  0.83120  0.46090  Biso   1.000  H
  C162     1.0000 0.26430  0.62110  0.52590  Biso   1.000  C
  C163     1.0000 0.78490  0.10150  0.02300  Biso   1.000  C
  C164     1.0000 0.29620  0.60980  0.58540  Biso   1.000  C
  H106     1.0000 0.33820  0.63250  0.60700  Biso   1.000  H
  C165     1.0000 0.29460  0.67220  0.49540  Biso   1.000  C
  C166     1.0000 0.78770  0.99250  0.84860  Biso   1.000  C
  C167     1.0000 0.81390  0.11030  0.08200  Biso   1.000  C
  H107     1.0000 0.85580  0.08790  0.10420  Biso   1.000  H
  C168     1.0000 0.17450  0.54080  0.52630  Biso   1.000  C
  H108     1.0000 0.13240  0.51790  0.50610  Biso   1.000  H
  C169     1.0000 0.52660  0.85370  0.61640  Biso   1.000  C
  H109     1.0000 0.54390  0.86150  0.65610  Biso   1.000  H
  C170     1.0000 0.69210  0.18020  0.02140  Biso   1.000  C
  H110     1.0000 0.65060  0.20450  0.00050  Biso   1.000  H
  C171     1.0000 0.53300  0.87530  0.53150  Biso   1.000  C
  H111     1.0000 0.55520  0.89780  0.51110  Biso   1.000  H
  C172     1.0000 0.99800  0.92750  0.09370  Biso   1.000  C
  H112     1.0000 0.98050  0.95760  0.11470  Biso   1.000  H
  C173     1.0000 0.69300  0.00530  0.75830  Biso   1.000  C
  H113     1.0000 0.64880  0.02220  0.73740  Biso   1.000  H
  C174     1.0000 0.19790  0.69850  0.31560  Biso   1.000  C
  H114     1.0000 0.17600  0.66660  0.33220  Biso   1.000  H
  C175     1.0000 0.05580  0.88310  0.12110  Biso   1.000  C
  H115     1.0000 0.07470  0.88070  0.16120  Biso   1.000  H
  C176     1.0000 0.25450  0.79510  0.26330  Biso   1.000  C
  H116     1.0000 0.27350  0.82990  0.24570  Biso   1.000  H
  C177     1.0000 0.78810  0.94670  0.76040  Biso   1.000  C
  H117     1.0000 0.81100  0.92240  0.74130  Biso   1.000  H
  C178     1.0000 0.72180  0.01680  0.81720  Biso   1.000  C
  H118     1.0000 0.69760  0.04040  0.83540  Biso   1.000  H
  C179     1.0000 0.28500  0.78860  0.32280  Biso   1.000  C
  H119     1.0000 0.32350  0.81800  0.34470  Biso   1.000  H
  C180     1.0000 0.17150  0.70810  0.25600  Biso   1.000  C
  H120     1.0000 0.13210  0.68070  0.23340  Biso   1.000  H
  N49      1.0000 0.56060  0.88360  0.58870  Biso   1.000  N
  N50      1.0000 0.20460  0.53020  0.58340  Biso   1.000  N
  N51      1.0000 0.19920  0.75400  0.22960  Biso   1.000  N
  N52      1.0000 0.34710  0.76730  0.44150  Biso   1.000  N
  N53      1.0000 0.26220  0.67760  0.43790  Biso   1.000  N
  N54      1.0000 0.35210  0.71030  0.52810  Biso   1.000  N
  N55      1.0000 0.08650  0.84290  0.09360  Biso   1.000  N
  N56      1.0000 0.72030  0.18700  0.07880  Biso   1.000  N
  N57      1.0000 0.72440  0.97120  0.72900  Biso   1.000  N
  N58      1.0000 0.87730  0.96270  0.94200  Biso   1.000  N
  N59      1.0000 0.87390  0.01230  0.02740  Biso   1.000  N
  N60      1.0000 0.78860  0.04990  0.93590  Biso   1.000  N
  Ag11     1.0000 0.15573  0.45743  0.63237  Biso   1.000  Ag
  Ag12     1.0000 0.67734  0.25377  0.13295  Biso   1.000  Ag
  C181     1.0000 0.40230  0.47070  0.99970  Biso   1.000  C
  C182     1.0000 0.22250  0.63810  0.99130  Biso   1.000  C
  H121     1.0000 0.20170  0.63460  0.95120  Biso   1.000  H
  C183     1.0000 0.87630  0.25680  0.49850  Biso   1.000  C
  C184     1.0000 0.94020  0.30170  0.53090  Biso   1.000  C
  C185     1.0000 0.76450  0.06440  0.61180  Biso   1.000  C
  H122     1.0000 0.78630  0.05730  0.65160  Biso   1.000  H
  C186     1.0000 0.70220  0.08390  0.49530  Biso   1.000  C
  H123     1.0000 0.68000  0.08790  0.45530  Biso   1.000  H
  C187     1.0000 0.55610  0.34370  0.03580  Biso   1.000  C
  H124     1.0000 0.57610  0.31570  0.01580  Biso   1.000  H
  C188     1.0000 0.28010  0.65270  0.10830  Biso   1.000  C
  H125     1.0000 0.30010  0.65750  0.14830  Biso   1.000  H
  C189     1.0000 0.96710  0.31190  0.58970  Biso   1.000  C
  H126     1.0000 0.94560  0.29090  0.61110  Biso   1.000  H
  C190     1.0000 0.79020  0.22670  0.41320  Biso   1.000  C
  C191     1.0000 0.49640  0.38420  0.00420  Biso   1.000  C
  H127     1.0000 0.47680  0.38290  0.96400  Biso   1.000  H
  C192     1.0000 0.75650  0.23670  0.34910  Biso   1.000  C
  C193     1.0000 0.31980  0.50230  0.91260  Biso   1.000  C
  C194     1.0000 0.31770  0.55180  0.99370  Biso   1.000  C
  C195     1.0000 0.32070  0.45610  0.81930  Biso   1.000  C
  H128     1.0000 0.36460  0.43800  0.83930  Biso   1.000  H
  C196     1.0000 0.46660  0.42640  0.03390  Biso   1.000  C
  C197     1.0000 0.97390  0.33550  0.50090  Biso   1.000  C
  H129     1.0000 0.95650  0.33120  0.46090  Biso   1.000  H
  C198     1.0000 0.76430  0.12110  0.52590  Biso   1.000  C
  C199     1.0000 0.28490  0.60150  0.02300  Biso   1.000  C
  C200     1.0000 0.79620  0.10980  0.58540  Biso   1.000  C
  H130     1.0000 0.83820  0.13250  0.60700  Biso   1.000  H
  C201     1.0000 0.79460  0.17220  0.49540  Biso   1.000  C
  C202     1.0000 0.28770  0.49250  0.84860  Biso   1.000  C
  C203     1.0000 0.31390  0.61030  0.08200  Biso   1.000  C
  H131     1.0000 0.35580  0.58790  0.10420  Biso   1.000  H
  C204     1.0000 0.67450  0.04080  0.52630  Biso   1.000  C
  H132     1.0000 0.63240  0.01790  0.50610  Biso   1.000  H
  C205     1.0000 0.02660  0.35370  0.61640  Biso   1.000  C
  H133     1.0000 0.04390  0.36150  0.65610  Biso   1.000  H
  C206     1.0000 0.19210  0.68020  0.02140  Biso   1.000  C
  H134     1.0000 0.15060  0.70450  0.00050  Biso   1.000  H
  C207     1.0000 0.03300  0.37530  0.53150  Biso   1.000  C
  H135     1.0000 0.05520  0.39780  0.51110  Biso   1.000  H
  C208     1.0000 0.49800  0.42750  0.09370  Biso   1.000  C
  H136     1.0000 0.48050  0.45760  0.11470  Biso   1.000  H
  C209     1.0000 0.19300  0.50530  0.75830  Biso   1.000  C
  H137     1.0000 0.14880  0.52220  0.73740  Biso   1.000  H
  C210     1.0000 0.69790  0.19850  0.31560  Biso   1.000  C
  H138     1.0000 0.67600  0.16660  0.33220  Biso   1.000  H
  C211     1.0000 0.55580  0.38310  0.12110  Biso   1.000  C
  H139     1.0000 0.57470  0.38070  0.16120  Biso   1.000  H
  C212     1.0000 0.75450  0.29510  0.26330  Biso   1.000  C
  H140     1.0000 0.77350  0.32990  0.24570  Biso   1.000  H
  C213     1.0000 0.28810  0.44670  0.76040  Biso   1.000  C
  H141     1.0000 0.31100  0.42240  0.74130  Biso   1.000  H
  C214     1.0000 0.22180  0.51680  0.81720  Biso   1.000  C
  H142     1.0000 0.19760  0.54040  0.83540  Biso   1.000  H
  C215     1.0000 0.78500  0.28860  0.32280  Biso   1.000  C
  H143     1.0000 0.82350  0.31800  0.34470  Biso   1.000  H
  C216     1.0000 0.67150  0.20810  0.25600  Biso   1.000  C
  H144     1.0000 0.63210  0.18070  0.23340  Biso   1.000  H
  N61      1.0000 0.06060  0.38360  0.58870  Biso   1.000  N
  N62      1.0000 0.70460  0.03020  0.58340  Biso   1.000  N
  N63      1.0000 0.69920  0.25400  0.22960  Biso   1.000  N
  N64      1.0000 0.84710  0.26730  0.44150  Biso   1.000  N
  N65      1.0000 0.76220  0.17760  0.43790  Biso   1.000  N
  N66      1.0000 0.85210  0.21030  0.52810  Biso   1.000  N
  N67      1.0000 0.58650  0.34290  0.09360  Biso   1.000  N
  N68      1.0000 0.22030  0.68700  0.07880  Biso   1.000  N
  N69      1.0000 0.22440  0.47120  0.72900  Biso   1.000  N
  N70      1.0000 0.37730  0.46270  0.94200  Biso   1.000  N
  N71      1.0000 0.37390  0.51230  0.02740  Biso   1.000  N
  N72      1.0000 0.28860  0.54990  0.93590  Biso   1.000  N
  Ag13     1.0000 0.34427  0.95743  0.86763  Biso   1.000  Ag
  Ag14     1.0000 0.82266  0.75377  0.36705  Biso   1.000  Ag
  C217     1.0000 0.09770  0.97070  0.50030  Biso   1.000  C
  C218     1.0000 0.27750  0.13810  0.50870  Biso   1.000  C
  H145     1.0000 0.29830  0.13460  0.54880  Biso   1.000  H
  C219     1.0000 0.62370  0.75680  0.00150  Biso   1.000  C
  C220     1.0000 0.55980  0.80170  0.96910  Biso   1.000  C
  C221     1.0000 0.73550  0.56440  0.88820  Biso   1.000  C
  H146     1.0000 0.71370  0.55730  0.84840  Biso   1.000  H
  C222     1.0000 0.79780  0.58390  0.00470  Biso   1.000  C
  H147     1.0000 0.82000  0.58790  0.04470  Biso   1.000  H
  C223     1.0000 0.94390  0.84370  0.46420  Biso   1.000  C
  H148     1.0000 0.92390  0.81570  0.48420  Biso   1.000  H
  C224     1.0000 0.21990  0.15270  0.39170  Biso   1.000  C
  H149     1.0000 0.19990  0.15750  0.35170  Biso   1.000  H
  C225     1.0000 0.53290  0.81190  0.91030  Biso   1.000  C
  H150     1.0000 0.55440  0.79090  0.88890  Biso   1.000  H
  C226     1.0000 0.70980  0.72670  0.08680  Biso   1.000  C
  C227     1.0000 0.00360  0.88420  0.49580  Biso   1.000  C
  H151     1.0000 0.02320  0.88290  0.53600  Biso   1.000  H
  C228     1.0000 0.74350  0.73670  0.15090  Biso   1.000  C
  C229     1.0000 0.18020  0.00230  0.58740  Biso   1.000  C
  C230     1.0000 0.18230  0.05180  0.50630  Biso   1.000  C
  C231     1.0000 0.17930  0.95610  0.68070  Biso   1.000  C
  H152     1.0000 0.13540  0.93800  0.66070  Biso   1.000  H
  C232     1.0000 0.03340  0.92640  0.46610  Biso   1.000  C
  C233     1.0000 0.52610  0.83550  0.99910  Biso   1.000  C
  H153     1.0000 0.54350  0.83120  0.03910  Biso   1.000  H
  C234     1.0000 0.73570  0.62110  0.97410  Biso   1.000  C
  C235     1.0000 0.21510  0.10150  0.47700  Biso   1.000  C
  C236     1.0000 0.70380  0.60980  0.91460  Biso   1.000  C
  H154     1.0000 0.66180  0.63250  0.89300  Biso   1.000  H
  C237     1.0000 0.70540  0.67220  0.00460  Biso   1.000  C
  C238     1.0000 0.21230  0.99250  0.65140  Biso   1.000  C
  C239     1.0000 0.18610  0.11030  0.41800  Biso   1.000  C
  H155     1.0000 0.14420  0.08790  0.39580  Biso   1.000  H
  C240     1.0000 0.82550  0.54080  0.97370  Biso   1.000  C
  H156     1.0000 0.86760  0.51790  0.99390  Biso   1.000  H
  C241     1.0000 0.47340  0.85370  0.88360  Biso   1.000  C
  H157     1.0000 0.45610  0.86150  0.84390  Biso   1.000  H
  C242     1.0000 0.30790  0.18020  0.47860  Biso   1.000  C
  H158     1.0000 0.34940  0.20450  0.49950  Biso   1.000  H
  C243     1.0000 0.46700  0.87530  0.96850  Biso   1.000  C
  H159     1.0000 0.44480  0.89780  0.98890  Biso   1.000  H
  C244     1.0000 0.00200  0.92750  0.40630  Biso   1.000  C
  H160     1.0000 0.01950  0.95760  0.38530  Biso   1.000  H
  C245     1.0000 0.30700  0.00530  0.74170  Biso   1.000  C
  H161     1.0000 0.35120  0.02220  0.76260  Biso   1.000  H
  C246     1.0000 0.80210  0.69850  0.18440  Biso   1.000  C
  H162     1.0000 0.82400  0.66660  0.16780  Biso   1.000  H
  C247     1.0000 0.94420  0.88310  0.37890  Biso   1.000  C
  H163     1.0000 0.92530  0.88070  0.33880  Biso   1.000  H
  C248     1.0000 0.74550  0.79510  0.23670  Biso   1.000  C
  H164     1.0000 0.72650  0.82990  0.25430  Biso   1.000  H
  C249     1.0000 0.21190  0.94670  0.73960  Biso   1.000  C
  H165     1.0000 0.18900  0.92240  0.75870  Biso   1.000  H
  C250     1.0000 0.27820  0.01680  0.68280  Biso   1.000  C
  H166     1.0000 0.30240  0.04040  0.66460  Biso   1.000  H
  C251     1.0000 0.71500  0.78860  0.17720  Biso   1.000  C
  H167     1.0000 0.67650  0.81800  0.15530  Biso   1.000  H
  C252     1.0000 0.82850  0.70810  0.24400  Biso   1.000  C
  H168     1.0000 0.86790  0.68070  0.26660  Biso   1.000  H
  N73      1.0000 0.43940  0.88360  0.91130  Biso   1.000  N
  N74      1.0000 0.79540  0.53020  0.91660  Biso   1.000  N
  N75      1.0000 0.80080  0.75400  0.27040  Biso   1.000  N
  N76      1.0000 0.65290  0.76730  0.05850  Biso   1.000  N
  N77      1.0000 0.73780  0.67760  0.06210  Biso   1.000  N
  N78      1.0000 0.64790  0.71030  0.97190  Biso   1.000  N
  N79      1.0000 0.91350  0.84290  0.40640  Biso   1.000  N
  N80      1.0000 0.27970  0.18700  0.42120  Biso   1.000  N
  N81      1.0000 0.27560  0.97120  0.77100  Biso   1.000  N
  N82      1.0000 0.12270  0.96270  0.55800  Biso   1.000  N
  N83      1.0000 0.12610  0.01230  0.47260  Biso   1.000  N
  N84      1.0000 0.21140  0.04990  0.56410  Biso   1.000  N
  Ag15     1.0000 0.84427  0.45743  0.86763  Biso   1.000  Ag
  Ag16     1.0000 0.32266  0.25377  0.36705  Biso   1.000  Ag
  C253     1.0000 0.59770  0.47070  0.50030  Biso   1.000  C
  C254     1.0000 0.77750  0.63810  0.50870  Biso   1.000  C
  H169     1.0000 0.79830  0.63460  0.54880  Biso   1.000  H
  C255     1.0000 0.12370  0.25680  0.00150  Biso   1.000  C
  C256     1.0000 0.05980  0.30170  0.96910  Biso   1.000  C
  C257     1.0000 0.23550  0.06440  0.88820  Biso   1.000  C
  H170     1.0000 0.21370  0.05730  0.84840  Biso   1.000  H
  C258     1.0000 0.29780  0.08390  0.00470  Biso   1.000  C
  H171     1.0000 0.32000  0.08790  0.04470  Biso   1.000  H
  C259     1.0000 0.44390  0.34370  0.46420  Biso   1.000  C
  H172     1.0000 0.42390  0.31570  0.48420  Biso   1.000  H
  C260     1.0000 0.71990  0.65270  0.39170  Biso   1.000  C
  H173     1.0000 0.69990  0.65750  0.35170  Biso   1.000  H
  C261     1.0000 0.03290  0.31190  0.91030  Biso   1.000  C
  H174     1.0000 0.05440  0.29090  0.88890  Biso   1.000  H
  C262     1.0000 0.20980  0.22670  0.08680  Biso   1.000  C
  C263     1.0000 0.50360  0.38420  0.49580  Biso   1.000  C
  H175     1.0000 0.52320  0.38290  0.53600  Biso   1.000  H
  C264     1.0000 0.24350  0.23670  0.15090  Biso   1.000  C
  C265     1.0000 0.68020  0.50230  0.58740  Biso   1.000  C
  C266     1.0000 0.68230  0.55180  0.50630  Biso   1.000  C
  C267     1.0000 0.67930  0.45610  0.68070  Biso   1.000  C
  H176     1.0000 0.63540  0.43800  0.66070  Biso   1.000  H
  C268     1.0000 0.53340  0.42640  0.46610  Biso   1.000  C
  C269     1.0000 0.02610  0.33550  0.99910  Biso   1.000  C
  H177     1.0000 0.04350  0.33120  0.03910  Biso   1.000  H
  C270     1.0000 0.23570  0.12110  0.97410  Biso   1.000  C
  C271     1.0000 0.71510  0.60150  0.47700  Biso   1.000  C
  C272     1.0000 0.20380  0.10980  0.91460  Biso   1.000  C
  H178     1.0000 0.16180  0.13250  0.89300  Biso   1.000  H
  C273     1.0000 0.20540  0.17220  0.00460  Biso   1.000  C
  C274     1.0000 0.71230  0.49250  0.65140  Biso   1.000  C
  C275     1.0000 0.68610  0.61030  0.41800  Biso   1.000  C
  H179     1.0000 0.64420  0.58790  0.39580  Biso   1.000  H
  C276     1.0000 0.32550  0.04080  0.97370  Biso   1.000  C
  H180     1.0000 0.36760  0.01790  0.99390  Biso   1.000  H
  C277     1.0000 0.97340  0.35370  0.88360  Biso   1.000  C
  H181     1.0000 0.95610  0.36150  0.84390  Biso   1.000  H
  C278     1.0000 0.80790  0.68020  0.47860  Biso   1.000  C
  H182     1.0000 0.84940  0.70450  0.49950  Biso   1.000  H
  C279     1.0000 0.96700  0.37530  0.96850  Biso   1.000  C
  H183     1.0000 0.94480  0.39780  0.98890  Biso   1.000  H
  C280     1.0000 0.50200  0.42750  0.40630  Biso   1.000  C
  H184     1.0000 0.51950  0.45760  0.38530  Biso   1.000  H
  C281     1.0000 0.80700  0.50530  0.74170  Biso   1.000  C
  H185     1.0000 0.85120  0.52220  0.76260  Biso   1.000  H
  C282     1.0000 0.30210  0.19850  0.18440  Biso   1.000  C
  H186     1.0000 0.32400  0.16660  0.16780  Biso   1.000  H
  C283     1.0000 0.44420  0.38310  0.37890  Biso   1.000  C
  H187     1.0000 0.42530  0.38070  0.33880  Biso   1.000  H
  C284     1.0000 0.24550  0.29510  0.23670  Biso   1.000  C
  H188     1.0000 0.22650  0.32990  0.25430  Biso   1.000  H
  C285     1.0000 0.71190  0.44670  0.73960  Biso   1.000  C
  H189     1.0000 0.68900  0.42240  0.75870  Biso   1.000  H
  C286     1.0000 0.77820  0.51680  0.68280  Biso   1.000  C
  H190     1.0000 0.80240  0.54040  0.66460  Biso   1.000  H
  C287     1.0000 0.21500  0.28860  0.17720  Biso   1.000  C
  H191     1.0000 0.17650  0.31800  0.15530  Biso   1.000  H
  C288     1.0000 0.32850  0.20810  0.24400  Biso   1.000  C
  H192     1.0000 0.36790  0.18070  0.26660  Biso   1.000  H
  N85      1.0000 0.93940  0.38360  0.91130  Biso   1.000  N
  N86      1.0000 0.29540  0.03020  0.91660  Biso   1.000  N
  N87      1.0000 0.30080  0.25400  0.27040  Biso   1.000  N
  N88      1.0000 0.15290  0.26730  0.05850  Biso   1.000  N
  N89      1.0000 0.23780  0.17760  0.06210  Biso   1.000  N
  N90      1.0000 0.14790  0.21030  0.97190  Biso   1.000  N
  N91      1.0000 0.41350  0.34290  0.40640  Biso   1.000  N
  N92      1.0000 0.77970  0.68700  0.42120  Biso   1.000  N
  N93      1.0000 0.77560  0.47120  0.77100  Biso   1.000  N
  N94      1.0000 0.62270  0.46270  0.55800  Biso   1.000  N
  N95      1.0000 0.62610  0.51230  0.47260  Biso   1.000  N
  N96      1.0000 0.71140  0.54990  0.56410  Biso   1.000  N
