data_image0
_cell_length_a       22.078
_cell_length_b       16.3817
_cell_length_c       25.6311
_cell_angle_alpha    90
_cell_angle_beta     115.334
_cell_angle_gamma    90

_symmetry_space_group_name_H-M    "P 1"
_symmetry_int_tables_number       1

loop_
  _symmetry_equiv_pos_as_xyz
  'x, y, z'

loop_
  _atom_site_label
  _atom_site_occupancy
  _atom_site_fract_x
  _atom_site_fract_y
  _atom_site_fract_z
  _atom_site_thermal_displace_type
  _atom_site_B_iso_or_equiv
  _atom_site_type_symbol
  Ag1      1.0000 0.34412  0.54225  0.36793  Biso   1.000  Ag
  Ag2      1.0000 0.32288  0.24792  0.86728  Biso   1.000  Ag
  C1       1.0000 0.12410  0.24300  0.50248  Biso   1.000  C
  C2       1.0000 0.23510  0.43530  0.38860  Biso   1.000  C
  H1       1.0000 0.21280  0.44250  0.34880  Biso   1.000  H
  C3       1.0000 0.03310  0.18730  0.41100  Biso   1.000  C
  H2       1.0000 0.05480  0.20800  0.38980  Biso   1.000  H
  C4       1.0000 0.71980  0.84790  0.89210  Biso   1.000  C
  H3       1.0000 0.69960  0.84300  0.85210  Biso   1.000  H
  C5       1.0000 0.06000  0.19800  0.47024  Biso   1.000  C
  C6       1.0000 0.59780  0.03020  0.00107  Biso   1.000  C
  C7       1.0000 0.77840  0.86210  0.00960  Biso   1.000  C
  H4       1.0000 0.79950  0.86570  0.04960  Biso   1.000  H
  C8       1.0000 0.44400  0.15680  0.96510  Biso   1.000  C
  H5       1.0000 0.42390  0.18440  0.98520  Biso   1.000  H
  C9       1.0000 0.02630  0.16420  0.50000  Biso   1.000  C
  H6       1.0000 0.04370  0.16860  0.53990  Biso   1.000  H
  C10      1.0000 0.29800  0.41570  0.50490  Biso   1.000  C
  H7       1.0000 0.32040  0.41140  0.54480  Biso   1.000  H
  C11      1.0000 0.50350  0.11670  0.99630  Biso   1.000  C
  H8       1.0000 0.52340  0.11830  0.03650  Biso   1.000  H
  C12      1.0000 0.24350  0.26250  0.65138  Biso   1.000  C
  C13      1.0000 0.20970  0.27300  0.58766  Biso   1.000  C
  C14      1.0000 0.53320  0.07390  0.96689  Biso   1.000  C
  C15      1.0000 0.20540  0.32760  0.50521  Biso   1.000  C
  C16      1.0000 0.96700  0.12440  0.46960  Biso   1.000  C
  H9       1.0000 0.94470  0.10260  0.49010  Biso   1.000  H
  C17      1.0000 0.68250  0.94810  0.00698  Biso   1.000  C
  C18      1.0000 0.67880  0.04470  0.18100  Biso   1.000  C
  H10      1.0000 0.63490  0.06290  0.16100  Biso   1.000  H
  C19      1.0000 0.71580  0.89860  0.97800  Biso   1.000  C
  C20      1.0000 0.68020  0.99810  0.08838  Biso   1.000  C
  C21      1.0000 0.32600  0.45940  0.47410  Biso   1.000  C
  H11      1.0000 0.36800  0.48290  0.49440  Biso   1.000  H
  C22      1.0000 0.80750  0.99490  0.24280  Biso   1.000  C
  H12      1.0000 0.85160  0.97810  0.26360  Biso   1.000  H
  C23      1.0000 0.23600  0.37870  0.47480  Biso   1.000  C
  C24      1.0000 0.20400  0.38990  0.41530  Biso   1.000  C
  H13      1.0000 0.16200  0.36700  0.39380  Biso   1.000  H
  C25      1.0000 0.97340  0.14510  0.38410  Biso   1.000  C
  H14      1.0000 0.95620  0.13720  0.34440  Biso   1.000  H
  C26      1.0000 0.71230  0.00810  0.15180  Biso   1.000  C
  C27      1.0000 0.80800  0.82060  0.97940  Biso   1.000  C
  H15      1.0000 0.84950  0.79630  0.00030  Biso   1.000  H
  C28      1.0000 0.71200  0.05350  0.24070  Biso   1.000  C
  H16      1.0000 0.68910  0.07720  0.26000  Biso   1.000  H
  C29      1.0000 0.30220  0.30250  0.68500  Biso   1.000  C
  H17      1.0000 0.32370  0.33510  0.66840  Biso   1.000  H
  C30      1.0000 0.50250  0.07320  0.90710  Biso   1.000  C
  H18      1.0000 0.52100  0.04430  0.88610  Biso   1.000  H
  C31      1.0000 0.44350  0.11670  0.87930  Biso   1.000  C
  H19      1.0000 0.42350  0.11730  0.83920  Biso   1.000  H
  C32      1.0000 0.24570  0.20460  0.73750  Biso   1.000  C
  H20      1.0000 0.22690  0.16970  0.75520  Biso   1.000  H
  C33      1.0000 0.21530  0.21060  0.67790  Biso   1.000  C
  H21      1.0000 0.17690  0.18060  0.65610  Biso   1.000  H
  C34      1.0000 0.32840  0.29290  0.74440  Biso   1.000  C
  H22      1.0000 0.36770  0.32060  0.76690  Biso   1.000  H
  C35      1.0000 0.68600  0.89070  0.91840  Biso   1.000  C
  H23      1.0000 0.64420  0.91370  0.89640  Biso   1.000  H
  C36      1.0000 0.77840  0.98320  0.18350  Biso   1.000  C
  H24      1.0000 0.80240  0.95920  0.16530  Biso   1.000  H
  N1       1.0000 0.93918  0.11510  0.41217  Biso   1.000  N
  N2       1.0000 0.29562  0.46960  0.41668  Biso   1.000  N
  N3       1.0000 0.30080  0.24650  0.77124  Biso   1.000  N
  N4       1.0000 0.14809  0.28920  0.47259  Biso   1.000  N
  N5       1.0000 0.23827  0.32240  0.56291  Biso   1.000  N
  N6       1.0000 0.15301  0.23200  0.55938  Biso   1.000  N
  N7       1.0000 0.41343  0.15840  0.90725  Biso   1.000  N
  N8       1.0000 0.78020  0.81320  0.92145  Biso   1.000  N
  N9       1.0000 0.77600  0.02910  0.27182  Biso   1.000  N
  N10      1.0000 0.62631  0.98850  0.97299  Biso   1.000  N
  N11      1.0000 0.71121  0.95040  0.06458  Biso   1.000  N
  N12      1.0000 0.62279  0.03740  0.05894  Biso   1.000  N
  Ag3      1.0000 0.84412  0.04225  0.36793  Biso   1.000  Ag
  Ag4      1.0000 0.82288  0.74792  0.86728  Biso   1.000  Ag
  C37      1.0000 0.62410  0.74300  0.50248  Biso   1.000  C
  C38      1.0000 0.73510  0.93530  0.38860  Biso   1.000  C
  H25      1.0000 0.71280  0.94250  0.34880  Biso   1.000  H
  C39      1.0000 0.53310  0.68730  0.41100  Biso   1.000  C
  H26      1.0000 0.55480  0.70800  0.38980  Biso   1.000  H
  C40      1.0000 0.21980  0.34790  0.89210  Biso   1.000  C
  H27      1.0000 0.19960  0.34300  0.85210  Biso   1.000  H
  C41      1.0000 0.56000  0.69800  0.47024  Biso   1.000  C
  C42      1.0000 0.09780  0.53020  0.00107  Biso   1.000  C
  C43      1.0000 0.27840  0.36210  0.00960  Biso   1.000  C
  H28      1.0000 0.29950  0.36570  0.04960  Biso   1.000  H
  C44      1.0000 0.94400  0.65680  0.96510  Biso   1.000  C
  H29      1.0000 0.92390  0.68440  0.98520  Biso   1.000  H
  C45      1.0000 0.52630  0.66420  0.50000  Biso   1.000  C
  H30      1.0000 0.54370  0.66860  0.53990  Biso   1.000  H
  C46      1.0000 0.79800  0.91570  0.50490  Biso   1.000  C
  H31      1.0000 0.82040  0.91140  0.54480  Biso   1.000  H
  C47      1.0000 0.00350  0.61670  0.99630  Biso   1.000  C
  H32      1.0000 0.02340  0.61830  0.03650  Biso   1.000  H
  C48      1.0000 0.74350  0.76250  0.65138  Biso   1.000  C
  C49      1.0000 0.70970  0.77300  0.58766  Biso   1.000  C
  C50      1.0000 0.03320  0.57390  0.96689  Biso   1.000  C
  C51      1.0000 0.70540  0.82760  0.50521  Biso   1.000  C
  C52      1.0000 0.46700  0.62440  0.46960  Biso   1.000  C
  H33      1.0000 0.44470  0.60260  0.49010  Biso   1.000  H
  C53      1.0000 0.18250  0.44810  0.00698  Biso   1.000  C
  C54      1.0000 0.17880  0.54470  0.18100  Biso   1.000  C
  H34      1.0000 0.13490  0.56290  0.16100  Biso   1.000  H
  C55      1.0000 0.21580  0.39860  0.97800  Biso   1.000  C
  C56      1.0000 0.18020  0.49810  0.08838  Biso   1.000  C
  C57      1.0000 0.82600  0.95940  0.47410  Biso   1.000  C
  H35      1.0000 0.86800  0.98290  0.49440  Biso   1.000  H
  C58      1.0000 0.30750  0.49490  0.24280  Biso   1.000  C
  H36      1.0000 0.35160  0.47810  0.26360  Biso   1.000  H
  C59      1.0000 0.73600  0.87870  0.47480  Biso   1.000  C
  C60      1.0000 0.70400  0.88990  0.41530  Biso   1.000  C
  H37      1.0000 0.66200  0.86700  0.39380  Biso   1.000  H
  C61      1.0000 0.47340  0.64510  0.38410  Biso   1.000  C
  H38      1.0000 0.45620  0.63720  0.34440  Biso   1.000  H
  C62      1.0000 0.21230  0.50810  0.15180  Biso   1.000  C
  C63      1.0000 0.30800  0.32060  0.97940  Biso   1.000  C
  H39      1.0000 0.34950  0.29630  0.00030  Biso   1.000  H
  C64      1.0000 0.21200  0.55350  0.24070  Biso   1.000  C
  H40      1.0000 0.18910  0.57720  0.26000  Biso   1.000  H
  C65      1.0000 0.80220  0.80250  0.68500  Biso   1.000  C
  H41      1.0000 0.82370  0.83510  0.66840  Biso   1.000  H
  C66      1.0000 0.00250  0.57320  0.90710  Biso   1.000  C
  H42      1.0000 0.02100  0.54430  0.88610  Biso   1.000  H
  C67      1.0000 0.94350  0.61670  0.87930  Biso   1.000  C
  H43      1.0000 0.92350  0.61730  0.83920  Biso   1.000  H
  C68      1.0000 0.74570  0.70460  0.73750  Biso   1.000  C
  H44      1.0000 0.72690  0.66970  0.75520  Biso   1.000  H
  C69      1.0000 0.71530  0.71060  0.67790  Biso   1.000  C
  H45      1.0000 0.67690  0.68060  0.65610  Biso   1.000  H
  C70      1.0000 0.82840  0.79290  0.74440  Biso   1.000  C
  H46      1.0000 0.86770  0.82060  0.76690  Biso   1.000  H
  C71      1.0000 0.18600  0.39070  0.91840  Biso   1.000  C
  H47      1.0000 0.14420  0.41370  0.89640  Biso   1.000  H
  C72      1.0000 0.27840  0.48320  0.18350  Biso   1.000  C
  H48      1.0000 0.30240  0.45920  0.16530  Biso   1.000  H
  N13      1.0000 0.43918  0.61510  0.41217  Biso   1.000  N
  N14      1.0000 0.79562  0.96960  0.41668  Biso   1.000  N
  N15      1.0000 0.80080  0.74650  0.77124  Biso   1.000  N
  N16      1.0000 0.64809  0.78920  0.47259  Biso   1.000  N
  N17      1.0000 0.73827  0.82240  0.56291  Biso   1.000  N
  N18      1.0000 0.65301  0.73200  0.55938  Biso   1.000  N
  N19      1.0000 0.91343  0.65840  0.90725  Biso   1.000  N
  N20      1.0000 0.28020  0.31320  0.92145  Biso   1.000  N
  N21      1.0000 0.27600  0.52910  0.27182  Biso   1.000  N
  N22      1.0000 0.12631  0.48850  0.97299  Biso   1.000  N
  N23      1.0000 0.21121  0.45040  0.06458  Biso   1.000  N
  N24      1.0000 0.12279  0.53740  0.05894  Biso   1.000  N
  Ag5      1.0000 0.65588  0.54225  0.13207  Biso   1.000  Ag
  Ag6      1.0000 0.67712  0.24792  0.63272  Biso   1.000  Ag
  C73      1.0000 0.87590  0.24300  0.99752  Biso   1.000  C
  C74      1.0000 0.76490  0.43530  0.11140  Biso   1.000  C
  H49      1.0000 0.78720  0.44250  0.15120  Biso   1.000  H
  C75      1.0000 0.96690  0.18730  0.08900  Biso   1.000  C
  H50      1.0000 0.94520  0.20800  0.11020  Biso   1.000  H
  C76      1.0000 0.28020  0.84790  0.60790  Biso   1.000  C
  H51      1.0000 0.30040  0.84300  0.64790  Biso   1.000  H
  C77      1.0000 0.94000  0.19800  0.02976  Biso   1.000  C
  C78      1.0000 0.40220  0.03020  0.49893  Biso   1.000  C
  C79      1.0000 0.22160  0.86210  0.49040  Biso   1.000  C
  H52      1.0000 0.20050  0.86570  0.45040  Biso   1.000  H
  C80      1.0000 0.55600  0.15680  0.53490  Biso   1.000  C
  H53      1.0000 0.57610  0.18440  0.51480  Biso   1.000  H
  C81      1.0000 0.97370  0.16420  0.00000  Biso   1.000  C
  H54      1.0000 0.95630  0.16860  0.96010  Biso   1.000  H
  C82      1.0000 0.70200  0.41570  0.99510  Biso   1.000  C
  H55      1.0000 0.67960  0.41140  0.95520  Biso   1.000  H
  C83      1.0000 0.49650  0.11670  0.50370  Biso   1.000  C
  H56      1.0000 0.47660  0.11830  0.46350  Biso   1.000  H
  C84      1.0000 0.75650  0.26250  0.84862  Biso   1.000  C
  C85      1.0000 0.79030  0.27300  0.91234  Biso   1.000  C
  C86      1.0000 0.46680  0.07390  0.53311  Biso   1.000  C
  C87      1.0000 0.79460  0.32760  0.99479  Biso   1.000  C
  C88      1.0000 0.03300  0.12440  0.03040  Biso   1.000  C
  H57      1.0000 0.05530  0.10260  0.00990  Biso   1.000  H
  C89      1.0000 0.31750  0.94810  0.49302  Biso   1.000  C
  C90      1.0000 0.32120  0.04470  0.31900  Biso   1.000  C
  H58      1.0000 0.36510  0.06290  0.33900  Biso   1.000  H
  C91      1.0000 0.28420  0.89860  0.52200  Biso   1.000  C
  C92      1.0000 0.31980  0.99810  0.41162  Biso   1.000  C
  C93      1.0000 0.67400  0.45940  0.02590  Biso   1.000  C
  H59      1.0000 0.63200  0.48290  0.00560  Biso   1.000  H
  C94      1.0000 0.19250  0.99490  0.25720  Biso   1.000  C
  H60      1.0000 0.14840  0.97810  0.23640  Biso   1.000  H
  C95      1.0000 0.76400  0.37870  0.02520  Biso   1.000  C
  C96      1.0000 0.79600  0.38990  0.08470  Biso   1.000  C
  H61      1.0000 0.83800  0.36700  0.10620  Biso   1.000  H
  C97      1.0000 0.02660  0.14510  0.11590  Biso   1.000  C
  H62      1.0000 0.04380  0.13720  0.15560  Biso   1.000  H
  C98      1.0000 0.28770  0.00810  0.34820  Biso   1.000  C
  C99      1.0000 0.19200  0.82060  0.52060  Biso   1.000  C
  H63      1.0000 0.15050  0.79630  0.49970  Biso   1.000  H
  C100     1.0000 0.28800  0.05350  0.25930  Biso   1.000  C
  H64      1.0000 0.31090  0.07720  0.24000  Biso   1.000  H
  C101     1.0000 0.69780  0.30250  0.81500  Biso   1.000  C
  H65      1.0000 0.67630  0.33510  0.83160  Biso   1.000  H
  C102     1.0000 0.49750  0.07320  0.59290  Biso   1.000  C
  H66      1.0000 0.47900  0.04430  0.61390  Biso   1.000  H
  C103     1.0000 0.55650  0.11670  0.62070  Biso   1.000  C
  H67      1.0000 0.57650  0.11730  0.66080  Biso   1.000  H
  C104     1.0000 0.75430  0.20460  0.76250  Biso   1.000  C
  H68      1.0000 0.77310  0.16970  0.74480  Biso   1.000  H
  C105     1.0000 0.78470  0.21060  0.82210  Biso   1.000  C
  H69      1.0000 0.82310  0.18060  0.84390  Biso   1.000  H
  C106     1.0000 0.67160  0.29290  0.75560  Biso   1.000  C
  H70      1.0000 0.63230  0.32060  0.73310  Biso   1.000  H
  C107     1.0000 0.31400  0.89070  0.58160  Biso   1.000  C
  H71      1.0000 0.35580  0.91370  0.60360  Biso   1.000  H
  C108     1.0000 0.22160  0.98320  0.31650  Biso   1.000  C
  H72      1.0000 0.19760  0.95920  0.33470  Biso   1.000  H
  N25      1.0000 0.06082  0.11510  0.08783  Biso   1.000  N
  N26      1.0000 0.70438  0.46960  0.08332  Biso   1.000  N
  N27      1.0000 0.69920  0.24650  0.72876  Biso   1.000  N
  N28      1.0000 0.85191  0.28920  0.02741  Biso   1.000  N
  N29      1.0000 0.76173  0.32240  0.93709  Biso   1.000  N
  N30      1.0000 0.84699  0.23200  0.94062  Biso   1.000  N
  N31      1.0000 0.58657  0.15840  0.59275  Biso   1.000  N
  N32      1.0000 0.21980  0.81320  0.57855  Biso   1.000  N
  N33      1.0000 0.22400  0.02910  0.22818  Biso   1.000  N
  N34      1.0000 0.37369  0.98850  0.52701  Biso   1.000  N
  N35      1.0000 0.28879  0.95040  0.43542  Biso   1.000  N
  N36      1.0000 0.37721  0.03740  0.44106  Biso   1.000  N
  Ag7      1.0000 0.15588  0.04225  0.13207  Biso   1.000  Ag
  Ag8      1.0000 0.17712  0.74792  0.63272  Biso   1.000  Ag
  C109     1.0000 0.37590  0.74300  0.99752  Biso   1.000  C
  C110     1.0000 0.26490  0.93530  0.11140  Biso   1.000  C
  H73      1.0000 0.28720  0.94250  0.15120  Biso   1.000  H
  C111     1.0000 0.46690  0.68730  0.08900  Biso   1.000  C
  H74      1.0000 0.44520  0.70800  0.11020  Biso   1.000  H
  C112     1.0000 0.78020  0.34790  0.60790  Biso   1.000  C
  H75      1.0000 0.80040  0.34300  0.64790  Biso   1.000  H
  C113     1.0000 0.44000  0.69800  0.02976  Biso   1.000  C
  C114     1.0000 0.90220  0.53020  0.49893  Biso   1.000  C
  C115     1.0000 0.72160  0.36210  0.49040  Biso   1.000  C
  H76      1.0000 0.70050  0.36570  0.45040  Biso   1.000  H
  C116     1.0000 0.05600  0.65680  0.53490  Biso   1.000  C
  H77      1.0000 0.07610  0.68440  0.51480  Biso   1.000  H
  C117     1.0000 0.47370  0.66420  0.00000  Biso   1.000  C
  H78      1.0000 0.45630  0.66860  0.96010  Biso   1.000  H
  C118     1.0000 0.20200  0.91570  0.99510  Biso   1.000  C
  H79      1.0000 0.17960  0.91140  0.95520  Biso   1.000  H
  C119     1.0000 0.99650  0.61670  0.50370  Biso   1.000  C
  H80      1.0000 0.97660  0.61830  0.46350  Biso   1.000  H
  C120     1.0000 0.25650  0.76250  0.84862  Biso   1.000  C
  C121     1.0000 0.29030  0.77300  0.91234  Biso   1.000  C
  C122     1.0000 0.96680  0.57390  0.53311  Biso   1.000  C
  C123     1.0000 0.29460  0.82760  0.99479  Biso   1.000  C
  C124     1.0000 0.53300  0.62440  0.03040  Biso   1.000  C
  H81      1.0000 0.55530  0.60260  0.00990  Biso   1.000  H
  C125     1.0000 0.81750  0.44810  0.49302  Biso   1.000  C
  C126     1.0000 0.82120  0.54470  0.31900  Biso   1.000  C
  H82      1.0000 0.86510  0.56290  0.33900  Biso   1.000  H
  C127     1.0000 0.78420  0.39860  0.52200  Biso   1.000  C
  C128     1.0000 0.81980  0.49810  0.41162  Biso   1.000  C
  C129     1.0000 0.17400  0.95940  0.02590  Biso   1.000  C
  H83      1.0000 0.13200  0.98290  0.00560  Biso   1.000  H
  C130     1.0000 0.69250  0.49490  0.25720  Biso   1.000  C
  H84      1.0000 0.64840  0.47810  0.23640  Biso   1.000  H
  C131     1.0000 0.26400  0.87870  0.02520  Biso   1.000  C
  C132     1.0000 0.29600  0.88990  0.08470  Biso   1.000  C
  H85      1.0000 0.33800  0.86700  0.10620  Biso   1.000  H
  C133     1.0000 0.52660  0.64510  0.11590  Biso   1.000  C
  H86      1.0000 0.54380  0.63720  0.15560  Biso   1.000  H
  C134     1.0000 0.78770  0.50810  0.34820  Biso   1.000  C
  C135     1.0000 0.69200  0.32060  0.52060  Biso   1.000  C
  H87      1.0000 0.65050  0.29630  0.49970  Biso   1.000  H
  C136     1.0000 0.78800  0.55350  0.25930  Biso   1.000  C
  H88      1.0000 0.81090  0.57720  0.24000  Biso   1.000  H
  C137     1.0000 0.19780  0.80250  0.81500  Biso   1.000  C
  H89      1.0000 0.17630  0.83510  0.83160  Biso   1.000  H
  C138     1.0000 0.99750  0.57320  0.59290  Biso   1.000  C
  H90      1.0000 0.97900  0.54430  0.61390  Biso   1.000  H
  C139     1.0000 0.05650  0.61670  0.62070  Biso   1.000  C
  H91      1.0000 0.07650  0.61730  0.66080  Biso   1.000  H
  C140     1.0000 0.25430  0.70460  0.76250  Biso   1.000  C
  H92      1.0000 0.27310  0.66970  0.74480  Biso   1.000  H
  C141     1.0000 0.28470  0.71060  0.82210  Biso   1.000  C
  H93      1.0000 0.32310  0.68060  0.84390  Biso   1.000  H
  C142     1.0000 0.17160  0.79290  0.75560  Biso   1.000  C
  H94      1.0000 0.13230  0.82060  0.73310  Biso   1.000  H
  C143     1.0000 0.81400  0.39070  0.58160  Biso   1.000  C
  H95      1.0000 0.85580  0.41370  0.60360  Biso   1.000  H
  C144     1.0000 0.72160  0.48320  0.31650  Biso   1.000  C
  H96      1.0000 0.69760  0.45920  0.33470  Biso   1.000  H
  N37      1.0000 0.56082  0.61510  0.08783  Biso   1.000  N
  N38      1.0000 0.20438  0.96960  0.08332  Biso   1.000  N
  N39      1.0000 0.19920  0.74650  0.72876  Biso   1.000  N
  N40      1.0000 0.35191  0.78920  0.02741  Biso   1.000  N
  N41      1.0000 0.26173  0.82240  0.93709  Biso   1.000  N
  N42      1.0000 0.34699  0.73200  0.94062  Biso   1.000  N
  N43      1.0000 0.08657  0.65840  0.59275  Biso   1.000  N
  N44      1.0000 0.71980  0.31320  0.57855  Biso   1.000  N
  N45      1.0000 0.72400  0.52910  0.22818  Biso   1.000  N
  N46      1.0000 0.87369  0.48850  0.52701  Biso   1.000  N
  N47      1.0000 0.78879  0.45040  0.43542  Biso   1.000  N
  N48      1.0000 0.87721  0.53740  0.44106  Biso   1.000  N
  Ag9      1.0000 0.65588  0.45775  0.63207  Biso   1.000  Ag
  Ag10     1.0000 0.67712  0.75208  0.13272  Biso   1.000  Ag
  C145     1.0000 0.87590  0.75700  0.49752  Biso   1.000  C
  C146     1.0000 0.76490  0.56470  0.61140  Biso   1.000  C
  H97      1.0000 0.78720  0.55750  0.65120  Biso   1.000  H
  C147     1.0000 0.96690  0.81270  0.58900  Biso   1.000  C
  H98      1.0000 0.94520  0.79200  0.61020  Biso   1.000  H
  C148     1.0000 0.28020  0.15210  0.10790  Biso   1.000  C
  H99      1.0000 0.30040  0.15700  0.14790  Biso   1.000  H
  C149     1.0000 0.94000  0.80200  0.52976  Biso   1.000  C
  C150     1.0000 0.40220  0.96980  0.99893  Biso   1.000  C
  C151     1.0000 0.22160  0.13790  0.99040  Biso   1.000  C
  H100     1.0000 0.20050  0.13430  0.95040  Biso   1.000  H
  C152     1.0000 0.55600  0.84320  0.03490  Biso   1.000  C
  H101     1.0000 0.57610  0.81560  0.01480  Biso   1.000  H
  C153     1.0000 0.97370  0.83580  0.50000  Biso   1.000  C
  H102     1.0000 0.95630  0.83140  0.46010  Biso   1.000  H
  C154     1.0000 0.70200  0.58430  0.49510  Biso   1.000  C
  H103     1.0000 0.67960  0.58860  0.45520  Biso   1.000  H
  C155     1.0000 0.49650  0.88330  0.00370  Biso   1.000  C
  H104     1.0000 0.47660  0.88170  0.96350  Biso   1.000  H
  C156     1.0000 0.75650  0.73750  0.34862  Biso   1.000  C
  C157     1.0000 0.79030  0.72700  0.41234  Biso   1.000  C
  C158     1.0000 0.46680  0.92610  0.03311  Biso   1.000  C
  C159     1.0000 0.79460  0.67240  0.49479  Biso   1.000  C
  C160     1.0000 0.03300  0.87560  0.53040  Biso   1.000  C
  H105     1.0000 0.05530  0.89740  0.50990  Biso   1.000  H
  C161     1.0000 0.31750  0.05190  0.99302  Biso   1.000  C
  C162     1.0000 0.32120  0.95530  0.81900  Biso   1.000  C
  H106     1.0000 0.36510  0.93710  0.83900  Biso   1.000  H
  C163     1.0000 0.28420  0.10140  0.02200  Biso   1.000  C
  C164     1.0000 0.31980  0.00190  0.91162  Biso   1.000  C
  C165     1.0000 0.67400  0.54060  0.52590  Biso   1.000  C
  H107     1.0000 0.63200  0.51710  0.50560  Biso   1.000  H
  C166     1.0000 0.19250  0.00510  0.75720  Biso   1.000  C
  H108     1.0000 0.14840  0.02190  0.73640  Biso   1.000  H
  C167     1.0000 0.76400  0.62130  0.52520  Biso   1.000  C
  C168     1.0000 0.79600  0.61010  0.58470  Biso   1.000  C
  H109     1.0000 0.83800  0.63300  0.60620  Biso   1.000  H
  C169     1.0000 0.02660  0.85490  0.61590  Biso   1.000  C
  H110     1.0000 0.04380  0.86280  0.65560  Biso   1.000  H
  C170     1.0000 0.28770  0.99190  0.84820  Biso   1.000  C
  C171     1.0000 0.19200  0.17940  0.02060  Biso   1.000  C
  H111     1.0000 0.15050  0.20370  0.99970  Biso   1.000  H
  C172     1.0000 0.28800  0.94650  0.75930  Biso   1.000  C
  H112     1.0000 0.31090  0.92280  0.74000  Biso   1.000  H
  C173     1.0000 0.69780  0.69750  0.31500  Biso   1.000  C
  H113     1.0000 0.67630  0.66490  0.33160  Biso   1.000  H
  C174     1.0000 0.49750  0.92680  0.09290  Biso   1.000  C
  H114     1.0000 0.47900  0.95570  0.11390  Biso   1.000  H
  C175     1.0000 0.55650  0.88330  0.12070  Biso   1.000  C
  H115     1.0000 0.57650  0.88270  0.16080  Biso   1.000  H
  C176     1.0000 0.75430  0.79540  0.26250  Biso   1.000  C
  H116     1.0000 0.77310  0.83030  0.24480  Biso   1.000  H
  C177     1.0000 0.78470  0.78940  0.32210  Biso   1.000  C
  H117     1.0000 0.82310  0.81940  0.34390  Biso   1.000  H
  C178     1.0000 0.67160  0.70710  0.25560  Biso   1.000  C
  H118     1.0000 0.63230  0.67940  0.23310  Biso   1.000  H
  C179     1.0000 0.31400  0.10930  0.08160  Biso   1.000  C
  H119     1.0000 0.35580  0.08630  0.10360  Biso   1.000  H
  C180     1.0000 0.22160  0.01680  0.81650  Biso   1.000  C
  H120     1.0000 0.19760  0.04080  0.83470  Biso   1.000  H
  N49      1.0000 0.06082  0.88490  0.58783  Biso   1.000  N
  N50      1.0000 0.70438  0.53040  0.58332  Biso   1.000  N
  N51      1.0000 0.69920  0.75350  0.22876  Biso   1.000  N
  N52      1.0000 0.85191  0.71080  0.52741  Biso   1.000  N
  N53      1.0000 0.76173  0.67760  0.43709  Biso   1.000  N
  N54      1.0000 0.84699  0.76800  0.44062  Biso   1.000  N
  N55      1.0000 0.58657  0.84160  0.09275  Biso   1.000  N
  N56      1.0000 0.21980  0.18680  0.07855  Biso   1.000  N
  N57      1.0000 0.22400  0.97090  0.72818  Biso   1.000  N
  N58      1.0000 0.37369  0.01150  0.02701  Biso   1.000  N
  N59      1.0000 0.28879  0.04960  0.93542  Biso   1.000  N
  N60      1.0000 0.37721  0.96260  0.94106  Biso   1.000  N
  Ag11     1.0000 0.15588  0.95775  0.63207  Biso   1.000  Ag
  Ag12     1.0000 0.17712  0.25208  0.13272  Biso   1.000  Ag
  C181     1.0000 0.37590  0.25700  0.49752  Biso   1.000  C
  C182     1.0000 0.26490  0.06470  0.61140  Biso   1.000  C
  H121     1.0000 0.28720  0.05750  0.65120  Biso   1.000  H
  C183     1.0000 0.46690  0.31270  0.58900  Biso   1.000  C
  H122     1.0000 0.44520  0.29200  0.61020  Biso   1.000  H
  C184     1.0000 0.78020  0.65210  0.10790  Biso   1.000  C
  H123     1.0000 0.80040  0.65700  0.14790  Biso   1.000  H
  C185     1.0000 0.44000  0.30200  0.52976  Biso   1.000  C
  C186     1.0000 0.90220  0.46980  0.99893  Biso   1.000  C
  C187     1.0000 0.72160  0.63790  0.99040  Biso   1.000  C
  H124     1.0000 0.70050  0.63430  0.95040  Biso   1.000  H
  C188     1.0000 0.05600  0.34320  0.03490  Biso   1.000  C
  H125     1.0000 0.07610  0.31560  0.01480  Biso   1.000  H
  C189     1.0000 0.47370  0.33580  0.50000  Biso   1.000  C
  H126     1.0000 0.45630  0.33140  0.46010  Biso   1.000  H
  C190     1.0000 0.20200  0.08430  0.49510  Biso   1.000  C
  H127     1.0000 0.17960  0.08860  0.45520  Biso   1.000  H
  C191     1.0000 0.99650  0.38330  0.00370  Biso   1.000  C
  H128     1.0000 0.97660  0.38170  0.96350  Biso   1.000  H
  C192     1.0000 0.25650  0.23750  0.34862  Biso   1.000  C
  C193     1.0000 0.29030  0.22700  0.41234  Biso   1.000  C
  C194     1.0000 0.96680  0.42610  0.03311  Biso   1.000  C
  C195     1.0000 0.29460  0.17240  0.49479  Biso   1.000  C
  C196     1.0000 0.53300  0.37560  0.53040  Biso   1.000  C
  H129     1.0000 0.55530  0.39740  0.50990  Biso   1.000  H
  C197     1.0000 0.81750  0.55190  0.99302  Biso   1.000  C
  C198     1.0000 0.82120  0.45530  0.81900  Biso   1.000  C
  H130     1.0000 0.86510  0.43710  0.83900  Biso   1.000  H
  C199     1.0000 0.78420  0.60140  0.02200  Biso   1.000  C
  C200     1.0000 0.81980  0.50190  0.91162  Biso   1.000  C
  C201     1.0000 0.17400  0.04060  0.52590  Biso   1.000  C
  H131     1.0000 0.13200  0.01710  0.50560  Biso   1.000  H
  C202     1.0000 0.69250  0.50510  0.75720  Biso   1.000  C
  H132     1.0000 0.64840  0.52190  0.73640  Biso   1.000  H
  C203     1.0000 0.26400  0.12130  0.52520  Biso   1.000  C
  C204     1.0000 0.29600  0.11010  0.58470  Biso   1.000  C
  H133     1.0000 0.33800  0.13300  0.60620  Biso   1.000  H
  C205     1.0000 0.52660  0.35490  0.61590  Biso   1.000  C
  H134     1.0000 0.54380  0.36280  0.65560  Biso   1.000  H
  C206     1.0000 0.78770  0.49190  0.84820  Biso   1.000  C
  C207     1.0000 0.69200  0.67940  0.02060  Biso   1.000  C
  H135     1.0000 0.65050  0.70370  0.99970  Biso   1.000  H
  C208     1.0000 0.78800  0.44650  0.75930  Biso   1.000  C
  H136     1.0000 0.81090  0.42280  0.74000  Biso   1.000  H
  C209     1.0000 0.19780  0.19750  0.31500  Biso   1.000  C
  H137     1.0000 0.17630  0.16490  0.33160  Biso   1.000  H
  C210     1.0000 0.99750  0.42680  0.09290  Biso   1.000  C
  H138     1.0000 0.97900  0.45570  0.11390  Biso   1.000  H
  C211     1.0000 0.05650  0.38330  0.12070  Biso   1.000  C
  H139     1.0000 0.07650  0.38270  0.16080  Biso   1.000  H
  C212     1.0000 0.25430  0.29540  0.26250  Biso   1.000  C
  H140     1.0000 0.27310  0.33030  0.24480  Biso   1.000  H
  C213     1.0000 0.28470  0.28940  0.32210  Biso   1.000  C
  H141     1.0000 0.32310  0.31940  0.34390  Biso   1.000  H
  C214     1.0000 0.17160  0.20710  0.25560  Biso   1.000  C
  H142     1.0000 0.13230  0.17940  0.23310  Biso   1.000  H
  C215     1.0000 0.81400  0.60930  0.08160  Biso   1.000  C
  H143     1.0000 0.85580  0.58630  0.10360  Biso   1.000  H
  C216     1.0000 0.72160  0.51680  0.81650  Biso   1.000  C
  H144     1.0000 0.69760  0.54080  0.83470  Biso   1.000  H
  N61      1.0000 0.56082  0.38490  0.58783  Biso   1.000  N
  N62      1.0000 0.20438  0.03040  0.58332  Biso   1.000  N
  N63      1.0000 0.19920  0.25350  0.22876  Biso   1.000  N
  N64      1.0000 0.35191  0.21080  0.52741  Biso   1.000  N
  N65      1.0000 0.26173  0.17760  0.43709  Biso   1.000  N
  N66      1.0000 0.34699  0.26800  0.44062  Biso   1.000  N
  N67      1.0000 0.08657  0.34160  0.09275  Biso   1.000  N
  N68      1.0000 0.71980  0.68680  0.07855  Biso   1.000  N
  N69      1.0000 0.72400  0.47090  0.72818  Biso   1.000  N
  N70      1.0000 0.87369  0.51150  0.02701  Biso   1.000  N
  N71      1.0000 0.78879  0.54960  0.93542  Biso   1.000  N
  N72      1.0000 0.87721  0.46260  0.94106  Biso   1.000  N
  Ag13     1.0000 0.34412  0.45775  0.86793  Biso   1.000  Ag
  Ag14     1.0000 0.32288  0.75208  0.36728  Biso   1.000  Ag
  C217     1.0000 0.12410  0.75700  0.00248  Biso   1.000  C
  C218     1.0000 0.23510  0.56470  0.88860  Biso   1.000  C
  H145     1.0000 0.21280  0.55750  0.84880  Biso   1.000  H
  C219     1.0000 0.03310  0.81270  0.91100  Biso   1.000  C
  H146     1.0000 0.05480  0.79200  0.88980  Biso   1.000  H
  C220     1.0000 0.71980  0.15210  0.39210  Biso   1.000  C
  H147     1.0000 0.69960  0.15700  0.35210  Biso   1.000  H
  C221     1.0000 0.06000  0.80200  0.97024  Biso   1.000  C
  C222     1.0000 0.59780  0.96980  0.50107  Biso   1.000  C
  C223     1.0000 0.77840  0.13790  0.50960  Biso   1.000  C
  H148     1.0000 0.79950  0.13430  0.54960  Biso   1.000  H
  C224     1.0000 0.44400  0.84320  0.46510  Biso   1.000  C
  H149     1.0000 0.42390  0.81560  0.48520  Biso   1.000  H
  C225     1.0000 0.02630  0.83580  0.00000  Biso   1.000  C
  H150     1.0000 0.04370  0.83140  0.03990  Biso   1.000  H
  C226     1.0000 0.29800  0.58430  0.00490  Biso   1.000  C
  H151     1.0000 0.32040  0.58860  0.04480  Biso   1.000  H
  C227     1.0000 0.50350  0.88330  0.49630  Biso   1.000  C
  H152     1.0000 0.52340  0.88170  0.53650  Biso   1.000  H
  C228     1.0000 0.24350  0.73750  0.15138  Biso   1.000  C
  C229     1.0000 0.20970  0.72700  0.08766  Biso   1.000  C
  C230     1.0000 0.53320  0.92610  0.46689  Biso   1.000  C
  C231     1.0000 0.20540  0.67240  0.00521  Biso   1.000  C
  C232     1.0000 0.96700  0.87560  0.96960  Biso   1.000  C
  H153     1.0000 0.94470  0.89740  0.99010  Biso   1.000  H
  C233     1.0000 0.68250  0.05190  0.50698  Biso   1.000  C
  C234     1.0000 0.67880  0.95530  0.68100  Biso   1.000  C
  H154     1.0000 0.63490  0.93710  0.66100  Biso   1.000  H
  C235     1.0000 0.71580  0.10140  0.47800  Biso   1.000  C
  C236     1.0000 0.68020  0.00190  0.58838  Biso   1.000  C
  C237     1.0000 0.32600  0.54060  0.97410  Biso   1.000  C
  H155     1.0000 0.36800  0.51710  0.99440  Biso   1.000  H
  C238     1.0000 0.80750  0.00510  0.74280  Biso   1.000  C
  H156     1.0000 0.85160  0.02190  0.76360  Biso   1.000  H
  C239     1.0000 0.23600  0.62130  0.97480  Biso   1.000  C
  C240     1.0000 0.20400  0.61010  0.91530  Biso   1.000  C
  H157     1.0000 0.16200  0.63300  0.89380  Biso   1.000  H
  C241     1.0000 0.97340  0.85490  0.88410  Biso   1.000  C
  H158     1.0000 0.95620  0.86280  0.84440  Biso   1.000  H
  C242     1.0000 0.71230  0.99190  0.65180  Biso   1.000  C
  C243     1.0000 0.80800  0.17940  0.47940  Biso   1.000  C
  H159     1.0000 0.84950  0.20370  0.50030  Biso   1.000  H
  C244     1.0000 0.71200  0.94650  0.74070  Biso   1.000  C
  H160     1.0000 0.68910  0.92280  0.76000  Biso   1.000  H
  C245     1.0000 0.30220  0.69750  0.18500  Biso   1.000  C
  H161     1.0000 0.32370  0.66490  0.16840  Biso   1.000  H
  C246     1.0000 0.50250  0.92680  0.40710  Biso   1.000  C
  H162     1.0000 0.52100  0.95570  0.38610  Biso   1.000  H
  C247     1.0000 0.44350  0.88330  0.37930  Biso   1.000  C
  H163     1.0000 0.42350  0.88270  0.33920  Biso   1.000  H
  C248     1.0000 0.24570  0.79540  0.23750  Biso   1.000  C
  H164     1.0000 0.22690  0.83030  0.25520  Biso   1.000  H
  C249     1.0000 0.21530  0.78940  0.17790  Biso   1.000  C
  H165     1.0000 0.17690  0.81940  0.15610  Biso   1.000  H
  C250     1.0000 0.32840  0.70710  0.24440  Biso   1.000  C
  H166     1.0000 0.36770  0.67940  0.26690  Biso   1.000  H
  C251     1.0000 0.68600  0.10930  0.41840  Biso   1.000  C
  H167     1.0000 0.64420  0.08630  0.39640  Biso   1.000  H
  C252     1.0000 0.77840  0.01680  0.68350  Biso   1.000  C
  H168     1.0000 0.80240  0.04080  0.66530  Biso   1.000  H
  N73      1.0000 0.93918  0.88490  0.91217  Biso   1.000  N
  N74      1.0000 0.29562  0.53040  0.91668  Biso   1.000  N
  N75      1.0000 0.30080  0.75350  0.27124  Biso   1.000  N
  N76      1.0000 0.14809  0.71080  0.97259  Biso   1.000  N
  N77      1.0000 0.23827  0.67760  0.06291  Biso   1.000  N
  N78      1.0000 0.15301  0.76800  0.05938  Biso   1.000  N
  N79      1.0000 0.41343  0.84160  0.40725  Biso   1.000  N
  N80      1.0000 0.78020  0.18680  0.42145  Biso   1.000  N
  N81      1.0000 0.77600  0.97090  0.77182  Biso   1.000  N
  N82      1.0000 0.62631  0.01150  0.47299  Biso   1.000  N
  N83      1.0000 0.71121  0.04960  0.56458  Biso   1.000  N
  N84      1.0000 0.62279  0.96260  0.55894  Biso   1.000  N
  Ag15     1.0000 0.84412  0.95775  0.86793  Biso   1.000  Ag
  Ag16     1.0000 0.82288  0.25208  0.36728  Biso   1.000  Ag
  C253     1.0000 0.62410  0.25700  0.00248  Biso   1.000  C
  C254     1.0000 0.73510  0.06470  0.88860  Biso   1.000  C
  H169     1.0000 0.71280  0.05750  0.84880  Biso   1.000  H
  C255     1.0000 0.53310  0.31270  0.91100  Biso   1.000  C
  H170     1.0000 0.55480  0.29200  0.88980  Biso   1.000  H
  C256     1.0000 0.21980  0.65210  0.39210  Biso   1.000  C
  H171     1.0000 0.19960  0.65700  0.35210  Biso   1.000  H
  C257     1.0000 0.56000  0.30200  0.97024  Biso   1.000  C
  C258     1.0000 0.09780  0.46980  0.50107  Biso   1.000  C
  C259     1.0000 0.27840  0.63790  0.50960  Biso   1.000  C
  H172     1.0000 0.29950  0.63430  0.54960  Biso   1.000  H
  C260     1.0000 0.94400  0.34320  0.46510  Biso   1.000  C
  H173     1.0000 0.92390  0.31560  0.48520  Biso   1.000  H
  C261     1.0000 0.52630  0.33580  0.00000  Biso   1.000  C
  H174     1.0000 0.54370  0.33140  0.03990  Biso   1.000  H
  C262     1.0000 0.79800  0.08430  0.00490  Biso   1.000  C
  H175     1.0000 0.82040  0.08860  0.04480  Biso   1.000  H
  C263     1.0000 0.00350  0.38330  0.49630  Biso   1.000  C
  H176     1.0000 0.02340  0.38170  0.53650  Biso   1.000  H
  C264     1.0000 0.74350  0.23750  0.15138  Biso   1.000  C
  C265     1.0000 0.70970  0.22700  0.08766  Biso   1.000  C
  C266     1.0000 0.03320  0.42610  0.46689  Biso   1.000  C
  C267     1.0000 0.70540  0.17240  0.00521  Biso   1.000  C
  C268     1.0000 0.46700  0.37560  0.96960  Biso   1.000  C
  H177     1.0000 0.44470  0.39740  0.99010  Biso   1.000  H
  C269     1.0000 0.18250  0.55190  0.50698  Biso   1.000  C
  C270     1.0000 0.17880  0.45530  0.68100  Biso   1.000  C
  H178     1.0000 0.13490  0.43710  0.66100  Biso   1.000  H
  C271     1.0000 0.21580  0.60140  0.47800  Biso   1.000  C
  C272     1.0000 0.18020  0.50190  0.58838  Biso   1.000  C
  C273     1.0000 0.82600  0.04060  0.97410  Biso   1.000  C
  H179     1.0000 0.86800  0.01710  0.99440  Biso   1.000  H
  C274     1.0000 0.30750  0.50510  0.74280  Biso   1.000  C
  H180     1.0000 0.35160  0.52190  0.76360  Biso   1.000  H
  C275     1.0000 0.73600  0.12130  0.97480  Biso   1.000  C
  C276     1.0000 0.70400  0.11010  0.91530  Biso   1.000  C
  H181     1.0000 0.66200  0.13300  0.89380  Biso   1.000  H
  C277     1.0000 0.47340  0.35490  0.88410  Biso   1.000  C
  H182     1.0000 0.45620  0.36280  0.84440  Biso   1.000  H
  C278     1.0000 0.21230  0.49190  0.65180  Biso   1.000  C
  C279     1.0000 0.30800  0.67940  0.47940  Biso   1.000  C
  H183     1.0000 0.34950  0.70370  0.50030  Biso   1.000  H
  C280     1.0000 0.21200  0.44650  0.74070  Biso   1.000  C
  H184     1.0000 0.18910  0.42280  0.76000  Biso   1.000  H
  C281     1.0000 0.80220  0.19750  0.18500  Biso   1.000  C
  H185     1.0000 0.82370  0.16490  0.16840  Biso   1.000  H
  C282     1.0000 0.00250  0.42680  0.40710  Biso   1.000  C
  H186     1.0000 0.02100  0.45570  0.38610  Biso   1.000  H
  C283     1.0000 0.94350  0.38330  0.37930  Biso   1.000  C
  H187     1.0000 0.92350  0.38270  0.33920  Biso   1.000  H
  C284     1.0000 0.74570  0.29540  0.23750  Biso   1.000  C
  H188     1.0000 0.72690  0.33030  0.25520  Biso   1.000  H
  C285     1.0000 0.71530  0.28940  0.17790  Biso   1.000  C
  H189     1.0000 0.67690  0.31940  0.15610  Biso   1.000  H
  C286     1.0000 0.82840  0.20710  0.24440  Biso   1.000  C
  H190     1.0000 0.86770  0.17940  0.26690  Biso   1.000  H
  C287     1.0000 0.18600  0.60930  0.41840  Biso   1.000  C
  H191     1.0000 0.14420  0.58630  0.39640  Biso   1.000  H
  C288     1.0000 0.27840  0.51680  0.68350  Biso   1.000  C
  H192     1.0000 0.30240  0.54080  0.66530  Biso   1.000  H
  N85      1.0000 0.43918  0.38490  0.91217  Biso   1.000  N
  N86      1.0000 0.79562  0.03040  0.91668  Biso   1.000  N
  N87      1.0000 0.80080  0.25350  0.27124  Biso   1.000  N
  N88      1.0000 0.64809  0.21080  0.97259  Biso   1.000  N
  N89      1.0000 0.73827  0.17760  0.06291  Biso   1.000  N
  N90      1.0000 0.65301  0.26800  0.05938  Biso   1.000  N
  N91      1.0000 0.91343  0.34160  0.40725  Biso   1.000  N
  N92      1.0000 0.28020  0.68680  0.42145  Biso   1.000  N
  N93      1.0000 0.27600  0.47090  0.77182  Biso   1.000  N
  N94      1.0000 0.12631  0.51150  0.47299  Biso   1.000  N
  N95      1.0000 0.21121  0.54960  0.56458  Biso   1.000  N
  N96      1.0000 0.12279  0.46260  0.55894  Biso   1.000  N
