data_image0
_cell_length_a       22.087
_cell_length_b       16.3172
_cell_length_c       25.6279
_cell_angle_alpha    90
_cell_angle_beta     115.265
_cell_angle_gamma    90

_symmetry_space_group_name_H-M    "P 1"
_symmetry_int_tables_number       1

loop_
  _symmetry_equiv_pos_as_xyz
  'x, y, z'

loop_
  _atom_site_label
  _atom_site_occupancy
  _atom_site_fract_x
  _atom_site_fract_y
  _atom_site_fract_z
  _atom_site_thermal_displace_type
  _atom_site_B_iso_or_equiv
  _atom_site_type_symbol
  Ag1      1.0000 0.82296  0.25212  0.86723  Biso   1.000  Ag
  Ag2      1.0000 0.34397  0.45717  0.36776  Biso   1.000  Ag
  C1       1.0000 0.62370  0.25680  0.50240  Biso   1.000  C
  C2       1.0000 0.73530  0.06520  0.38820  Biso   1.000  C
  H1       1.0000 0.71340  0.05860  0.34840  Biso   1.000  H
  C3       1.0000 0.27760  0.63770  0.00890  Biso   1.000  C
  H2       1.0000 0.29850  0.63400  0.04890  Biso   1.000  H
  C4       1.0000 0.00330  0.38370  0.99650  Biso   1.000  C
  H3       1.0000 0.02280  0.38220  0.03660  Biso   1.000  H
  C5       1.0000 0.94350  0.34330  0.96480  Biso   1.000  C
  H4       1.0000 0.92330  0.31520  0.98480  Biso   1.000  H
  C6       1.0000 0.21960  0.65210  0.89190  Biso   1.000  C
  H5       1.0000 0.19960  0.65650  0.85190  Biso   1.000  H
  C7       1.0000 0.53320  0.31210  0.41120  Biso   1.000  C
  H6       1.0000 0.55500  0.29120  0.39000  Biso   1.000  H
  C8       1.0000 0.09770  0.46990  0.00100  Biso   1.000  C
  C9       1.0000 0.79810  0.08400  0.50490  Biso   1.000  C
  H7       1.0000 0.82040  0.08830  0.54490  Biso   1.000  H
  C10      1.0000 0.55980  0.30190  0.47010  Biso   1.000  C
  C11      1.0000 0.17920  0.45630  0.18150  Biso   1.000  C
  H8       1.0000 0.13520  0.43880  0.16160  Biso   1.000  H
  C12      1.0000 0.03340  0.42620  0.96710  Biso   1.000  C
  C13      1.0000 0.70980  0.22690  0.58760  Biso   1.000  C
  C14      1.0000 0.74330  0.23730  0.65140  Biso   1.000  C
  C15      1.0000 0.52590  0.33520  0.50010  Biso   1.000  C
  H9       1.0000 0.54300  0.33050  0.54000  Biso   1.000  H
  C16      1.0000 0.18040  0.50230  0.08840  Biso   1.000  C
  C17      1.0000 0.18250  0.55170  0.00670  Biso   1.000  C
  C18      1.0000 0.82600  0.04080  0.47410  Biso   1.000  C
  H10      1.0000 0.86800  0.01760  0.49440  Biso   1.000  H
  C19      1.0000 0.21510  0.60130  0.97740  Biso   1.000  C
  C20      1.0000 0.18550  0.60980  0.91820  Biso   1.000  C
  H11      1.0000 0.14350  0.58750  0.89630  Biso   1.000  H
  C21      1.0000 0.73620  0.12090  0.47490  Biso   1.000  C
  C22      1.0000 0.30790  0.50480  0.24270  Biso   1.000  C
  H12      1.0000 0.35210  0.52120  0.26340  Biso   1.000  H
  C23      1.0000 0.46660  0.37530  0.46930  Biso   1.000  C
  H13      1.0000 0.44430  0.39760  0.48960  Biso   1.000  H
  C24      1.0000 0.70560  0.17210  0.50520  Biso   1.000  C
  C25      1.0000 0.30810  0.67970  0.97890  Biso   1.000  C
  H14      1.0000 0.34970  0.70360  0.99990  Biso   1.000  H
  C26      1.0000 0.47280  0.35440  0.38400  Biso   1.000  C
  H15      1.0000 0.45530  0.36210  0.34430  Biso   1.000  H
  C27      1.0000 0.94360  0.38350  0.87960  Biso   1.000  C
  H16      1.0000 0.92390  0.38240  0.83940  Biso   1.000  H
  C28      1.0000 0.00230  0.42720  0.90710  Biso   1.000  C
  H17      1.0000 0.02050  0.45650  0.88610  Biso   1.000  H
  C29      1.0000 0.70400  0.11030  0.41520  Biso   1.000  C
  H18      1.0000 0.66210  0.13340  0.39390  Biso   1.000  H
  C30      1.0000 0.27820  0.51660  0.18330  Biso   1.000  C
  H19      1.0000 0.30220  0.54020  0.16480  Biso   1.000  H
  C31      1.0000 0.21230  0.49240  0.15200  Biso   1.000  C
  C32      1.0000 0.82830  0.20710  0.74460  Biso   1.000  C
  H20      1.0000 0.86770  0.17950  0.76720  Biso   1.000  H
  C33      1.0000 0.71540  0.28940  0.67810  Biso   1.000  C
  H21      1.0000 0.67730  0.31980  0.65630  Biso   1.000  H
  C34      1.0000 0.80230  0.19750  0.68510  Biso   1.000  C
  H22      1.0000 0.82400  0.16510  0.66850  Biso   1.000  H
  C35      1.0000 0.21190  0.44650  0.24040  Biso   1.000  C
  H23      1.0000 0.18900  0.42210  0.25950  Biso   1.000  H
  C36      1.0000 0.74500  0.29530  0.73720  Biso   1.000  C
  H24      1.0000 0.72570  0.33000  0.75470  Biso   1.000  H
  N1       1.0000 0.91330  0.34260  0.90722  Biso   1.000  N
  N2       1.0000 0.28000  0.68720  0.92140  Biso   1.000  N
  N3       1.0000 0.27590  0.47090  0.27170  Biso   1.000  N
  N4       1.0000 0.12280  0.46270  0.05890  Biso   1.000  N
  N5       1.0000 0.12630  0.51120  0.97315  Biso   1.000  N
  N6       1.0000 0.21150  0.54990  0.06485  Biso   1.000  N
  N7       1.0000 0.43900  0.38430  0.41210  Biso   1.000  N
  N8       1.0000 0.79570  0.03030  0.41656  Biso   1.000  N
  N9       1.0000 0.80040  0.25360  0.77130  Biso   1.000  N
  N10      1.0000 0.64800  0.21050  0.47260  Biso   1.000  N
  N11      1.0000 0.73820  0.17750  0.56314  Biso   1.000  N
  N12      1.0000 0.65290  0.26810  0.55923  Biso   1.000  N
  Ag3      1.0000 0.32296  0.75212  0.86723  Biso   1.000  Ag
  Ag4      1.0000 0.84397  0.95717  0.36776  Biso   1.000  Ag
  C37      1.0000 0.12370  0.75680  0.50240  Biso   1.000  C
  C38      1.0000 0.23530  0.56520  0.38820  Biso   1.000  C
  H25      1.0000 0.21340  0.55860  0.34840  Biso   1.000  H
  C39      1.0000 0.77760  0.13770  0.00890  Biso   1.000  C
  H26      1.0000 0.79850  0.13400  0.04890  Biso   1.000  H
  C40      1.0000 0.50330  0.88370  0.99650  Biso   1.000  C
  H27      1.0000 0.52280  0.88220  0.03660  Biso   1.000  H
  C41      1.0000 0.44350  0.84330  0.96480  Biso   1.000  C
  H28      1.0000 0.42330  0.81520  0.98480  Biso   1.000  H
  C42      1.0000 0.71960  0.15210  0.89190  Biso   1.000  C
  H29      1.0000 0.69960  0.15650  0.85190  Biso   1.000  H
  C43      1.0000 0.03320  0.81210  0.41120  Biso   1.000  C
  H30      1.0000 0.05500  0.79120  0.39000  Biso   1.000  H
  C44      1.0000 0.59770  0.96990  0.00100  Biso   1.000  C
  C45      1.0000 0.29810  0.58400  0.50490  Biso   1.000  C
  H31      1.0000 0.32040  0.58830  0.54490  Biso   1.000  H
  C46      1.0000 0.05980  0.80190  0.47010  Biso   1.000  C
  C47      1.0000 0.67920  0.95630  0.18150  Biso   1.000  C
  H32      1.0000 0.63520  0.93880  0.16160  Biso   1.000  H
  C48      1.0000 0.53340  0.92620  0.96710  Biso   1.000  C
  C49      1.0000 0.20980  0.72690  0.58760  Biso   1.000  C
  C50      1.0000 0.24330  0.73730  0.65140  Biso   1.000  C
  C51      1.0000 0.02590  0.83520  0.50010  Biso   1.000  C
  H33      1.0000 0.04300  0.83050  0.54000  Biso   1.000  H
  C52      1.0000 0.68040  0.00230  0.08840  Biso   1.000  C
  C53      1.0000 0.68250  0.05170  0.00670  Biso   1.000  C
  C54      1.0000 0.32600  0.54080  0.47410  Biso   1.000  C
  H34      1.0000 0.36800  0.51760  0.49440  Biso   1.000  H
  C55      1.0000 0.71510  0.10130  0.97740  Biso   1.000  C
  C56      1.0000 0.68550  0.10980  0.91820  Biso   1.000  C
  H35      1.0000 0.64350  0.08750  0.89630  Biso   1.000  H
  C57      1.0000 0.23620  0.62090  0.47490  Biso   1.000  C
  C58      1.0000 0.80790  0.00480  0.24270  Biso   1.000  C
  H36      1.0000 0.85210  0.02120  0.26340  Biso   1.000  H
  C59      1.0000 0.96660  0.87530  0.46930  Biso   1.000  C
  H37      1.0000 0.94430  0.89760  0.48960  Biso   1.000  H
  C60      1.0000 0.20560  0.67210  0.50520  Biso   1.000  C
  C61      1.0000 0.80810  0.17970  0.97890  Biso   1.000  C
  H38      1.0000 0.84970  0.20360  0.99990  Biso   1.000  H
  C62      1.0000 0.97280  0.85440  0.38400  Biso   1.000  C
  H39      1.0000 0.95530  0.86210  0.34430  Biso   1.000  H
  C63      1.0000 0.44360  0.88350  0.87960  Biso   1.000  C
  H40      1.0000 0.42390  0.88240  0.83940  Biso   1.000  H
  C64      1.0000 0.50230  0.92720  0.90710  Biso   1.000  C
  H41      1.0000 0.52050  0.95650  0.88610  Biso   1.000  H
  C65      1.0000 0.20400  0.61030  0.41520  Biso   1.000  C
  H42      1.0000 0.16210  0.63340  0.39390  Biso   1.000  H
  C66      1.0000 0.77820  0.01660  0.18330  Biso   1.000  C
  H43      1.0000 0.80220  0.04020  0.16480  Biso   1.000  H
  C67      1.0000 0.71230  0.99240  0.15200  Biso   1.000  C
  C68      1.0000 0.32830  0.70710  0.74460  Biso   1.000  C
  H44      1.0000 0.36770  0.67950  0.76720  Biso   1.000  H
  C69      1.0000 0.21540  0.78940  0.67810  Biso   1.000  C
  H45      1.0000 0.17730  0.81980  0.65630  Biso   1.000  H
  C70      1.0000 0.30230  0.69750  0.68510  Biso   1.000  C
  H46      1.0000 0.32400  0.66510  0.66850  Biso   1.000  H
  C71      1.0000 0.71190  0.94650  0.24040  Biso   1.000  C
  H47      1.0000 0.68900  0.92210  0.25950  Biso   1.000  H
  C72      1.0000 0.24500  0.79530  0.73720  Biso   1.000  C
  H48      1.0000 0.22570  0.83000  0.75470  Biso   1.000  H
  N13      1.0000 0.41330  0.84260  0.90722  Biso   1.000  N
  N14      1.0000 0.78000  0.18720  0.92140  Biso   1.000  N
  N15      1.0000 0.77590  0.97090  0.27170  Biso   1.000  N
  N16      1.0000 0.62280  0.96270  0.05890  Biso   1.000  N
  N17      1.0000 0.62630  0.01120  0.97315  Biso   1.000  N
  N18      1.0000 0.71150  0.04990  0.06485  Biso   1.000  N
  N19      1.0000 0.93900  0.88430  0.41210  Biso   1.000  N
  N20      1.0000 0.29570  0.53030  0.41656  Biso   1.000  N
  N21      1.0000 0.30040  0.75360  0.77130  Biso   1.000  N
  N22      1.0000 0.14800  0.71050  0.47260  Biso   1.000  N
  N23      1.0000 0.23820  0.67750  0.56314  Biso   1.000  N
  N24      1.0000 0.15290  0.76810  0.55923  Biso   1.000  N
  Ag5      1.0000 0.17704  0.25212  0.63277  Biso   1.000  Ag
  Ag6      1.0000 0.65603  0.45717  0.13224  Biso   1.000  Ag
  C73      1.0000 0.37630  0.25680  0.99760  Biso   1.000  C
  C74      1.0000 0.26470  0.06520  0.11180  Biso   1.000  C
  H49      1.0000 0.28660  0.05860  0.15160  Biso   1.000  H
  C75      1.0000 0.72240  0.63770  0.49110  Biso   1.000  C
  H50      1.0000 0.70150  0.63400  0.45110  Biso   1.000  H
  C76      1.0000 0.99670  0.38370  0.50350  Biso   1.000  C
  H51      1.0000 0.97720  0.38220  0.46340  Biso   1.000  H
  C77      1.0000 0.05650  0.34330  0.53520  Biso   1.000  C
  H52      1.0000 0.07670  0.31520  0.51520  Biso   1.000  H
  C78      1.0000 0.78040  0.65210  0.60810  Biso   1.000  C
  H53      1.0000 0.80040  0.65650  0.64810  Biso   1.000  H
  C79      1.0000 0.46680  0.31210  0.08880  Biso   1.000  C
  H54      1.0000 0.44500  0.29120  0.11000  Biso   1.000  H
  C80      1.0000 0.90230  0.46990  0.49900  Biso   1.000  C
  C81      1.0000 0.20190  0.08400  0.99510  Biso   1.000  C
  H55      1.0000 0.17960  0.08830  0.95510  Biso   1.000  H
  C82      1.0000 0.44020  0.30190  0.02990  Biso   1.000  C
  C83      1.0000 0.82080  0.45630  0.31850  Biso   1.000  C
  H56      1.0000 0.86480  0.43880  0.33840  Biso   1.000  H
  C84      1.0000 0.96660  0.42620  0.53290  Biso   1.000  C
  C85      1.0000 0.29020  0.22690  0.91240  Biso   1.000  C
  C86      1.0000 0.25670  0.23730  0.84860  Biso   1.000  C
  C87      1.0000 0.47410  0.33520  0.99990  Biso   1.000  C
  H57      1.0000 0.45700  0.33050  0.96000  Biso   1.000  H
  C88      1.0000 0.81960  0.50230  0.41160  Biso   1.000  C
  C89      1.0000 0.81750  0.55170  0.49330  Biso   1.000  C
  C90      1.0000 0.17400  0.04080  0.02590  Biso   1.000  C
  H58      1.0000 0.13200  0.01760  0.00560  Biso   1.000  H
  C91      1.0000 0.78490  0.60130  0.52260  Biso   1.000  C
  C92      1.0000 0.81450  0.60980  0.58180  Biso   1.000  C
  H59      1.0000 0.85650  0.58750  0.60370  Biso   1.000  H
  C93      1.0000 0.26380  0.12090  0.02510  Biso   1.000  C
  C94      1.0000 0.69210  0.50480  0.25730  Biso   1.000  C
  H60      1.0000 0.64790  0.52120  0.23660  Biso   1.000  H
  C95      1.0000 0.53340  0.37530  0.03070  Biso   1.000  C
  H61      1.0000 0.55570  0.39760  0.01040  Biso   1.000  H
  C96      1.0000 0.29440  0.17210  0.99480  Biso   1.000  C
  C97      1.0000 0.69190  0.67970  0.52110  Biso   1.000  C
  H62      1.0000 0.65030  0.70360  0.50010  Biso   1.000  H
  C98      1.0000 0.52720  0.35440  0.11600  Biso   1.000  C
  H63      1.0000 0.54470  0.36210  0.15570  Biso   1.000  H
  C99      1.0000 0.05640  0.38350  0.62040  Biso   1.000  C
  H64      1.0000 0.07610  0.38240  0.66060  Biso   1.000  H
  C100     1.0000 0.99770  0.42720  0.59290  Biso   1.000  C
  H65      1.0000 0.97950  0.45650  0.61390  Biso   1.000  H
  C101     1.0000 0.29600  0.11030  0.08480  Biso   1.000  C
  H66      1.0000 0.33790  0.13340  0.10610  Biso   1.000  H
  C102     1.0000 0.72180  0.51660  0.31670  Biso   1.000  C
  H67      1.0000 0.69780  0.54020  0.33520  Biso   1.000  H
  C103     1.0000 0.78770  0.49240  0.34800  Biso   1.000  C
  C104     1.0000 0.17170  0.20710  0.75540  Biso   1.000  C
  H68      1.0000 0.13230  0.17950  0.73280  Biso   1.000  H
  C105     1.0000 0.28460  0.28940  0.82190  Biso   1.000  C
  H69      1.0000 0.32270  0.31980  0.84370  Biso   1.000  H
  C106     1.0000 0.19770  0.19750  0.81490  Biso   1.000  C
  H70      1.0000 0.17600  0.16510  0.83150  Biso   1.000  H
  C107     1.0000 0.78810  0.44650  0.25960  Biso   1.000  C
  H71      1.0000 0.81100  0.42210  0.24050  Biso   1.000  H
  C108     1.0000 0.25500  0.29530  0.76280  Biso   1.000  C
  H72      1.0000 0.27430  0.33000  0.74530  Biso   1.000  H
  N25      1.0000 0.08670  0.34260  0.59278  Biso   1.000  N
  N26      1.0000 0.72000  0.68720  0.57860  Biso   1.000  N
  N27      1.0000 0.72410  0.47090  0.22830  Biso   1.000  N
  N28      1.0000 0.87720  0.46270  0.44110  Biso   1.000  N
  N29      1.0000 0.87370  0.51120  0.52685  Biso   1.000  N
  N30      1.0000 0.78850  0.54990  0.43515  Biso   1.000  N
  N31      1.0000 0.56100  0.38430  0.08790  Biso   1.000  N
  N32      1.0000 0.20430  0.03030  0.08344  Biso   1.000  N
  N33      1.0000 0.19960  0.25360  0.72870  Biso   1.000  N
  N34      1.0000 0.35200  0.21050  0.02740  Biso   1.000  N
  N35      1.0000 0.26180  0.17750  0.93686  Biso   1.000  N
  N36      1.0000 0.34710  0.26810  0.94077  Biso   1.000  N
  Ag7      1.0000 0.67704  0.75212  0.63277  Biso   1.000  Ag
  Ag8      1.0000 0.15603  0.95717  0.13224  Biso   1.000  Ag
  C109     1.0000 0.87630  0.75680  0.99760  Biso   1.000  C
  C110     1.0000 0.76470  0.56520  0.11180  Biso   1.000  C
  H73      1.0000 0.78660  0.55860  0.15160  Biso   1.000  H
  C111     1.0000 0.22240  0.13770  0.49110  Biso   1.000  C
  H74      1.0000 0.20150  0.13400  0.45110  Biso   1.000  H
  C112     1.0000 0.49670  0.88370  0.50350  Biso   1.000  C
  H75      1.0000 0.47720  0.88220  0.46340  Biso   1.000  H
  C113     1.0000 0.55650  0.84330  0.53520  Biso   1.000  C
  H76      1.0000 0.57670  0.81520  0.51520  Biso   1.000  H
  C114     1.0000 0.28040  0.15210  0.60810  Biso   1.000  C
  H77      1.0000 0.30040  0.15650  0.64810  Biso   1.000  H
  C115     1.0000 0.96680  0.81210  0.08880  Biso   1.000  C
  H78      1.0000 0.94500  0.79120  0.11000  Biso   1.000  H
  C116     1.0000 0.40230  0.96990  0.49900  Biso   1.000  C
  C117     1.0000 0.70190  0.58400  0.99510  Biso   1.000  C
  H79      1.0000 0.67960  0.58830  0.95510  Biso   1.000  H
  C118     1.0000 0.94020  0.80190  0.02990  Biso   1.000  C
  C119     1.0000 0.32080  0.95630  0.31850  Biso   1.000  C
  H80      1.0000 0.36480  0.93880  0.33840  Biso   1.000  H
  C120     1.0000 0.46660  0.92620  0.53290  Biso   1.000  C
  C121     1.0000 0.79020  0.72690  0.91240  Biso   1.000  C
  C122     1.0000 0.75670  0.73730  0.84860  Biso   1.000  C
  C123     1.0000 0.97410  0.83520  0.99990  Biso   1.000  C
  H81      1.0000 0.95700  0.83050  0.96000  Biso   1.000  H
  C124     1.0000 0.31960  0.00230  0.41160  Biso   1.000  C
  C125     1.0000 0.31750  0.05170  0.49330  Biso   1.000  C
  C126     1.0000 0.67400  0.54080  0.02590  Biso   1.000  C
  H82      1.0000 0.63200  0.51760  0.00560  Biso   1.000  H
  C127     1.0000 0.28490  0.10130  0.52260  Biso   1.000  C
  C128     1.0000 0.31450  0.10980  0.58180  Biso   1.000  C
  H83      1.0000 0.35650  0.08750  0.60370  Biso   1.000  H
  C129     1.0000 0.76380  0.62090  0.02510  Biso   1.000  C
  C130     1.0000 0.19210  0.00480  0.25730  Biso   1.000  C
  H84      1.0000 0.14790  0.02120  0.23660  Biso   1.000  H
  C131     1.0000 0.03340  0.87530  0.03070  Biso   1.000  C
  H85      1.0000 0.05570  0.89760  0.01040  Biso   1.000  H
  C132     1.0000 0.79440  0.67210  0.99480  Biso   1.000  C
  C133     1.0000 0.19190  0.17970  0.52110  Biso   1.000  C
  H86      1.0000 0.15030  0.20360  0.50010  Biso   1.000  H
  C134     1.0000 0.02720  0.85440  0.11600  Biso   1.000  C
  H87      1.0000 0.04470  0.86210  0.15570  Biso   1.000  H
  C135     1.0000 0.55640  0.88350  0.62040  Biso   1.000  C
  H88      1.0000 0.57610  0.88240  0.66060  Biso   1.000  H
  C136     1.0000 0.49770  0.92720  0.59290  Biso   1.000  C
  H89      1.0000 0.47950  0.95650  0.61390  Biso   1.000  H
  C137     1.0000 0.79600  0.61030  0.08480  Biso   1.000  C
  H90      1.0000 0.83790  0.63340  0.10610  Biso   1.000  H
  C138     1.0000 0.22180  0.01660  0.31670  Biso   1.000  C
  H91      1.0000 0.19780  0.04020  0.33520  Biso   1.000  H
  C139     1.0000 0.28770  0.99240  0.34800  Biso   1.000  C
  C140     1.0000 0.67170  0.70710  0.75540  Biso   1.000  C
  H92      1.0000 0.63230  0.67950  0.73280  Biso   1.000  H
  C141     1.0000 0.78460  0.78940  0.82190  Biso   1.000  C
  H93      1.0000 0.82270  0.81980  0.84370  Biso   1.000  H
  C142     1.0000 0.69770  0.69750  0.81490  Biso   1.000  C
  H94      1.0000 0.67600  0.66510  0.83150  Biso   1.000  H
  C143     1.0000 0.28810  0.94650  0.25960  Biso   1.000  C
  H95      1.0000 0.31100  0.92210  0.24050  Biso   1.000  H
  C144     1.0000 0.75500  0.79530  0.76280  Biso   1.000  C
  H96      1.0000 0.77430  0.83000  0.74530  Biso   1.000  H
  N37      1.0000 0.58670  0.84260  0.59278  Biso   1.000  N
  N38      1.0000 0.22000  0.18720  0.57860  Biso   1.000  N
  N39      1.0000 0.22410  0.97090  0.22830  Biso   1.000  N
  N40      1.0000 0.37720  0.96270  0.44110  Biso   1.000  N
  N41      1.0000 0.37370  0.01120  0.52685  Biso   1.000  N
  N42      1.0000 0.28850  0.04990  0.43515  Biso   1.000  N
  N43      1.0000 0.06100  0.88430  0.08790  Biso   1.000  N
  N44      1.0000 0.70430  0.53030  0.08344  Biso   1.000  N
  N45      1.0000 0.69960  0.75360  0.72870  Biso   1.000  N
  N46      1.0000 0.85200  0.71050  0.02740  Biso   1.000  N
  N47      1.0000 0.76180  0.67750  0.93686  Biso   1.000  N
  N48      1.0000 0.84710  0.76810  0.94077  Biso   1.000  N
  Ag9      1.0000 0.17704  0.74788  0.13277  Biso   1.000  Ag
  Ag10     1.0000 0.65603  0.54283  0.63224  Biso   1.000  Ag
  C145     1.0000 0.37630  0.74320  0.49760  Biso   1.000  C
  C146     1.0000 0.26470  0.93480  0.61180  Biso   1.000  C
  H97      1.0000 0.28660  0.94140  0.65160  Biso   1.000  H
  C147     1.0000 0.72240  0.36230  0.99110  Biso   1.000  C
  H98      1.0000 0.70150  0.36600  0.95110  Biso   1.000  H
  C148     1.0000 0.99670  0.61630  0.00350  Biso   1.000  C
  H99      1.0000 0.97720  0.61780  0.96340  Biso   1.000  H
  C149     1.0000 0.05650  0.65670  0.03520  Biso   1.000  C
  H100     1.0000 0.07670  0.68480  0.01520  Biso   1.000  H
  C150     1.0000 0.78040  0.34790  0.10810  Biso   1.000  C
  H101     1.0000 0.80040  0.34350  0.14810  Biso   1.000  H
  C151     1.0000 0.46680  0.68790  0.58880  Biso   1.000  C
  H102     1.0000 0.44500  0.70880  0.61000  Biso   1.000  H
  C152     1.0000 0.90230  0.53010  0.99900  Biso   1.000  C
  C153     1.0000 0.20190  0.91600  0.49510  Biso   1.000  C
  H103     1.0000 0.17960  0.91170  0.45510  Biso   1.000  H
  C154     1.0000 0.44020  0.69810  0.52990  Biso   1.000  C
  C155     1.0000 0.82080  0.54370  0.81850  Biso   1.000  C
  H104     1.0000 0.86480  0.56120  0.83840  Biso   1.000  H
  C156     1.0000 0.96660  0.57380  0.03290  Biso   1.000  C
  C157     1.0000 0.29020  0.77310  0.41240  Biso   1.000  C
  C158     1.0000 0.25670  0.76270  0.34860  Biso   1.000  C
  C159     1.0000 0.47410  0.66480  0.49990  Biso   1.000  C
  H105     1.0000 0.45700  0.66950  0.46000  Biso   1.000  H
  C160     1.0000 0.81960  0.49770  0.91160  Biso   1.000  C
  C161     1.0000 0.81750  0.44830  0.99330  Biso   1.000  C
  C162     1.0000 0.17400  0.95920  0.52590  Biso   1.000  C
  H106     1.0000 0.13200  0.98240  0.50560  Biso   1.000  H
  C163     1.0000 0.78490  0.39870  0.02260  Biso   1.000  C
  C164     1.0000 0.81450  0.39020  0.08180  Biso   1.000  C
  H107     1.0000 0.85650  0.41250  0.10370  Biso   1.000  H
  C165     1.0000 0.26380  0.87910  0.52510  Biso   1.000  C
  C166     1.0000 0.69210  0.49520  0.75730  Biso   1.000  C
  H108     1.0000 0.64790  0.47880  0.73660  Biso   1.000  H
  C167     1.0000 0.53340  0.62470  0.53070  Biso   1.000  C
  H109     1.0000 0.55570  0.60240  0.51040  Biso   1.000  H
  C168     1.0000 0.29440  0.82790  0.49480  Biso   1.000  C
  C169     1.0000 0.69190  0.32030  0.02110  Biso   1.000  C
  H110     1.0000 0.65030  0.29640  0.00010  Biso   1.000  H
  C170     1.0000 0.52720  0.64560  0.61600  Biso   1.000  C
  H111     1.0000 0.54470  0.63790  0.65570  Biso   1.000  H
  C171     1.0000 0.05640  0.61650  0.12040  Biso   1.000  C
  H112     1.0000 0.07610  0.61760  0.16060  Biso   1.000  H
  C172     1.0000 0.99770  0.57280  0.09290  Biso   1.000  C
  H113     1.0000 0.97950  0.54350  0.11390  Biso   1.000  H
  C173     1.0000 0.29600  0.88970  0.58480  Biso   1.000  C
  H114     1.0000 0.33790  0.86660  0.60610  Biso   1.000  H
  C174     1.0000 0.72180  0.48340  0.81670  Biso   1.000  C
  H115     1.0000 0.69780  0.45980  0.83520  Biso   1.000  H
  C175     1.0000 0.78770  0.50760  0.84800  Biso   1.000  C
  C176     1.0000 0.17170  0.79290  0.25540  Biso   1.000  C
  H116     1.0000 0.13230  0.82050  0.23280  Biso   1.000  H
  C177     1.0000 0.28460  0.71060  0.32190  Biso   1.000  C
  H117     1.0000 0.32270  0.68020  0.34370  Biso   1.000  H
  C178     1.0000 0.19770  0.80250  0.31490  Biso   1.000  C
  H118     1.0000 0.17600  0.83490  0.33150  Biso   1.000  H
  C179     1.0000 0.78810  0.55350  0.75960  Biso   1.000  C
  H119     1.0000 0.81100  0.57790  0.74050  Biso   1.000  H
  C180     1.0000 0.25500  0.70470  0.26280  Biso   1.000  C
  H120     1.0000 0.27430  0.67000  0.24530  Biso   1.000  H
  N49      1.0000 0.08670  0.65740  0.09278  Biso   1.000  N
  N50      1.0000 0.72000  0.31280  0.07860  Biso   1.000  N
  N51      1.0000 0.72410  0.52910  0.72830  Biso   1.000  N
  N52      1.0000 0.87720  0.53730  0.94110  Biso   1.000  N
  N53      1.0000 0.87370  0.48880  0.02685  Biso   1.000  N
  N54      1.0000 0.78850  0.45010  0.93515  Biso   1.000  N
  N55      1.0000 0.56100  0.61570  0.58790  Biso   1.000  N
  N56      1.0000 0.20430  0.96970  0.58344  Biso   1.000  N
  N57      1.0000 0.19960  0.74640  0.22870  Biso   1.000  N
  N58      1.0000 0.35200  0.78950  0.52740  Biso   1.000  N
  N59      1.0000 0.26180  0.82250  0.43686  Biso   1.000  N
  N60      1.0000 0.34710  0.73190  0.44077  Biso   1.000  N
  Ag11     1.0000 0.67704  0.24788  0.13277  Biso   1.000  Ag
  Ag12     1.0000 0.15603  0.04283  0.63224  Biso   1.000  Ag
  C181     1.0000 0.87630  0.24320  0.49760  Biso   1.000  C
  C182     1.0000 0.76470  0.43480  0.61180  Biso   1.000  C
  H121     1.0000 0.78660  0.44140  0.65160  Biso   1.000  H
  C183     1.0000 0.22240  0.86230  0.99110  Biso   1.000  C
  H122     1.0000 0.20150  0.86600  0.95110  Biso   1.000  H
  C184     1.0000 0.49670  0.11630  0.00350  Biso   1.000  C
  H123     1.0000 0.47720  0.11780  0.96340  Biso   1.000  H
  C185     1.0000 0.55650  0.15670  0.03520  Biso   1.000  C
  H124     1.0000 0.57670  0.18480  0.01520  Biso   1.000  H
  C186     1.0000 0.28040  0.84790  0.10810  Biso   1.000  C
  H125     1.0000 0.30040  0.84350  0.14810  Biso   1.000  H
  C187     1.0000 0.96680  0.18790  0.58880  Biso   1.000  C
  H126     1.0000 0.94500  0.20880  0.61000  Biso   1.000  H
  C188     1.0000 0.40230  0.03010  0.99900  Biso   1.000  C
  C189     1.0000 0.70190  0.41600  0.49510  Biso   1.000  C
  H127     1.0000 0.67960  0.41170  0.45510  Biso   1.000  H
  C190     1.0000 0.94020  0.19810  0.52990  Biso   1.000  C
  C191     1.0000 0.32080  0.04370  0.81850  Biso   1.000  C
  H128     1.0000 0.36480  0.06120  0.83840  Biso   1.000  H
  C192     1.0000 0.46660  0.07380  0.03290  Biso   1.000  C
  C193     1.0000 0.79020  0.27310  0.41240  Biso   1.000  C
  C194     1.0000 0.75670  0.26270  0.34860  Biso   1.000  C
  C195     1.0000 0.97410  0.16480  0.49990  Biso   1.000  C
  H129     1.0000 0.95700  0.16950  0.46000  Biso   1.000  H
  C196     1.0000 0.31960  0.99770  0.91160  Biso   1.000  C
  C197     1.0000 0.31750  0.94830  0.99330  Biso   1.000  C
  C198     1.0000 0.67400  0.45920  0.52590  Biso   1.000  C
  H130     1.0000 0.63200  0.48240  0.50560  Biso   1.000  H
  C199     1.0000 0.28490  0.89870  0.02260  Biso   1.000  C
  C200     1.0000 0.31450  0.89020  0.08180  Biso   1.000  C
  H131     1.0000 0.35650  0.91250  0.10370  Biso   1.000  H
  C201     1.0000 0.76380  0.37910  0.52510  Biso   1.000  C
  C202     1.0000 0.19210  0.99520  0.75730  Biso   1.000  C
  H132     1.0000 0.14790  0.97880  0.73660  Biso   1.000  H
  C203     1.0000 0.03340  0.12470  0.53070  Biso   1.000  C
  H133     1.0000 0.05570  0.10240  0.51040  Biso   1.000  H
  C204     1.0000 0.79440  0.32790  0.49480  Biso   1.000  C
  C205     1.0000 0.19190  0.82030  0.02110  Biso   1.000  C
  H134     1.0000 0.15030  0.79640  0.00010  Biso   1.000  H
  C206     1.0000 0.02720  0.14560  0.61600  Biso   1.000  C
  H135     1.0000 0.04470  0.13790  0.65570  Biso   1.000  H
  C207     1.0000 0.55640  0.11650  0.12040  Biso   1.000  C
  H136     1.0000 0.57610  0.11760  0.16060  Biso   1.000  H
  C208     1.0000 0.49770  0.07280  0.09290  Biso   1.000  C
  H137     1.0000 0.47950  0.04350  0.11390  Biso   1.000  H
  C209     1.0000 0.79600  0.38970  0.58480  Biso   1.000  C
  H138     1.0000 0.83790  0.36660  0.60610  Biso   1.000  H
  C210     1.0000 0.22180  0.98340  0.81670  Biso   1.000  C
  H139     1.0000 0.19780  0.95980  0.83520  Biso   1.000  H
  C211     1.0000 0.28770  0.00760  0.84800  Biso   1.000  C
  C212     1.0000 0.67170  0.29290  0.25540  Biso   1.000  C
  H140     1.0000 0.63230  0.32050  0.23280  Biso   1.000  H
  C213     1.0000 0.78460  0.21060  0.32190  Biso   1.000  C
  H141     1.0000 0.82270  0.18020  0.34370  Biso   1.000  H
  C214     1.0000 0.69770  0.30250  0.31490  Biso   1.000  C
  H142     1.0000 0.67600  0.33490  0.33150  Biso   1.000  H
  C215     1.0000 0.28810  0.05350  0.75960  Biso   1.000  C
  H143     1.0000 0.31100  0.07790  0.74050  Biso   1.000  H
  C216     1.0000 0.75500  0.20470  0.26280  Biso   1.000  C
  H144     1.0000 0.77430  0.17000  0.24530  Biso   1.000  H
  N61      1.0000 0.58670  0.15740  0.09278  Biso   1.000  N
  N62      1.0000 0.22000  0.81280  0.07860  Biso   1.000  N
  N63      1.0000 0.22410  0.02910  0.72830  Biso   1.000  N
  N64      1.0000 0.37720  0.03730  0.94110  Biso   1.000  N
  N65      1.0000 0.37370  0.98880  0.02685  Biso   1.000  N
  N66      1.0000 0.28850  0.95010  0.93515  Biso   1.000  N
  N67      1.0000 0.06100  0.11570  0.58790  Biso   1.000  N
  N68      1.0000 0.70430  0.46970  0.58344  Biso   1.000  N
  N69      1.0000 0.69960  0.24640  0.22870  Biso   1.000  N
  N70      1.0000 0.85200  0.28950  0.52740  Biso   1.000  N
  N71      1.0000 0.76180  0.32250  0.43686  Biso   1.000  N
  N72      1.0000 0.84710  0.23190  0.44077  Biso   1.000  N
  Ag13     1.0000 0.82296  0.74788  0.36723  Biso   1.000  Ag
  Ag14     1.0000 0.34397  0.54283  0.86776  Biso   1.000  Ag
  C217     1.0000 0.62370  0.74320  0.00240  Biso   1.000  C
  C218     1.0000 0.73530  0.93480  0.88820  Biso   1.000  C
  H145     1.0000 0.71340  0.94140  0.84840  Biso   1.000  H
  C219     1.0000 0.27760  0.36230  0.50890  Biso   1.000  C
  H146     1.0000 0.29850  0.36600  0.54890  Biso   1.000  H
  C220     1.0000 0.00330  0.61630  0.49650  Biso   1.000  C
  H147     1.0000 0.02280  0.61780  0.53660  Biso   1.000  H
  C221     1.0000 0.94350  0.65670  0.46480  Biso   1.000  C
  H148     1.0000 0.92330  0.68480  0.48480  Biso   1.000  H
  C222     1.0000 0.21960  0.34790  0.39190  Biso   1.000  C
  H149     1.0000 0.19960  0.34350  0.35190  Biso   1.000  H
  C223     1.0000 0.53320  0.68790  0.91120  Biso   1.000  C
  H150     1.0000 0.55500  0.70880  0.89000  Biso   1.000  H
  C224     1.0000 0.09770  0.53010  0.50100  Biso   1.000  C
  C225     1.0000 0.79810  0.91600  0.00490  Biso   1.000  C
  H151     1.0000 0.82040  0.91170  0.04490  Biso   1.000  H
  C226     1.0000 0.55980  0.69810  0.97010  Biso   1.000  C
  C227     1.0000 0.17920  0.54370  0.68150  Biso   1.000  C
  H152     1.0000 0.13520  0.56120  0.66160  Biso   1.000  H
  C228     1.0000 0.03340  0.57380  0.46710  Biso   1.000  C
  C229     1.0000 0.70980  0.77310  0.08760  Biso   1.000  C
  C230     1.0000 0.74330  0.76270  0.15140  Biso   1.000  C
  C231     1.0000 0.52590  0.66480  0.00010  Biso   1.000  C
  H153     1.0000 0.54300  0.66950  0.04000  Biso   1.000  H
  C232     1.0000 0.18040  0.49770  0.58840  Biso   1.000  C
  C233     1.0000 0.18250  0.44830  0.50670  Biso   1.000  C
  C234     1.0000 0.82600  0.95920  0.97410  Biso   1.000  C
  H154     1.0000 0.86800  0.98240  0.99440  Biso   1.000  H
  C235     1.0000 0.21510  0.39870  0.47740  Biso   1.000  C
  C236     1.0000 0.18550  0.39020  0.41820  Biso   1.000  C
  H155     1.0000 0.14350  0.41250  0.39630  Biso   1.000  H
  C237     1.0000 0.73620  0.87910  0.97490  Biso   1.000  C
  C238     1.0000 0.30790  0.49520  0.74270  Biso   1.000  C
  H156     1.0000 0.35210  0.47880  0.76340  Biso   1.000  H
  C239     1.0000 0.46660  0.62470  0.96930  Biso   1.000  C
  H157     1.0000 0.44430  0.60240  0.98960  Biso   1.000  H
  C240     1.0000 0.70560  0.82790  0.00520  Biso   1.000  C
  C241     1.0000 0.30810  0.32030  0.47890  Biso   1.000  C
  H158     1.0000 0.34970  0.29640  0.49990  Biso   1.000  H
  C242     1.0000 0.47280  0.64560  0.88400  Biso   1.000  C
  H159     1.0000 0.45530  0.63790  0.84430  Biso   1.000  H
  C243     1.0000 0.94360  0.61650  0.37960  Biso   1.000  C
  H160     1.0000 0.92390  0.61760  0.33940  Biso   1.000  H
  C244     1.0000 0.00230  0.57280  0.40710  Biso   1.000  C
  H161     1.0000 0.02050  0.54350  0.38610  Biso   1.000  H
  C245     1.0000 0.70400  0.88970  0.91520  Biso   1.000  C
  H162     1.0000 0.66210  0.86660  0.89390  Biso   1.000  H
  C246     1.0000 0.27820  0.48340  0.68330  Biso   1.000  C
  H163     1.0000 0.30220  0.45980  0.66480  Biso   1.000  H
  C247     1.0000 0.21230  0.50760  0.65200  Biso   1.000  C
  C248     1.0000 0.82830  0.79290  0.24460  Biso   1.000  C
  H164     1.0000 0.86770  0.82050  0.26720  Biso   1.000  H
  C249     1.0000 0.71540  0.71060  0.17810  Biso   1.000  C
  H165     1.0000 0.67730  0.68020  0.15630  Biso   1.000  H
  C250     1.0000 0.80230  0.80250  0.18510  Biso   1.000  C
  H166     1.0000 0.82400  0.83490  0.16850  Biso   1.000  H
  C251     1.0000 0.21190  0.55350  0.74040  Biso   1.000  C
  H167     1.0000 0.18900  0.57790  0.75950  Biso   1.000  H
  C252     1.0000 0.74500  0.70470  0.23720  Biso   1.000  C
  H168     1.0000 0.72570  0.67000  0.25470  Biso   1.000  H
  N73      1.0000 0.91330  0.65740  0.40722  Biso   1.000  N
  N74      1.0000 0.28000  0.31280  0.42140  Biso   1.000  N
  N75      1.0000 0.27590  0.52910  0.77170  Biso   1.000  N
  N76      1.0000 0.12280  0.53730  0.55890  Biso   1.000  N
  N77      1.0000 0.12630  0.48880  0.47315  Biso   1.000  N
  N78      1.0000 0.21150  0.45010  0.56485  Biso   1.000  N
  N79      1.0000 0.43900  0.61570  0.91210  Biso   1.000  N
  N80      1.0000 0.79570  0.96970  0.91656  Biso   1.000  N
  N81      1.0000 0.80040  0.74640  0.27130  Biso   1.000  N
  N82      1.0000 0.64800  0.78950  0.97260  Biso   1.000  N
  N83      1.0000 0.73820  0.82250  0.06314  Biso   1.000  N
  N84      1.0000 0.65290  0.73190  0.05923  Biso   1.000  N
  Ag15     1.0000 0.32296  0.24788  0.36723  Biso   1.000  Ag
  Ag16     1.0000 0.84397  0.04283  0.86776  Biso   1.000  Ag
  C253     1.0000 0.12370  0.24320  0.00240  Biso   1.000  C
  C254     1.0000 0.23530  0.43480  0.88820  Biso   1.000  C
  H169     1.0000 0.21340  0.44140  0.84840  Biso   1.000  H
  C255     1.0000 0.77760  0.86230  0.50890  Biso   1.000  C
  H170     1.0000 0.79850  0.86600  0.54890  Biso   1.000  H
  C256     1.0000 0.50330  0.11630  0.49650  Biso   1.000  C
  H171     1.0000 0.52280  0.11780  0.53660  Biso   1.000  H
  C257     1.0000 0.44350  0.15670  0.46480  Biso   1.000  C
  H172     1.0000 0.42330  0.18480  0.48480  Biso   1.000  H
  C258     1.0000 0.71960  0.84790  0.39190  Biso   1.000  C
  H173     1.0000 0.69960  0.84350  0.35190  Biso   1.000  H
  C259     1.0000 0.03320  0.18790  0.91120  Biso   1.000  C
  H174     1.0000 0.05500  0.20880  0.89000  Biso   1.000  H
  C260     1.0000 0.59770  0.03010  0.50100  Biso   1.000  C
  C261     1.0000 0.29810  0.41600  0.00490  Biso   1.000  C
  H175     1.0000 0.32040  0.41170  0.04490  Biso   1.000  H
  C262     1.0000 0.05980  0.19810  0.97010  Biso   1.000  C
  C263     1.0000 0.67920  0.04370  0.68150  Biso   1.000  C
  H176     1.0000 0.63520  0.06120  0.66160  Biso   1.000  H
  C264     1.0000 0.53340  0.07380  0.46710  Biso   1.000  C
  C265     1.0000 0.20980  0.27310  0.08760  Biso   1.000  C
  C266     1.0000 0.24330  0.26270  0.15140  Biso   1.000  C
  C267     1.0000 0.02590  0.16480  0.00010  Biso   1.000  C
  H177     1.0000 0.04300  0.16950  0.04000  Biso   1.000  H
  C268     1.0000 0.68040  0.99770  0.58840  Biso   1.000  C
  C269     1.0000 0.68250  0.94830  0.50670  Biso   1.000  C
  C270     1.0000 0.32600  0.45920  0.97410  Biso   1.000  C
  H178     1.0000 0.36800  0.48240  0.99440  Biso   1.000  H
  C271     1.0000 0.71510  0.89870  0.47740  Biso   1.000  C
  C272     1.0000 0.68550  0.89020  0.41820  Biso   1.000  C
  H179     1.0000 0.64350  0.91250  0.39630  Biso   1.000  H
  C273     1.0000 0.23620  0.37910  0.97490  Biso   1.000  C
  C274     1.0000 0.80790  0.99520  0.74270  Biso   1.000  C
  H180     1.0000 0.85210  0.97880  0.76340  Biso   1.000  H
  C275     1.0000 0.96660  0.12470  0.96930  Biso   1.000  C
  H181     1.0000 0.94430  0.10240  0.98960  Biso   1.000  H
  C276     1.0000 0.20560  0.32790  0.00520  Biso   1.000  C
  C277     1.0000 0.80810  0.82030  0.47890  Biso   1.000  C
  H182     1.0000 0.84970  0.79640  0.49990  Biso   1.000  H
  C278     1.0000 0.97280  0.14560  0.88400  Biso   1.000  C
  H183     1.0000 0.95530  0.13790  0.84430  Biso   1.000  H
  C279     1.0000 0.44360  0.11650  0.37960  Biso   1.000  C
  H184     1.0000 0.42390  0.11760  0.33940  Biso   1.000  H
  C280     1.0000 0.50230  0.07280  0.40710  Biso   1.000  C
  H185     1.0000 0.52050  0.04350  0.38610  Biso   1.000  H
  C281     1.0000 0.20400  0.38970  0.91520  Biso   1.000  C
  H186     1.0000 0.16210  0.36660  0.89390  Biso   1.000  H
  C282     1.0000 0.77820  0.98340  0.68330  Biso   1.000  C
  H187     1.0000 0.80220  0.95980  0.66480  Biso   1.000  H
  C283     1.0000 0.71230  0.00760  0.65200  Biso   1.000  C
  C284     1.0000 0.32830  0.29290  0.24460  Biso   1.000  C
  H188     1.0000 0.36770  0.32050  0.26720  Biso   1.000  H
  C285     1.0000 0.21540  0.21060  0.17810  Biso   1.000  C
  H189     1.0000 0.17730  0.18020  0.15630  Biso   1.000  H
  C286     1.0000 0.30230  0.30250  0.18510  Biso   1.000  C
  H190     1.0000 0.32400  0.33490  0.16850  Biso   1.000  H
  C287     1.0000 0.71190  0.05350  0.74040  Biso   1.000  C
  H191     1.0000 0.68900  0.07790  0.75950  Biso   1.000  H
  C288     1.0000 0.24500  0.20470  0.23720  Biso   1.000  C
  H192     1.0000 0.22570  0.17000  0.25470  Biso   1.000  H
  N85      1.0000 0.41330  0.15740  0.40722  Biso   1.000  N
  N86      1.0000 0.78000  0.81280  0.42140  Biso   1.000  N
  N87      1.0000 0.77590  0.02910  0.77170  Biso   1.000  N
  N88      1.0000 0.62280  0.03730  0.55890  Biso   1.000  N
  N89      1.0000 0.62630  0.98880  0.47315  Biso   1.000  N
  N90      1.0000 0.71150  0.95010  0.56485  Biso   1.000  N
  N91      1.0000 0.93900  0.11570  0.91210  Biso   1.000  N
  N92      1.0000 0.29570  0.46970  0.91656  Biso   1.000  N
  N93      1.0000 0.30040  0.24640  0.27130  Biso   1.000  N
  N94      1.0000 0.14800  0.28950  0.97260  Biso   1.000  N
  N95      1.0000 0.23820  0.32250  0.06314  Biso   1.000  N
  N96      1.0000 0.15290  0.23190  0.05923  Biso   1.000  N
