data_image0
_cell_length_a       21.9416
_cell_length_b       16.7734
_cell_length_c       25.5513
_cell_angle_alpha    90
_cell_angle_beta     115.225
_cell_angle_gamma    90

_symmetry_space_group_name_H-M    "P 1"
_symmetry_int_tables_number       1

loop_
  _symmetry_equiv_pos_as_xyz
  'x, y, z'

loop_
  _atom_site_label
  _atom_site_occupancy
  _atom_site_fract_x
  _atom_site_fract_y
  _atom_site_fract_z
  _atom_site_thermal_displace_type
  _atom_site_B_iso_or_equiv
  _atom_site_type_symbol
  Ag1      1.0000 0.34426  0.04241  0.36722  Biso   1.000  Ag
  Ag2      1.0000 0.82144  0.24466  0.86681  Biso   1.000  Ag
  C1       1.0000 0.09710  0.02920  0.99940  Biso   1.000  C
  C2       1.0000 0.62380  0.24380  0.50070  Biso   1.000  C
  C3       1.0000 0.53280  0.18960  0.40970  Biso   1.000  C
  H1       1.0000 0.55430  0.21040  0.38830  Biso   1.000  H
  C4       1.0000 0.55990  0.19950  0.46810  Biso   1.000  C
  C5       1.0000 0.00320  0.11530  0.99470  Biso   1.000  C
  H2       1.0000 0.02270  0.11620  0.03500  Biso   1.000  H
  C6       1.0000 0.18120  0.94780  0.00550  Biso   1.000  C
  C7       1.0000 0.22000  0.84860  0.89140  Biso   1.000  C
  H3       1.0000 0.20040  0.84450  0.85130  Biso   1.000  H
  C8       1.0000 0.79760  0.41650  0.50440  Biso   1.000  C
  H4       1.0000 0.81950  0.41320  0.54450  Biso   1.000  H
  C9       1.0000 0.03290  0.07350  0.96520  Biso   1.000  C
  C10      1.0000 0.94370  0.15570  0.96330  Biso   1.000  C
  H5       1.0000 0.92400  0.18360  0.98360  Biso   1.000  H
  C11      1.0000 0.70940  0.27460  0.58600  Biso   1.000  C
  C12      1.0000 0.27630  0.86200  0.00830  Biso   1.000  C
  H6       1.0000 0.29680  0.86530  0.04850  Biso   1.000  H
  C13      1.0000 0.73580  0.43490  0.38790  Biso   1.000  C
  H7       1.0000 0.71420  0.44170  0.34810  Biso   1.000  H
  C14      1.0000 0.74240  0.26370  0.64970  Biso   1.000  C
  C15      1.0000 0.17830  0.04350  0.17930  Biso   1.000  C
  H8       1.0000 0.13420  0.06120  0.15910  Biso   1.000  H
  C16      1.0000 0.52520  0.16570  0.49760  Biso   1.000  C
  H9       1.0000 0.54190  0.17030  0.53750  Biso   1.000  H
  C17      1.0000 0.21390  0.89860  0.97590  Biso   1.000  C
  C18      1.0000 0.21160  0.00800  0.15060  Biso   1.000  C
  C19      1.0000 0.17940  0.99850  0.08650  Biso   1.000  C
  C20      1.0000 0.70420  0.38960  0.41420  Biso   1.000  C
  H10      1.0000 0.66220  0.36700  0.39220  Biso   1.000  H
  C21      1.0000 0.70500  0.32790  0.50360  Biso   1.000  C
  C22      1.0000 0.73540  0.37820  0.47320  Biso   1.000  C
  C23      1.0000 0.46720  0.12630  0.46700  Biso   1.000  C
  H11      1.0000 0.44530  0.10350  0.48750  Biso   1.000  H
  C24      1.0000 0.30670  0.82050  0.97840  Biso   1.000  C
  H12      1.0000 0.34820  0.79640  0.99970  Biso   1.000  H
  C25      1.0000 0.82490  0.45900  0.47330  Biso   1.000  C
  H13      1.0000 0.86700  0.48200  0.49380  Biso   1.000  H
  C26      1.0000 0.18600  0.89090  0.91740  Biso   1.000  C
  H14      1.0000 0.14440  0.91390  0.89500  Biso   1.000  H
  C27      1.0000 0.00120  0.07390  0.90610  Biso   1.000  C
  H15      1.0000 0.01880  0.04460  0.88490  Biso   1.000  H
  C28      1.0000 0.47270  0.14820  0.38250  Biso   1.000  C
  H16      1.0000 0.45500  0.14160  0.34260  Biso   1.000  H
  C29      1.0000 0.21100  0.05260  0.23870  Biso   1.000  C
  H17      1.0000 0.18790  0.07660  0.25780  Biso   1.000  H
  C30      1.0000 0.30500  0.99430  0.24110  Biso   1.000  C
  H18      1.0000 0.34890  0.97640  0.26230  Biso   1.000  H
  C31      1.0000 0.94360  0.11720  0.87810  Biso   1.000  C
  H19      1.0000 0.92460  0.11920  0.83790  Biso   1.000  H
  C32      1.0000 0.27720  0.98310  0.18210  Biso   1.000  C
  H20      1.0000 0.30170  0.95970  0.16410  Biso   1.000  H
  C33      1.0000 0.82650  0.29320  0.74230  Biso   1.000  C
  H21      1.0000 0.86530  0.32160  0.76480  Biso   1.000  H
  C34      1.0000 0.74510  0.20560  0.73550  Biso   1.000  C
  H22      1.0000 0.72720  0.16970  0.75290  Biso   1.000  H
  C35      1.0000 0.80140  0.30220  0.68350  Biso   1.000  C
  H23      1.0000 0.82360  0.33350  0.66700  Biso   1.000  H
  C36      1.0000 0.71440  0.21340  0.67670  Biso   1.000  C
  H24      1.0000 0.67520  0.18530  0.65490  Biso   1.000  H
  N1       1.0000 0.43930  0.11770  0.41030  Biso   1.000  N
  N2       1.0000 0.79560  0.46940  0.41670  Biso   1.000  N
  N3       1.0000 0.80030  0.24750  0.76960  Biso   1.000  N
  N4       1.0000 0.64820  0.28930  0.47120  Biso   1.000  N
  N5       1.0000 0.73760  0.32280  0.56160  Biso   1.000  N
  N6       1.0000 0.65230  0.23400  0.55770  Biso   1.000  N
  N7       1.0000 0.91310  0.15680  0.90570  Biso   1.000  N
  N8       1.0000 0.27970  0.81340  0.92130  Biso   1.000  N
  N9       1.0000 0.27450  0.02820  0.27000  Biso   1.000  N
  N10      1.0000 0.12510  0.98780  0.97200  Biso   1.000  N
  N11      1.0000 0.21030  0.95120  0.06310  Biso   1.000  N
  N12      1.0000 0.12250  0.03780  0.05690  Biso   1.000  N
  Ag3      1.0000 0.84426  0.54241  0.36722  Biso   1.000  Ag
  Ag4      1.0000 0.32144  0.74466  0.86681  Biso   1.000  Ag
  C37      1.0000 0.59710  0.52920  0.99940  Biso   1.000  C
  C38      1.0000 0.12380  0.74380  0.50070  Biso   1.000  C
  C39      1.0000 0.03280  0.68960  0.40970  Biso   1.000  C
  H25      1.0000 0.05430  0.71040  0.38830  Biso   1.000  H
  C40      1.0000 0.05990  0.69950  0.46810  Biso   1.000  C
  C41      1.0000 0.50320  0.61530  0.99470  Biso   1.000  C
  H26      1.0000 0.52270  0.61620  0.03500  Biso   1.000  H
  C42      1.0000 0.68120  0.44780  0.00550  Biso   1.000  C
  C43      1.0000 0.72000  0.34860  0.89140  Biso   1.000  C
  H27      1.0000 0.70040  0.34450  0.85130  Biso   1.000  H
  C44      1.0000 0.29760  0.91650  0.50440  Biso   1.000  C
  H28      1.0000 0.31950  0.91320  0.54450  Biso   1.000  H
  C45      1.0000 0.53290  0.57350  0.96520  Biso   1.000  C
  C46      1.0000 0.44370  0.65570  0.96330  Biso   1.000  C
  H29      1.0000 0.42400  0.68360  0.98360  Biso   1.000  H
  C47      1.0000 0.20940  0.77460  0.58600  Biso   1.000  C
  C48      1.0000 0.77630  0.36200  0.00830  Biso   1.000  C
  H30      1.0000 0.79680  0.36530  0.04850  Biso   1.000  H
  C49      1.0000 0.23580  0.93490  0.38790  Biso   1.000  C
  H31      1.0000 0.21420  0.94170  0.34810  Biso   1.000  H
  C50      1.0000 0.24240  0.76370  0.64970  Biso   1.000  C
  C51      1.0000 0.67830  0.54350  0.17930  Biso   1.000  C
  H32      1.0000 0.63420  0.56120  0.15910  Biso   1.000  H
  C52      1.0000 0.02520  0.66570  0.49760  Biso   1.000  C
  H33      1.0000 0.04190  0.67030  0.53750  Biso   1.000  H
  C53      1.0000 0.71390  0.39860  0.97590  Biso   1.000  C
  C54      1.0000 0.71160  0.50800  0.15060  Biso   1.000  C
  C55      1.0000 0.67940  0.49850  0.08650  Biso   1.000  C
  C56      1.0000 0.20420  0.88960  0.41420  Biso   1.000  C
  H34      1.0000 0.16220  0.86700  0.39220  Biso   1.000  H
  C57      1.0000 0.20500  0.82790  0.50360  Biso   1.000  C
  C58      1.0000 0.23540  0.87820  0.47320  Biso   1.000  C
  C59      1.0000 0.96720  0.62630  0.46700  Biso   1.000  C
  H35      1.0000 0.94530  0.60350  0.48750  Biso   1.000  H
  C60      1.0000 0.80670  0.32050  0.97840  Biso   1.000  C
  H36      1.0000 0.84820  0.29640  0.99970  Biso   1.000  H
  C61      1.0000 0.32490  0.95900  0.47330  Biso   1.000  C
  H37      1.0000 0.36700  0.98200  0.49380  Biso   1.000  H
  C62      1.0000 0.68600  0.39090  0.91740  Biso   1.000  C
  H38      1.0000 0.64440  0.41390  0.89500  Biso   1.000  H
  C63      1.0000 0.50120  0.57390  0.90610  Biso   1.000  C
  H39      1.0000 0.51880  0.54460  0.88490  Biso   1.000  H
  C64      1.0000 0.97270  0.64820  0.38250  Biso   1.000  C
  H40      1.0000 0.95500  0.64160  0.34260  Biso   1.000  H
  C65      1.0000 0.71100  0.55260  0.23870  Biso   1.000  C
  H41      1.0000 0.68790  0.57660  0.25780  Biso   1.000  H
  C66      1.0000 0.80500  0.49430  0.24110  Biso   1.000  C
  H42      1.0000 0.84890  0.47640  0.26230  Biso   1.000  H
  C67      1.0000 0.44360  0.61720  0.87810  Biso   1.000  C
  H43      1.0000 0.42460  0.61920  0.83790  Biso   1.000  H
  C68      1.0000 0.77720  0.48310  0.18210  Biso   1.000  C
  H44      1.0000 0.80170  0.45970  0.16410  Biso   1.000  H
  C69      1.0000 0.32650  0.79320  0.74230  Biso   1.000  C
  H45      1.0000 0.36530  0.82160  0.76480  Biso   1.000  H
  C70      1.0000 0.24510  0.70560  0.73550  Biso   1.000  C
  H46      1.0000 0.22720  0.66970  0.75290  Biso   1.000  H
  C71      1.0000 0.30140  0.80220  0.68350  Biso   1.000  C
  H47      1.0000 0.32360  0.83350  0.66700  Biso   1.000  H
  C72      1.0000 0.21440  0.71340  0.67670  Biso   1.000  C
  H48      1.0000 0.17520  0.68530  0.65490  Biso   1.000  H
  N13      1.0000 0.93930  0.61770  0.41030  Biso   1.000  N
  N14      1.0000 0.29560  0.96940  0.41670  Biso   1.000  N
  N15      1.0000 0.30030  0.74750  0.76960  Biso   1.000  N
  N16      1.0000 0.14820  0.78930  0.47120  Biso   1.000  N
  N17      1.0000 0.23760  0.82280  0.56160  Biso   1.000  N
  N18      1.0000 0.15230  0.73400  0.55770  Biso   1.000  N
  N19      1.0000 0.41310  0.65680  0.90570  Biso   1.000  N
  N20      1.0000 0.77970  0.31340  0.92130  Biso   1.000  N
  N21      1.0000 0.77450  0.52820  0.27000  Biso   1.000  N
  N22      1.0000 0.62510  0.48780  0.97200  Biso   1.000  N
  N23      1.0000 0.71030  0.45120  0.06310  Biso   1.000  N
  N24      1.0000 0.62250  0.53780  0.05690  Biso   1.000  N
  Ag5      1.0000 0.65574  0.04241  0.13278  Biso   1.000  Ag
  Ag6      1.0000 0.17856  0.24466  0.63319  Biso   1.000  Ag
  C73      1.0000 0.90290  0.02920  0.50060  Biso   1.000  C
  C74      1.0000 0.37620  0.24380  0.99930  Biso   1.000  C
  C75      1.0000 0.46720  0.18960  0.09030  Biso   1.000  C
  H49      1.0000 0.44570  0.21040  0.11170  Biso   1.000  H
  C76      1.0000 0.44010  0.19950  0.03190  Biso   1.000  C
  C77      1.0000 0.99680  0.11530  0.50530  Biso   1.000  C
  H50      1.0000 0.97730  0.11620  0.46500  Biso   1.000  H
  C78      1.0000 0.81880  0.94780  0.49450  Biso   1.000  C
  C79      1.0000 0.78000  0.84860  0.60860  Biso   1.000  C
  H51      1.0000 0.79960  0.84450  0.64870  Biso   1.000  H
  C80      1.0000 0.20240  0.41650  0.99560  Biso   1.000  C
  H52      1.0000 0.18050  0.41320  0.95550  Biso   1.000  H
  C81      1.0000 0.96710  0.07350  0.53480  Biso   1.000  C
  C82      1.0000 0.05630  0.15570  0.53670  Biso   1.000  C
  H53      1.0000 0.07600  0.18360  0.51640  Biso   1.000  H
  C83      1.0000 0.29060  0.27460  0.91400  Biso   1.000  C
  C84      1.0000 0.72370  0.86200  0.49170  Biso   1.000  C
  H54      1.0000 0.70320  0.86530  0.45150  Biso   1.000  H
  C85      1.0000 0.26420  0.43490  0.11210  Biso   1.000  C
  H55      1.0000 0.28580  0.44170  0.15190  Biso   1.000  H
  C86      1.0000 0.25760  0.26370  0.85030  Biso   1.000  C
  C87      1.0000 0.82170  0.04350  0.32070  Biso   1.000  C
  H56      1.0000 0.86580  0.06120  0.34090  Biso   1.000  H
  C88      1.0000 0.47480  0.16570  0.00240  Biso   1.000  C
  H57      1.0000 0.45810  0.17030  0.96250  Biso   1.000  H
  C89      1.0000 0.78610  0.89860  0.52410  Biso   1.000  C
  C90      1.0000 0.78840  0.00800  0.34940  Biso   1.000  C
  C91      1.0000 0.82060  0.99850  0.41350  Biso   1.000  C
  C92      1.0000 0.29580  0.38960  0.08580  Biso   1.000  C
  H58      1.0000 0.33780  0.36700  0.10780  Biso   1.000  H
  C93      1.0000 0.29500  0.32790  0.99640  Biso   1.000  C
  C94      1.0000 0.26460  0.37820  0.02680  Biso   1.000  C
  C95      1.0000 0.53280  0.12630  0.03300  Biso   1.000  C
  H59      1.0000 0.55470  0.10350  0.01250  Biso   1.000  H
  C96      1.0000 0.69330  0.82050  0.52160  Biso   1.000  C
  H60      1.0000 0.65180  0.79640  0.50030  Biso   1.000  H
  C97      1.0000 0.17510  0.45900  0.02670  Biso   1.000  C
  H61      1.0000 0.13300  0.48200  0.00620  Biso   1.000  H
  C98      1.0000 0.81400  0.89090  0.58260  Biso   1.000  C
  H62      1.0000 0.85560  0.91390  0.60500  Biso   1.000  H
  C99      1.0000 0.99880  0.07390  0.59390  Biso   1.000  C
  H63      1.0000 0.98120  0.04460  0.61510  Biso   1.000  H
  C100     1.0000 0.52730  0.14820  0.11750  Biso   1.000  C
  H64      1.0000 0.54500  0.14160  0.15740  Biso   1.000  H
  C101     1.0000 0.78900  0.05260  0.26130  Biso   1.000  C
  H65      1.0000 0.81210  0.07660  0.24220  Biso   1.000  H
  C102     1.0000 0.69500  0.99430  0.25890  Biso   1.000  C
  H66      1.0000 0.65110  0.97640  0.23770  Biso   1.000  H
  C103     1.0000 0.05640  0.11720  0.62190  Biso   1.000  C
  H67      1.0000 0.07540  0.11920  0.66210  Biso   1.000  H
  C104     1.0000 0.72280  0.98310  0.31790  Biso   1.000  C
  H68      1.0000 0.69830  0.95970  0.33590  Biso   1.000  H
  C105     1.0000 0.17350  0.29320  0.75770  Biso   1.000  C
  H69      1.0000 0.13470  0.32160  0.73520  Biso   1.000  H
  C106     1.0000 0.25490  0.20560  0.76450  Biso   1.000  C
  H70      1.0000 0.27280  0.16970  0.74710  Biso   1.000  H
  C107     1.0000 0.19860  0.30220  0.81650  Biso   1.000  C
  H71      1.0000 0.17640  0.33350  0.83300  Biso   1.000  H
  C108     1.0000 0.28560  0.21340  0.82330  Biso   1.000  C
  H72      1.0000 0.32480  0.18530  0.84510  Biso   1.000  H
  N25      1.0000 0.56070  0.11770  0.08970  Biso   1.000  N
  N26      1.0000 0.20440  0.46940  0.08330  Biso   1.000  N
  N27      1.0000 0.19970  0.24750  0.73040  Biso   1.000  N
  N28      1.0000 0.35180  0.28930  0.02880  Biso   1.000  N
  N29      1.0000 0.26240  0.32280  0.93840  Biso   1.000  N
  N30      1.0000 0.34770  0.23400  0.94230  Biso   1.000  N
  N31      1.0000 0.08690  0.15680  0.59430  Biso   1.000  N
  N32      1.0000 0.72030  0.81340  0.57870  Biso   1.000  N
  N33      1.0000 0.72550  0.02820  0.23000  Biso   1.000  N
  N34      1.0000 0.87490  0.98780  0.52800  Biso   1.000  N
  N35      1.0000 0.78970  0.95120  0.43690  Biso   1.000  N
  N36      1.0000 0.87750  0.03780  0.44310  Biso   1.000  N
  Ag7      1.0000 0.15574  0.54241  0.13278  Biso   1.000  Ag
  Ag8      1.0000 0.67856  0.74466  0.63319  Biso   1.000  Ag
  C109     1.0000 0.40290  0.52920  0.50060  Biso   1.000  C
  C110     1.0000 0.87620  0.74380  0.99930  Biso   1.000  C
  C111     1.0000 0.96720  0.68960  0.09030  Biso   1.000  C
  H73      1.0000 0.94570  0.71040  0.11170  Biso   1.000  H
  C112     1.0000 0.94010  0.69950  0.03190  Biso   1.000  C
  C113     1.0000 0.49680  0.61530  0.50530  Biso   1.000  C
  H74      1.0000 0.47730  0.61620  0.46500  Biso   1.000  H
  C114     1.0000 0.31880  0.44780  0.49450  Biso   1.000  C
  C115     1.0000 0.28000  0.34860  0.60860  Biso   1.000  C
  H75      1.0000 0.29960  0.34450  0.64870  Biso   1.000  H
  C116     1.0000 0.70240  0.91650  0.99560  Biso   1.000  C
  H76      1.0000 0.68050  0.91320  0.95550  Biso   1.000  H
  C117     1.0000 0.46710  0.57350  0.53480  Biso   1.000  C
  C118     1.0000 0.55630  0.65570  0.53670  Biso   1.000  C
  H77      1.0000 0.57600  0.68360  0.51640  Biso   1.000  H
  C119     1.0000 0.79060  0.77460  0.91400  Biso   1.000  C
  C120     1.0000 0.22370  0.36200  0.49170  Biso   1.000  C
  H78      1.0000 0.20320  0.36530  0.45150  Biso   1.000  H
  C121     1.0000 0.76420  0.93490  0.11210  Biso   1.000  C
  H79      1.0000 0.78580  0.94170  0.15190  Biso   1.000  H
  C122     1.0000 0.75760  0.76370  0.85030  Biso   1.000  C
  C123     1.0000 0.32170  0.54350  0.32070  Biso   1.000  C
  H80      1.0000 0.36580  0.56120  0.34090  Biso   1.000  H
  C124     1.0000 0.97480  0.66570  0.00240  Biso   1.000  C
  H81      1.0000 0.95810  0.67030  0.96250  Biso   1.000  H
  C125     1.0000 0.28610  0.39860  0.52410  Biso   1.000  C
  C126     1.0000 0.28840  0.50800  0.34940  Biso   1.000  C
  C127     1.0000 0.32060  0.49850  0.41350  Biso   1.000  C
  C128     1.0000 0.79580  0.88960  0.08580  Biso   1.000  C
  H82      1.0000 0.83780  0.86700  0.10780  Biso   1.000  H
  C129     1.0000 0.79500  0.82790  0.99640  Biso   1.000  C
  C130     1.0000 0.76460  0.87820  0.02680  Biso   1.000  C
  C131     1.0000 0.03280  0.62630  0.03300  Biso   1.000  C
  H83      1.0000 0.05470  0.60350  0.01250  Biso   1.000  H
  C132     1.0000 0.19330  0.32050  0.52160  Biso   1.000  C
  H84      1.0000 0.15180  0.29640  0.50030  Biso   1.000  H
  C133     1.0000 0.67510  0.95900  0.02670  Biso   1.000  C
  H85      1.0000 0.63300  0.98200  0.00620  Biso   1.000  H
  C134     1.0000 0.31400  0.39090  0.58260  Biso   1.000  C
  H86      1.0000 0.35560  0.41390  0.60500  Biso   1.000  H
  C135     1.0000 0.49880  0.57390  0.59390  Biso   1.000  C
  H87      1.0000 0.48120  0.54460  0.61510  Biso   1.000  H
  C136     1.0000 0.02730  0.64820  0.11750  Biso   1.000  C
  H88      1.0000 0.04500  0.64160  0.15740  Biso   1.000  H
  C137     1.0000 0.28900  0.55260  0.26130  Biso   1.000  C
  H89      1.0000 0.31210  0.57660  0.24220  Biso   1.000  H
  C138     1.0000 0.19500  0.49430  0.25890  Biso   1.000  C
  H90      1.0000 0.15110  0.47640  0.23770  Biso   1.000  H
  C139     1.0000 0.55640  0.61720  0.62190  Biso   1.000  C
  H91      1.0000 0.57540  0.61920  0.66210  Biso   1.000  H
  C140     1.0000 0.22280  0.48310  0.31790  Biso   1.000  C
  H92      1.0000 0.19830  0.45970  0.33590  Biso   1.000  H
  C141     1.0000 0.67350  0.79320  0.75770  Biso   1.000  C
  H93      1.0000 0.63470  0.82160  0.73520  Biso   1.000  H
  C142     1.0000 0.75490  0.70560  0.76450  Biso   1.000  C
  H94      1.0000 0.77280  0.66970  0.74710  Biso   1.000  H
  C143     1.0000 0.69860  0.80220  0.81650  Biso   1.000  C
  H95      1.0000 0.67640  0.83350  0.83300  Biso   1.000  H
  C144     1.0000 0.78560  0.71340  0.82330  Biso   1.000  C
  H96      1.0000 0.82480  0.68530  0.84510  Biso   1.000  H
  N37      1.0000 0.06070  0.61770  0.08970  Biso   1.000  N
  N38      1.0000 0.70440  0.96940  0.08330  Biso   1.000  N
  N39      1.0000 0.69970  0.74750  0.73040  Biso   1.000  N
  N40      1.0000 0.85180  0.78930  0.02880  Biso   1.000  N
  N41      1.0000 0.76240  0.82280  0.93840  Biso   1.000  N
  N42      1.0000 0.84770  0.73400  0.94230  Biso   1.000  N
  N43      1.0000 0.58690  0.65680  0.59430  Biso   1.000  N
  N44      1.0000 0.22030  0.31340  0.57870  Biso   1.000  N
  N45      1.0000 0.22550  0.52820  0.23000  Biso   1.000  N
  N46      1.0000 0.37490  0.48780  0.52800  Biso   1.000  N
  N47      1.0000 0.28970  0.45120  0.43690  Biso   1.000  N
  N48      1.0000 0.37750  0.53780  0.44310  Biso   1.000  N
  Ag9      1.0000 0.65574  0.95759  0.63278  Biso   1.000  Ag
  Ag10     1.0000 0.17856  0.75534  0.13319  Biso   1.000  Ag
  C145     1.0000 0.90290  0.97080  0.00060  Biso   1.000  C
  C146     1.0000 0.37620  0.75620  0.49930  Biso   1.000  C
  C147     1.0000 0.46720  0.81040  0.59030  Biso   1.000  C
  H97      1.0000 0.44570  0.78960  0.61170  Biso   1.000  H
  C148     1.0000 0.44010  0.80050  0.53190  Biso   1.000  C
  C149     1.0000 0.99680  0.88470  0.00530  Biso   1.000  C
  H98      1.0000 0.97730  0.88380  0.96500  Biso   1.000  H
  C150     1.0000 0.81880  0.05220  0.99450  Biso   1.000  C
  C151     1.0000 0.78000  0.15140  0.10860  Biso   1.000  C
  H99      1.0000 0.79960  0.15550  0.14870  Biso   1.000  H
  C152     1.0000 0.20240  0.58350  0.49560  Biso   1.000  C
  H100     1.0000 0.18050  0.58680  0.45550  Biso   1.000  H
  C153     1.0000 0.96710  0.92650  0.03480  Biso   1.000  C
  C154     1.0000 0.05630  0.84430  0.03670  Biso   1.000  C
  H101     1.0000 0.07600  0.81640  0.01640  Biso   1.000  H
  C155     1.0000 0.29060  0.72540  0.41400  Biso   1.000  C
  C156     1.0000 0.72370  0.13800  0.99170  Biso   1.000  C
  H102     1.0000 0.70320  0.13470  0.95150  Biso   1.000  H
  C157     1.0000 0.26420  0.56510  0.61210  Biso   1.000  C
  H103     1.0000 0.28580  0.55830  0.65190  Biso   1.000  H
  C158     1.0000 0.25760  0.73630  0.35030  Biso   1.000  C
  C159     1.0000 0.82170  0.95650  0.82070  Biso   1.000  C
  H104     1.0000 0.86580  0.93880  0.84090  Biso   1.000  H
  C160     1.0000 0.47480  0.83430  0.50240  Biso   1.000  C
  H105     1.0000 0.45810  0.82970  0.46250  Biso   1.000  H
  C161     1.0000 0.78610  0.10140  0.02410  Biso   1.000  C
  C162     1.0000 0.78840  0.99200  0.84940  Biso   1.000  C
  C163     1.0000 0.82060  0.00150  0.91350  Biso   1.000  C
  C164     1.0000 0.29580  0.61040  0.58580  Biso   1.000  C
  H106     1.0000 0.33780  0.63300  0.60780  Biso   1.000  H
  C165     1.0000 0.29500  0.67210  0.49640  Biso   1.000  C
  C166     1.0000 0.26460  0.62180  0.52680  Biso   1.000  C
  C167     1.0000 0.53280  0.87370  0.53300  Biso   1.000  C
  H107     1.0000 0.55470  0.89650  0.51250  Biso   1.000  H
  C168     1.0000 0.69330  0.17950  0.02160  Biso   1.000  C
  H108     1.0000 0.65180  0.20360  0.00030  Biso   1.000  H
  C169     1.0000 0.17510  0.54100  0.52670  Biso   1.000  C
  H109     1.0000 0.13300  0.51800  0.50620  Biso   1.000  H
  C170     1.0000 0.81400  0.10910  0.08260  Biso   1.000  C
  H110     1.0000 0.85560  0.08610  0.10500  Biso   1.000  H
  C171     1.0000 0.99880  0.92610  0.09390  Biso   1.000  C
  H111     1.0000 0.98120  0.95540  0.11510  Biso   1.000  H
  C172     1.0000 0.52730  0.85180  0.61750  Biso   1.000  C
  H112     1.0000 0.54500  0.85840  0.65740  Biso   1.000  H
  C173     1.0000 0.78900  0.94740  0.76130  Biso   1.000  C
  H113     1.0000 0.81210  0.92340  0.74220  Biso   1.000  H
  C174     1.0000 0.69500  0.00570  0.75890  Biso   1.000  C
  H114     1.0000 0.65110  0.02360  0.73770  Biso   1.000  H
  C175     1.0000 0.05640  0.88280  0.12190  Biso   1.000  C
  H115     1.0000 0.07540  0.88080  0.16210  Biso   1.000  H
  C176     1.0000 0.72280  0.01690  0.81790  Biso   1.000  C
  H116     1.0000 0.69830  0.04030  0.83590  Biso   1.000  H
  C177     1.0000 0.17350  0.70680  0.25770  Biso   1.000  C
  H117     1.0000 0.13470  0.67840  0.23520  Biso   1.000  H
  C178     1.0000 0.25490  0.79440  0.26450  Biso   1.000  C
  H118     1.0000 0.27280  0.83030  0.24710  Biso   1.000  H
  C179     1.0000 0.19860  0.69780  0.31650  Biso   1.000  C
  H119     1.0000 0.17640  0.66650  0.33300  Biso   1.000  H
  C180     1.0000 0.28560  0.78660  0.32330  Biso   1.000  C
  H120     1.0000 0.32480  0.81470  0.34510  Biso   1.000  H
  N49      1.0000 0.56070  0.88230  0.58970  Biso   1.000  N
  N50      1.0000 0.20440  0.53060  0.58330  Biso   1.000  N
  N51      1.0000 0.19970  0.75250  0.23040  Biso   1.000  N
  N52      1.0000 0.35180  0.71070  0.52880  Biso   1.000  N
  N53      1.0000 0.26240  0.67720  0.43840  Biso   1.000  N
  N54      1.0000 0.34770  0.76600  0.44230  Biso   1.000  N
  N55      1.0000 0.08690  0.84320  0.09430  Biso   1.000  N
  N56      1.0000 0.72030  0.18660  0.07870  Biso   1.000  N
  N57      1.0000 0.72550  0.97180  0.73000  Biso   1.000  N
  N58      1.0000 0.87490  0.01220  0.02800  Biso   1.000  N
  N59      1.0000 0.78970  0.04880  0.93690  Biso   1.000  N
  N60      1.0000 0.87750  0.96220  0.94310  Biso   1.000  N
  Ag11     1.0000 0.15574  0.45759  0.63278  Biso   1.000  Ag
  Ag12     1.0000 0.67856  0.25534  0.13319  Biso   1.000  Ag
  C181     1.0000 0.40290  0.47080  0.00060  Biso   1.000  C
  C182     1.0000 0.87620  0.25620  0.49930  Biso   1.000  C
  C183     1.0000 0.96720  0.31040  0.59030  Biso   1.000  C
  H121     1.0000 0.94570  0.28960  0.61170  Biso   1.000  H
  C184     1.0000 0.94010  0.30050  0.53190  Biso   1.000  C
  C185     1.0000 0.49680  0.38470  0.00530  Biso   1.000  C
  H122     1.0000 0.47730  0.38380  0.96500  Biso   1.000  H
  C186     1.0000 0.31880  0.55220  0.99450  Biso   1.000  C
  C187     1.0000 0.28000  0.65140  0.10860  Biso   1.000  C
  H123     1.0000 0.29960  0.65550  0.14870  Biso   1.000  H
  C188     1.0000 0.70240  0.08350  0.49560  Biso   1.000  C
  H124     1.0000 0.68050  0.08680  0.45550  Biso   1.000  H
  C189     1.0000 0.46710  0.42650  0.03480  Biso   1.000  C
  C190     1.0000 0.55630  0.34430  0.03670  Biso   1.000  C
  H125     1.0000 0.57600  0.31640  0.01640  Biso   1.000  H
  C191     1.0000 0.79060  0.22540  0.41400  Biso   1.000  C
  C192     1.0000 0.22370  0.63800  0.99170  Biso   1.000  C
  H126     1.0000 0.20320  0.63470  0.95150  Biso   1.000  H
  C193     1.0000 0.76420  0.06510  0.61210  Biso   1.000  C
  H127     1.0000 0.78580  0.05830  0.65190  Biso   1.000  H
  C194     1.0000 0.75760  0.23630  0.35030  Biso   1.000  C
  C195     1.0000 0.32170  0.45650  0.82070  Biso   1.000  C
  H128     1.0000 0.36580  0.43880  0.84090  Biso   1.000  H
  C196     1.0000 0.97480  0.33430  0.50240  Biso   1.000  C
  H129     1.0000 0.95810  0.32970  0.46250  Biso   1.000  H
  C197     1.0000 0.28610  0.60140  0.02410  Biso   1.000  C
  C198     1.0000 0.28840  0.49200  0.84940  Biso   1.000  C
  C199     1.0000 0.32060  0.50150  0.91350  Biso   1.000  C
  C200     1.0000 0.79580  0.11040  0.58580  Biso   1.000  C
  H130     1.0000 0.83780  0.13300  0.60780  Biso   1.000  H
  C201     1.0000 0.79500  0.17210  0.49640  Biso   1.000  C
  C202     1.0000 0.76460  0.12180  0.52680  Biso   1.000  C
  C203     1.0000 0.03280  0.37370  0.53300  Biso   1.000  C
  H131     1.0000 0.05470  0.39650  0.51250  Biso   1.000  H
  C204     1.0000 0.19330  0.67950  0.02160  Biso   1.000  C
  H132     1.0000 0.15180  0.70360  0.00030  Biso   1.000  H
  C205     1.0000 0.67510  0.04100  0.52670  Biso   1.000  C
  H133     1.0000 0.63300  0.01800  0.50620  Biso   1.000  H
  C206     1.0000 0.31400  0.60910  0.08260  Biso   1.000  C
  H134     1.0000 0.35560  0.58610  0.10500  Biso   1.000  H
  C207     1.0000 0.49880  0.42610  0.09390  Biso   1.000  C
  H135     1.0000 0.48120  0.45540  0.11510  Biso   1.000  H
  C208     1.0000 0.02730  0.35180  0.61750  Biso   1.000  C
  H136     1.0000 0.04500  0.35840  0.65740  Biso   1.000  H
  C209     1.0000 0.28900  0.44740  0.76130  Biso   1.000  C
  H137     1.0000 0.31210  0.42340  0.74220  Biso   1.000  H
  C210     1.0000 0.19500  0.50570  0.75890  Biso   1.000  C
  H138     1.0000 0.15110  0.52360  0.73770  Biso   1.000  H
  C211     1.0000 0.55640  0.38280  0.12190  Biso   1.000  C
  H139     1.0000 0.57540  0.38080  0.16210  Biso   1.000  H
  C212     1.0000 0.22280  0.51690  0.81790  Biso   1.000  C
  H140     1.0000 0.19830  0.54030  0.83590  Biso   1.000  H
  C213     1.0000 0.67350  0.20680  0.25770  Biso   1.000  C
  H141     1.0000 0.63470  0.17840  0.23520  Biso   1.000  H
  C214     1.0000 0.75490  0.29440  0.26450  Biso   1.000  C
  H142     1.0000 0.77280  0.33030  0.24710  Biso   1.000  H
  C215     1.0000 0.69860  0.19780  0.31650  Biso   1.000  C
  H143     1.0000 0.67640  0.16650  0.33300  Biso   1.000  H
  C216     1.0000 0.78560  0.28660  0.32330  Biso   1.000  C
  H144     1.0000 0.82480  0.31470  0.34510  Biso   1.000  H
  N61      1.0000 0.06070  0.38230  0.58970  Biso   1.000  N
  N62      1.0000 0.70440  0.03060  0.58330  Biso   1.000  N
  N63      1.0000 0.69970  0.25250  0.23040  Biso   1.000  N
  N64      1.0000 0.85180  0.21070  0.52880  Biso   1.000  N
  N65      1.0000 0.76240  0.17720  0.43840  Biso   1.000  N
  N66      1.0000 0.84770  0.26600  0.44230  Biso   1.000  N
  N67      1.0000 0.58690  0.34320  0.09430  Biso   1.000  N
  N68      1.0000 0.22030  0.68660  0.07870  Biso   1.000  N
  N69      1.0000 0.22550  0.47180  0.73000  Biso   1.000  N
  N70      1.0000 0.37490  0.51220  0.02800  Biso   1.000  N
  N71      1.0000 0.28970  0.54880  0.93690  Biso   1.000  N
  N72      1.0000 0.37750  0.46220  0.94310  Biso   1.000  N
  Ag13     1.0000 0.34426  0.95759  0.86722  Biso   1.000  Ag
  Ag14     1.0000 0.82144  0.75534  0.36681  Biso   1.000  Ag
  C217     1.0000 0.09710  0.97080  0.49940  Biso   1.000  C
  C218     1.0000 0.62380  0.75620  0.00070  Biso   1.000  C
  C219     1.0000 0.53280  0.81040  0.90970  Biso   1.000  C
  H145     1.0000 0.55430  0.78960  0.88830  Biso   1.000  H
  C220     1.0000 0.55990  0.80050  0.96810  Biso   1.000  C
  C221     1.0000 0.00320  0.88470  0.49470  Biso   1.000  C
  H146     1.0000 0.02270  0.88380  0.53500  Biso   1.000  H
  C222     1.0000 0.18120  0.05220  0.50550  Biso   1.000  C
  C223     1.0000 0.22000  0.15140  0.39140  Biso   1.000  C
  H147     1.0000 0.20040  0.15550  0.35130  Biso   1.000  H
  C224     1.0000 0.79760  0.58350  0.00440  Biso   1.000  C
  H148     1.0000 0.81950  0.58680  0.04450  Biso   1.000  H
  C225     1.0000 0.03290  0.92650  0.46520  Biso   1.000  C
  C226     1.0000 0.94370  0.84430  0.46330  Biso   1.000  C
  H149     1.0000 0.92400  0.81640  0.48360  Biso   1.000  H
  C227     1.0000 0.70940  0.72540  0.08600  Biso   1.000  C
  C228     1.0000 0.27630  0.13800  0.50830  Biso   1.000  C
  H150     1.0000 0.29680  0.13470  0.54850  Biso   1.000  H
  C229     1.0000 0.73580  0.56510  0.88790  Biso   1.000  C
  H151     1.0000 0.71420  0.55830  0.84810  Biso   1.000  H
  C230     1.0000 0.74240  0.73630  0.14970  Biso   1.000  C
  C231     1.0000 0.17830  0.95650  0.67930  Biso   1.000  C
  H152     1.0000 0.13420  0.93880  0.65910  Biso   1.000  H
  C232     1.0000 0.52520  0.83430  0.99760  Biso   1.000  C
  H153     1.0000 0.54190  0.82970  0.03750  Biso   1.000  H
  C233     1.0000 0.21390  0.10140  0.47590  Biso   1.000  C
  C234     1.0000 0.21160  0.99200  0.65060  Biso   1.000  C
  C235     1.0000 0.17940  0.00150  0.58650  Biso   1.000  C
  C236     1.0000 0.70420  0.61040  0.91420  Biso   1.000  C
  H154     1.0000 0.66220  0.63300  0.89220  Biso   1.000  H
  C237     1.0000 0.70500  0.67210  0.00360  Biso   1.000  C
  C238     1.0000 0.73540  0.62180  0.97320  Biso   1.000  C
  C239     1.0000 0.46720  0.87370  0.96700  Biso   1.000  C
  H155     1.0000 0.44530  0.89650  0.98750  Biso   1.000  H
  C240     1.0000 0.30670  0.17950  0.47840  Biso   1.000  C
  H156     1.0000 0.34820  0.20360  0.49970  Biso   1.000  H
  C241     1.0000 0.82490  0.54100  0.97330  Biso   1.000  C
  H157     1.0000 0.86700  0.51800  0.99380  Biso   1.000  H
  C242     1.0000 0.18600  0.10910  0.41740  Biso   1.000  C
  H158     1.0000 0.14440  0.08610  0.39500  Biso   1.000  H
  C243     1.0000 0.00120  0.92610  0.40610  Biso   1.000  C
  H159     1.0000 0.01880  0.95540  0.38490  Biso   1.000  H
  C244     1.0000 0.47270  0.85180  0.88250  Biso   1.000  C
  H160     1.0000 0.45500  0.85840  0.84260  Biso   1.000  H
  C245     1.0000 0.21100  0.94740  0.73870  Biso   1.000  C
  H161     1.0000 0.18790  0.92340  0.75780  Biso   1.000  H
  C246     1.0000 0.30500  0.00570  0.74110  Biso   1.000  C
  H162     1.0000 0.34890  0.02360  0.76230  Biso   1.000  H
  C247     1.0000 0.94360  0.88280  0.37810  Biso   1.000  C
  H163     1.0000 0.92460  0.88080  0.33790  Biso   1.000  H
  C248     1.0000 0.27720  0.01690  0.68210  Biso   1.000  C
  H164     1.0000 0.30170  0.04030  0.66410  Biso   1.000  H
  C249     1.0000 0.82650  0.70680  0.24230  Biso   1.000  C
  H165     1.0000 0.86530  0.67840  0.26480  Biso   1.000  H
  C250     1.0000 0.74510  0.79440  0.23550  Biso   1.000  C
  H166     1.0000 0.72720  0.83030  0.25290  Biso   1.000  H
  C251     1.0000 0.80140  0.69780  0.18350  Biso   1.000  C
  H167     1.0000 0.82360  0.66650  0.16700  Biso   1.000  H
  C252     1.0000 0.71440  0.78660  0.17670  Biso   1.000  C
  H168     1.0000 0.67520  0.81470  0.15490  Biso   1.000  H
  N73      1.0000 0.43930  0.88230  0.91030  Biso   1.000  N
  N74      1.0000 0.79560  0.53060  0.91670  Biso   1.000  N
  N75      1.0000 0.80030  0.75250  0.26960  Biso   1.000  N
  N76      1.0000 0.64820  0.71070  0.97120  Biso   1.000  N
  N77      1.0000 0.73760  0.67720  0.06160  Biso   1.000  N
  N78      1.0000 0.65230  0.76600  0.05770  Biso   1.000  N
  N79      1.0000 0.91310  0.84320  0.40570  Biso   1.000  N
  N80      1.0000 0.27970  0.18660  0.42130  Biso   1.000  N
  N81      1.0000 0.27450  0.97180  0.77000  Biso   1.000  N
  N82      1.0000 0.12510  0.01220  0.47200  Biso   1.000  N
  N83      1.0000 0.21030  0.04880  0.56310  Biso   1.000  N
  N84      1.0000 0.12250  0.96220  0.55690  Biso   1.000  N
  Ag15     1.0000 0.84426  0.45759  0.86722  Biso   1.000  Ag
  Ag16     1.0000 0.32144  0.25534  0.36681  Biso   1.000  Ag
  C253     1.0000 0.59710  0.47080  0.49940  Biso   1.000  C
  C254     1.0000 0.12380  0.25620  0.00070  Biso   1.000  C
  C255     1.0000 0.03280  0.31040  0.90970  Biso   1.000  C
  H169     1.0000 0.05430  0.28960  0.88830  Biso   1.000  H
  C256     1.0000 0.05990  0.30050  0.96810  Biso   1.000  C
  C257     1.0000 0.50320  0.38470  0.49470  Biso   1.000  C
  H170     1.0000 0.52270  0.38380  0.53500  Biso   1.000  H
  C258     1.0000 0.68120  0.55220  0.50550  Biso   1.000  C
  C259     1.0000 0.72000  0.65140  0.39140  Biso   1.000  C
  H171     1.0000 0.70040  0.65550  0.35130  Biso   1.000  H
  C260     1.0000 0.29760  0.08350  0.00440  Biso   1.000  C
  H172     1.0000 0.31950  0.08680  0.04450  Biso   1.000  H
  C261     1.0000 0.53290  0.42650  0.46520  Biso   1.000  C
  C262     1.0000 0.44370  0.34430  0.46330  Biso   1.000  C
  H173     1.0000 0.42400  0.31640  0.48360  Biso   1.000  H
  C263     1.0000 0.20940  0.22540  0.08600  Biso   1.000  C
  C264     1.0000 0.77630  0.63800  0.50830  Biso   1.000  C
  H174     1.0000 0.79680  0.63470  0.54850  Biso   1.000  H
  C265     1.0000 0.23580  0.06510  0.88790  Biso   1.000  C
  H175     1.0000 0.21420  0.05830  0.84810  Biso   1.000  H
  C266     1.0000 0.24240  0.23630  0.14970  Biso   1.000  C
  C267     1.0000 0.67830  0.45650  0.67930  Biso   1.000  C
  H176     1.0000 0.63420  0.43880  0.65910  Biso   1.000  H
  C268     1.0000 0.02520  0.33430  0.99760  Biso   1.000  C
  H177     1.0000 0.04190  0.32970  0.03750  Biso   1.000  H
  C269     1.0000 0.71390  0.60140  0.47590  Biso   1.000  C
  C270     1.0000 0.71160  0.49200  0.65060  Biso   1.000  C
  C271     1.0000 0.67940  0.50150  0.58650  Biso   1.000  C
  C272     1.0000 0.20420  0.11040  0.91420  Biso   1.000  C
  H178     1.0000 0.16220  0.13300  0.89220  Biso   1.000  H
  C273     1.0000 0.20500  0.17210  0.00360  Biso   1.000  C
  C274     1.0000 0.23540  0.12180  0.97320  Biso   1.000  C
  C275     1.0000 0.96720  0.37370  0.96700  Biso   1.000  C
  H179     1.0000 0.94530  0.39650  0.98750  Biso   1.000  H
  C276     1.0000 0.80670  0.67950  0.47840  Biso   1.000  C
  H180     1.0000 0.84820  0.70360  0.49970  Biso   1.000  H
  C277     1.0000 0.32490  0.04100  0.97330  Biso   1.000  C
  H181     1.0000 0.36700  0.01800  0.99380  Biso   1.000  H
  C278     1.0000 0.68600  0.60910  0.41740  Biso   1.000  C
  H182     1.0000 0.64440  0.58610  0.39500  Biso   1.000  H
  C279     1.0000 0.50120  0.42610  0.40610  Biso   1.000  C
  H183     1.0000 0.51880  0.45540  0.38490  Biso   1.000  H
  C280     1.0000 0.97270  0.35180  0.88250  Biso   1.000  C
  H184     1.0000 0.95500  0.35840  0.84260  Biso   1.000  H
  C281     1.0000 0.71100  0.44740  0.73870  Biso   1.000  C
  H185     1.0000 0.68790  0.42340  0.75780  Biso   1.000  H
  C282     1.0000 0.80500  0.50570  0.74110  Biso   1.000  C
  H186     1.0000 0.84890  0.52360  0.76230  Biso   1.000  H
  C283     1.0000 0.44360  0.38280  0.37810  Biso   1.000  C
  H187     1.0000 0.42460  0.38080  0.33790  Biso   1.000  H
  C284     1.0000 0.77720  0.51690  0.68210  Biso   1.000  C
  H188     1.0000 0.80170  0.54030  0.66410  Biso   1.000  H
  C285     1.0000 0.32650  0.20680  0.24230  Biso   1.000  C
  H189     1.0000 0.36530  0.17840  0.26480  Biso   1.000  H
  C286     1.0000 0.24510  0.29440  0.23550  Biso   1.000  C
  H190     1.0000 0.22720  0.33030  0.25290  Biso   1.000  H
  C287     1.0000 0.30140  0.19780  0.18350  Biso   1.000  C
  H191     1.0000 0.32360  0.16650  0.16700  Biso   1.000  H
  C288     1.0000 0.21440  0.28660  0.17670  Biso   1.000  C
  H192     1.0000 0.17520  0.31470  0.15490  Biso   1.000  H
  N85      1.0000 0.93930  0.38230  0.91030  Biso   1.000  N
  N86      1.0000 0.29560  0.03060  0.91670  Biso   1.000  N
  N87      1.0000 0.30030  0.25250  0.26960  Biso   1.000  N
  N88      1.0000 0.14820  0.21070  0.97120  Biso   1.000  N
  N89      1.0000 0.23760  0.17720  0.06160  Biso   1.000  N
  N90      1.0000 0.15230  0.26600  0.05770  Biso   1.000  N
  N91      1.0000 0.41310  0.34320  0.40570  Biso   1.000  N
  N92      1.0000 0.77970  0.68660  0.42130  Biso   1.000  N
  N93      1.0000 0.77450  0.47180  0.77000  Biso   1.000  N
  N94      1.0000 0.62510  0.51220  0.47200  Biso   1.000  N
  N95      1.0000 0.71030  0.54880  0.56310  Biso   1.000  N
  N96      1.0000 0.62250  0.46220  0.55690  Biso   1.000  N
