data_image0
_cell_length_a       21.9504
_cell_length_b       16.7095
_cell_length_c       25.6128
_cell_angle_alpha    90
_cell_angle_beta     115.366
_cell_angle_gamma    90

_symmetry_space_group_name_H-M    "P 1"
_symmetry_int_tables_number       1

loop_
  _symmetry_equiv_pos_as_xyz
  'x, y, z'

loop_
  _atom_site_label
  _atom_site_occupancy
  _atom_site_fract_x
  _atom_site_fract_y
  _atom_site_fract_z
  _atom_site_thermal_displace_type
  _atom_site_B_iso_or_equiv
  _atom_site_type_symbol
  Ag1      1.0000 0.27363  0.20879  0.86794  Biso   1.000  Ag
  Ag2      1.0000 0.79557  0.50313  0.36744  Biso   1.000  Ag
  C1       1.0000 0.65310  0.71980  0.50030  Biso   1.000  C
  C2       1.0000 0.42220  0.89950  0.39190  Biso   1.000  C
  H1       1.0000 0.40140  0.90250  0.35180  Biso   1.000  H
  C3       1.0000 0.62760  0.56110  0.91060  Biso   1.000  C
  H2       1.0000 0.58490  0.53970  0.88920  Biso   1.000  H
  C4       1.0000 0.62750  0.50670  0.00170  Biso   1.000  C
  C5       1.0000 0.57460  0.80160  0.50600  Biso   1.000  C
  C6       1.0000 0.77070  0.59350  0.46460  Biso   1.000  C
  H3       1.0000 0.81080  0.56590  0.48480  Biso   1.000  H
  C7       1.0000 0.48190  0.88730  0.50870  Biso   1.000  C
  H4       1.0000 0.50130  0.88420  0.54880  Biso   1.000  H
  C8       1.0000 0.40290  0.31590  0.88880  Biso   1.000  C
  H5       1.0000 0.38470  0.30950  0.84890  Biso   1.000  H
  C9       1.0000 0.74280  0.63390  0.49560  Biso   1.000  C
  H6       1.0000 0.76340  0.63310  0.53580  Biso   1.000  H
  C10      1.0000 0.65890  0.55150  0.96900  Biso   1.000  C
  C11      1.0000 0.72240  0.58510  0.99820  Biso   1.000  C
  H7       1.0000 0.74530  0.58040  0.03810  Biso   1.000  H
  C12      1.0000 0.68360  0.67590  0.46630  Biso   1.000  C
  C13      1.0000 0.62690  0.47530  0.08720  Biso   1.000  C
  C14      1.0000 0.65810  0.48580  0.15050  Biso   1.000  C
  C15      1.0000 0.48190  0.85840  0.41800  Biso   1.000  C
  H8       1.0000 0.50160  0.83620  0.39570  Biso   1.000  H
  C16      1.0000 0.54960  0.42250  0.00460  Biso   1.000  C
  C17      1.0000 0.68990  0.74200  0.65150  Biso   1.000  C
  C18      1.0000 0.45720  0.33410  0.00530  Biso   1.000  C
  H9       1.0000 0.47510  0.33760  0.04540  Biso   1.000  H
  C19      1.0000 0.75100  0.62480  0.96810  Biso   1.000  C
  H10      1.0000 0.79370  0.64650  0.98860  Biso   1.000  H
  C20      1.0000 0.46070  0.36090  0.91490  Biso   1.000  C
  H11      1.0000 0.48090  0.38330  0.89300  Biso   1.000  H
  C21      1.0000 0.75180  0.70710  0.68000  Biso   1.000  C
  H12      1.0000 0.77580  0.68950  0.65980  Biso   1.000  H
  C22      1.0000 0.66050  0.60300  0.88420  Biso   1.000  C
  H13      1.0000 0.63820  0.60980  0.84440  Biso   1.000  H
  C23      1.0000 0.77830  0.69820  0.73960  Biso   1.000  C
  H14      1.0000 0.82020  0.67380  0.75860  Biso   1.000  H
  C24      1.0000 0.39900  0.29090  0.97430  Biso   1.000  C
  H15      1.0000 0.37770  0.26710  0.99490  Biso   1.000  H
  C25      1.0000 0.65610  0.76770  0.68330  Biso   1.000  C
  H16      1.0000 0.61400  0.79180  0.66540  Biso   1.000  H
  C26      1.0000 0.65830  0.75150  0.58720  Biso   1.000  C
  C27      1.0000 0.51240  0.85000  0.47690  Biso   1.000  C
  C28      1.0000 0.65500  0.67510  0.40700  Biso   1.000  C
  H17      1.0000 0.61580  0.70390  0.38590  Biso   1.000  H
  C29      1.0000 0.68640  0.75670  0.74190  Biso   1.000  C
  H18      1.0000 0.66330  0.77400  0.76290  Biso   1.000  H
  C30      1.0000 0.71240  0.53700  0.17730  Biso   1.000  C
  H19      1.0000 0.72900  0.56670  0.15550  Biso   1.000  H
  C31      1.0000 0.48850  0.37250  0.97450  Biso   1.000  C
  C32      1.0000 0.42210  0.92910  0.47900  Biso   1.000  C
  H20      1.0000 0.40190  0.95360  0.50020  Biso   1.000  H
  C33      1.0000 0.74150  0.54330  0.23660  Biso   1.000  C
  H21      1.0000 0.77760  0.57820  0.25400  Biso   1.000  H
  C34      1.0000 0.63300  0.44600  0.18440  Biso   1.000  C
  H22      1.0000 0.59440  0.41470  0.16810  Biso   1.000  H
  C35      1.0000 0.66770  0.45460  0.24380  Biso   1.000  C
  H23      1.0000 0.65260  0.42480  0.26670  Biso   1.000  H
  C36      1.0000 0.68530  0.63100  0.37900  Biso   1.000  C
  H24      1.0000 0.66420  0.62860  0.33890  Biso   1.000  H
  N1       1.0000 0.37150  0.28090  0.91750  Biso   1.000  N
  N2       1.0000 0.72160  0.63450  0.91110  Biso   1.000  N
  N3       1.0000 0.72030  0.50140  0.27060  Biso   1.000  N
  N4       1.0000 0.57390  0.46100  0.97210  Biso   1.000  N
  N5       1.0000 0.65570  0.51710  0.05830  Biso   1.000  N
  N6       1.0000 0.57490  0.42720  0.06260  Biso   1.000  N
  N7       1.0000 0.74360  0.59140  0.40680  Biso   1.000  N
  N8       1.0000 0.74630  0.72320  0.77100  Biso   1.000  N
  N9       1.0000 0.39220  0.93580  0.42200  Biso   1.000  N
  N10      1.0000 0.59730  0.76110  0.47290  Biso   1.000  N
  N11      1.0000 0.68580  0.71290  0.55830  Biso   1.000  N
  N12      1.0000 0.60350  0.79880  0.56390  Biso   1.000  N
  Ag3      1.0000 0.77363  0.70879  0.86794  Biso   1.000  Ag
  Ag4      1.0000 0.29557  0.00313  0.36744  Biso   1.000  Ag
  C37      1.0000 0.15310  0.21980  0.50030  Biso   1.000  C
  C38      1.0000 0.92220  0.39950  0.39190  Biso   1.000  C
  H25      1.0000 0.90140  0.40250  0.35180  Biso   1.000  H
  C39      1.0000 0.12760  0.06110  0.91060  Biso   1.000  C
  H26      1.0000 0.08490  0.03970  0.88920  Biso   1.000  H
  C40      1.0000 0.12750  0.00670  0.00170  Biso   1.000  C
  C41      1.0000 0.07460  0.30160  0.50600  Biso   1.000  C
  C42      1.0000 0.27070  0.09350  0.46460  Biso   1.000  C
  H27      1.0000 0.31080  0.06590  0.48480  Biso   1.000  H
  C43      1.0000 0.98190  0.38730  0.50870  Biso   1.000  C
  H28      1.0000 0.00130  0.38420  0.54880  Biso   1.000  H
  C44      1.0000 0.90290  0.81590  0.88880  Biso   1.000  C
  H29      1.0000 0.88470  0.80950  0.84890  Biso   1.000  H
  C45      1.0000 0.24280  0.13390  0.49560  Biso   1.000  C
  H30      1.0000 0.26340  0.13310  0.53580  Biso   1.000  H
  C46      1.0000 0.15890  0.05150  0.96900  Biso   1.000  C
  C47      1.0000 0.22240  0.08510  0.99820  Biso   1.000  C
  H31      1.0000 0.24530  0.08040  0.03810  Biso   1.000  H
  C48      1.0000 0.18360  0.17590  0.46630  Biso   1.000  C
  C49      1.0000 0.12690  0.97530  0.08720  Biso   1.000  C
  C50      1.0000 0.15810  0.98580  0.15050  Biso   1.000  C
  C51      1.0000 0.98190  0.35840  0.41800  Biso   1.000  C
  H32      1.0000 0.00160  0.33620  0.39570  Biso   1.000  H
  C52      1.0000 0.04960  0.92250  0.00460  Biso   1.000  C
  C53      1.0000 0.18990  0.24200  0.65150  Biso   1.000  C
  C54      1.0000 0.95720  0.83410  0.00530  Biso   1.000  C
  H33      1.0000 0.97510  0.83760  0.04540  Biso   1.000  H
  C55      1.0000 0.25100  0.12480  0.96810  Biso   1.000  C
  H34      1.0000 0.29370  0.14650  0.98860  Biso   1.000  H
  C56      1.0000 0.96070  0.86090  0.91490  Biso   1.000  C
  H35      1.0000 0.98090  0.88330  0.89300  Biso   1.000  H
  C57      1.0000 0.25180  0.20710  0.68000  Biso   1.000  C
  H36      1.0000 0.27580  0.18950  0.65980  Biso   1.000  H
  C58      1.0000 0.16050  0.10300  0.88420  Biso   1.000  C
  H37      1.0000 0.13820  0.10980  0.84440  Biso   1.000  H
  C59      1.0000 0.27830  0.19820  0.73960  Biso   1.000  C
  H38      1.0000 0.32020  0.17380  0.75860  Biso   1.000  H
  C60      1.0000 0.89900  0.79090  0.97430  Biso   1.000  C
  H39      1.0000 0.87770  0.76710  0.99490  Biso   1.000  H
  C61      1.0000 0.15610  0.26770  0.68330  Biso   1.000  C
  H40      1.0000 0.11400  0.29180  0.66540  Biso   1.000  H
  C62      1.0000 0.15830  0.25150  0.58720  Biso   1.000  C
  C63      1.0000 0.01240  0.35000  0.47690  Biso   1.000  C
  C64      1.0000 0.15500  0.17510  0.40700  Biso   1.000  C
  H41      1.0000 0.11580  0.20390  0.38590  Biso   1.000  H
  C65      1.0000 0.18640  0.25670  0.74190  Biso   1.000  C
  H42      1.0000 0.16330  0.27400  0.76290  Biso   1.000  H
  C66      1.0000 0.21240  0.03700  0.17730  Biso   1.000  C
  H43      1.0000 0.22900  0.06670  0.15550  Biso   1.000  H
  C67      1.0000 0.98850  0.87250  0.97450  Biso   1.000  C
  C68      1.0000 0.92210  0.42910  0.47900  Biso   1.000  C
  H44      1.0000 0.90190  0.45360  0.50020  Biso   1.000  H
  C69      1.0000 0.24150  0.04330  0.23660  Biso   1.000  C
  H45      1.0000 0.27760  0.07820  0.25400  Biso   1.000  H
  C70      1.0000 0.13300  0.94600  0.18440  Biso   1.000  C
  H46      1.0000 0.09440  0.91470  0.16810  Biso   1.000  H
  C71      1.0000 0.16770  0.95460  0.24380  Biso   1.000  C
  H47      1.0000 0.15260  0.92480  0.26670  Biso   1.000  H
  C72      1.0000 0.18530  0.13100  0.37900  Biso   1.000  C
  H48      1.0000 0.16420  0.12860  0.33890  Biso   1.000  H
  N13      1.0000 0.87150  0.78090  0.91750  Biso   1.000  N
  N14      1.0000 0.22160  0.13450  0.91110  Biso   1.000  N
  N15      1.0000 0.22030  0.00140  0.27060  Biso   1.000  N
  N16      1.0000 0.07390  0.96100  0.97210  Biso   1.000  N
  N17      1.0000 0.15570  0.01710  0.05830  Biso   1.000  N
  N18      1.0000 0.07490  0.92720  0.06260  Biso   1.000  N
  N19      1.0000 0.24360  0.09140  0.40680  Biso   1.000  N
  N20      1.0000 0.24630  0.22320  0.77100  Biso   1.000  N
  N21      1.0000 0.89220  0.43580  0.42200  Biso   1.000  N
  N22      1.0000 0.09730  0.26110  0.47290  Biso   1.000  N
  N23      1.0000 0.18580  0.21290  0.55830  Biso   1.000  N
  N24      1.0000 0.10350  0.29880  0.56390  Biso   1.000  N
  Ag5      1.0000 0.72637  0.20879  0.63206  Biso   1.000  Ag
  Ag6      1.0000 0.20443  0.50313  0.13256  Biso   1.000  Ag
  C73      1.0000 0.34690  0.71980  0.99970  Biso   1.000  C
  C74      1.0000 0.57780  0.89950  0.10810  Biso   1.000  C
  H49      1.0000 0.59860  0.90250  0.14820  Biso   1.000  H
  C75      1.0000 0.37240  0.56110  0.58940  Biso   1.000  C
  H50      1.0000 0.41510  0.53970  0.61080  Biso   1.000  H
  C76      1.0000 0.37250  0.50670  0.49830  Biso   1.000  C
  C77      1.0000 0.42540  0.80160  0.99400  Biso   1.000  C
  C78      1.0000 0.22930  0.59350  0.03540  Biso   1.000  C
  H51      1.0000 0.18920  0.56590  0.01520  Biso   1.000  H
  C79      1.0000 0.51810  0.88730  0.99130  Biso   1.000  C
  H52      1.0000 0.49870  0.88420  0.95120  Biso   1.000  H
  C80      1.0000 0.59710  0.31590  0.61120  Biso   1.000  C
  H53      1.0000 0.61530  0.30950  0.65110  Biso   1.000  H
  C81      1.0000 0.25720  0.63390  0.00440  Biso   1.000  C
  H54      1.0000 0.23660  0.63310  0.96420  Biso   1.000  H
  C82      1.0000 0.34110  0.55150  0.53100  Biso   1.000  C
  C83      1.0000 0.27760  0.58510  0.50180  Biso   1.000  C
  H55      1.0000 0.25470  0.58040  0.46190  Biso   1.000  H
  C84      1.0000 0.31640  0.67590  0.03370  Biso   1.000  C
  C85      1.0000 0.37310  0.47530  0.41280  Biso   1.000  C
  C86      1.0000 0.34190  0.48580  0.34950  Biso   1.000  C
  C87      1.0000 0.51810  0.85840  0.08200  Biso   1.000  C
  H56      1.0000 0.49840  0.83620  0.10430  Biso   1.000  H
  C88      1.0000 0.45040  0.42250  0.49540  Biso   1.000  C
  C89      1.0000 0.31010  0.74200  0.84850  Biso   1.000  C
  C90      1.0000 0.54280  0.33410  0.49470  Biso   1.000  C
  H57      1.0000 0.52490  0.33760  0.45460  Biso   1.000  H
  C91      1.0000 0.24900  0.62480  0.53190  Biso   1.000  C
  H58      1.0000 0.20630  0.64650  0.51140  Biso   1.000  H
  C92      1.0000 0.53930  0.36090  0.58510  Biso   1.000  C
  H59      1.0000 0.51910  0.38330  0.60700  Biso   1.000  H
  C93      1.0000 0.24820  0.70710  0.82000  Biso   1.000  C
  H60      1.0000 0.22420  0.68950  0.84020  Biso   1.000  H
  C94      1.0000 0.33950  0.60300  0.61580  Biso   1.000  C
  H61      1.0000 0.36180  0.60980  0.65560  Biso   1.000  H
  C95      1.0000 0.22170  0.69820  0.76040  Biso   1.000  C
  H62      1.0000 0.17980  0.67380  0.74140  Biso   1.000  H
  C96      1.0000 0.60100  0.29090  0.52570  Biso   1.000  C
  H63      1.0000 0.62230  0.26710  0.50510  Biso   1.000  H
  C97      1.0000 0.34390  0.76770  0.81670  Biso   1.000  C
  H64      1.0000 0.38600  0.79180  0.83460  Biso   1.000  H
  C98      1.0000 0.34170  0.75150  0.91280  Biso   1.000  C
  C99      1.0000 0.48760  0.85000  0.02310  Biso   1.000  C
  C100     1.0000 0.34500  0.67510  0.09300  Biso   1.000  C
  H65      1.0000 0.38420  0.70390  0.11410  Biso   1.000  H
  C101     1.0000 0.31360  0.75670  0.75810  Biso   1.000  C
  H66      1.0000 0.33670  0.77400  0.73710  Biso   1.000  H
  C102     1.0000 0.28760  0.53700  0.32270  Biso   1.000  C
  H67      1.0000 0.27100  0.56670  0.34450  Biso   1.000  H
  C103     1.0000 0.51150  0.37250  0.52550  Biso   1.000  C
  C104     1.0000 0.57790  0.92910  0.02100  Biso   1.000  C
  H68      1.0000 0.59810  0.95360  0.99980  Biso   1.000  H
  C105     1.0000 0.25850  0.54330  0.26340  Biso   1.000  C
  H69      1.0000 0.22240  0.57820  0.24600  Biso   1.000  H
  C106     1.0000 0.36700  0.44600  0.31560  Biso   1.000  C
  H70      1.0000 0.40560  0.41470  0.33190  Biso   1.000  H
  C107     1.0000 0.33230  0.45460  0.25620  Biso   1.000  C
  H71      1.0000 0.34740  0.42480  0.23330  Biso   1.000  H
  C108     1.0000 0.31470  0.63100  0.12100  Biso   1.000  C
  H72      1.0000 0.33580  0.62860  0.16110  Biso   1.000  H
  N25      1.0000 0.62850  0.28090  0.58250  Biso   1.000  N
  N26      1.0000 0.27840  0.63450  0.58890  Biso   1.000  N
  N27      1.0000 0.27970  0.50140  0.22940  Biso   1.000  N
  N28      1.0000 0.42610  0.46100  0.52790  Biso   1.000  N
  N29      1.0000 0.34430  0.51710  0.44170  Biso   1.000  N
  N30      1.0000 0.42510  0.42720  0.43740  Biso   1.000  N
  N31      1.0000 0.25640  0.59140  0.09320  Biso   1.000  N
  N32      1.0000 0.25370  0.72320  0.72900  Biso   1.000  N
  N33      1.0000 0.60780  0.93580  0.07800  Biso   1.000  N
  N34      1.0000 0.40270  0.76110  0.02710  Biso   1.000  N
  N35      1.0000 0.31420  0.71290  0.94170  Biso   1.000  N
  N36      1.0000 0.39650  0.79880  0.93610  Biso   1.000  N
  Ag7      1.0000 0.22637  0.70879  0.63206  Biso   1.000  Ag
  Ag8      1.0000 0.70443  0.00313  0.13256  Biso   1.000  Ag
  C109     1.0000 0.84690  0.21980  0.99970  Biso   1.000  C
  C110     1.0000 0.07780  0.39950  0.10810  Biso   1.000  C
  H73      1.0000 0.09860  0.40250  0.14820  Biso   1.000  H
  C111     1.0000 0.87240  0.06110  0.58940  Biso   1.000  C
  H74      1.0000 0.91510  0.03970  0.61080  Biso   1.000  H
  C112     1.0000 0.87250  0.00670  0.49830  Biso   1.000  C
  C113     1.0000 0.92540  0.30160  0.99400  Biso   1.000  C
  C114     1.0000 0.72930  0.09350  0.03540  Biso   1.000  C
  H75      1.0000 0.68920  0.06590  0.01520  Biso   1.000  H
  C115     1.0000 0.01810  0.38730  0.99130  Biso   1.000  C
  H76      1.0000 0.99870  0.38420  0.95120  Biso   1.000  H
  C116     1.0000 0.09710  0.81590  0.61120  Biso   1.000  C
  H77      1.0000 0.11530  0.80950  0.65110  Biso   1.000  H
  C117     1.0000 0.75720  0.13390  0.00440  Biso   1.000  C
  H78      1.0000 0.73660  0.13310  0.96420  Biso   1.000  H
  C118     1.0000 0.84110  0.05150  0.53100  Biso   1.000  C
  C119     1.0000 0.77760  0.08510  0.50180  Biso   1.000  C
  H79      1.0000 0.75470  0.08040  0.46190  Biso   1.000  H
  C120     1.0000 0.81640  0.17590  0.03370  Biso   1.000  C
  C121     1.0000 0.87310  0.97530  0.41280  Biso   1.000  C
  C122     1.0000 0.84190  0.98580  0.34950  Biso   1.000  C
  C123     1.0000 0.01810  0.35840  0.08200  Biso   1.000  C
  H80      1.0000 0.99840  0.33620  0.10430  Biso   1.000  H
  C124     1.0000 0.95040  0.92250  0.49540  Biso   1.000  C
  C125     1.0000 0.81010  0.24200  0.84850  Biso   1.000  C
  C126     1.0000 0.04280  0.83410  0.49470  Biso   1.000  C
  H81      1.0000 0.02490  0.83760  0.45460  Biso   1.000  H
  C127     1.0000 0.74900  0.12480  0.53190  Biso   1.000  C
  H82      1.0000 0.70630  0.14650  0.51140  Biso   1.000  H
  C128     1.0000 0.03930  0.86090  0.58510  Biso   1.000  C
  H83      1.0000 0.01910  0.88330  0.60700  Biso   1.000  H
  C129     1.0000 0.74820  0.20710  0.82000  Biso   1.000  C
  H84      1.0000 0.72420  0.18950  0.84020  Biso   1.000  H
  C130     1.0000 0.83950  0.10300  0.61580  Biso   1.000  C
  H85      1.0000 0.86180  0.10980  0.65560  Biso   1.000  H
  C131     1.0000 0.72170  0.19820  0.76040  Biso   1.000  C
  H86      1.0000 0.67980  0.17380  0.74140  Biso   1.000  H
  C132     1.0000 0.10100  0.79090  0.52570  Biso   1.000  C
  H87      1.0000 0.12230  0.76710  0.50510  Biso   1.000  H
  C133     1.0000 0.84390  0.26770  0.81670  Biso   1.000  C
  H88      1.0000 0.88600  0.29180  0.83460  Biso   1.000  H
  C134     1.0000 0.84170  0.25150  0.91280  Biso   1.000  C
  C135     1.0000 0.98760  0.35000  0.02310  Biso   1.000  C
  C136     1.0000 0.84500  0.17510  0.09300  Biso   1.000  C
  H89      1.0000 0.88420  0.20390  0.11410  Biso   1.000  H
  C137     1.0000 0.81360  0.25670  0.75810  Biso   1.000  C
  H90      1.0000 0.83670  0.27400  0.73710  Biso   1.000  H
  C138     1.0000 0.78760  0.03700  0.32270  Biso   1.000  C
  H91      1.0000 0.77100  0.06670  0.34450  Biso   1.000  H
  C139     1.0000 0.01150  0.87250  0.52550  Biso   1.000  C
  C140     1.0000 0.07790  0.42910  0.02100  Biso   1.000  C
  H92      1.0000 0.09810  0.45360  0.99980  Biso   1.000  H
  C141     1.0000 0.75850  0.04330  0.26340  Biso   1.000  C
  H93      1.0000 0.72240  0.07820  0.24600  Biso   1.000  H
  C142     1.0000 0.86700  0.94600  0.31560  Biso   1.000  C
  H94      1.0000 0.90560  0.91470  0.33190  Biso   1.000  H
  C143     1.0000 0.83230  0.95460  0.25620  Biso   1.000  C
  H95      1.0000 0.84740  0.92480  0.23330  Biso   1.000  H
  C144     1.0000 0.81470  0.13100  0.12100  Biso   1.000  C
  H96      1.0000 0.83580  0.12860  0.16110  Biso   1.000  H
  N37      1.0000 0.12850  0.78090  0.58250  Biso   1.000  N
  N38      1.0000 0.77840  0.13450  0.58890  Biso   1.000  N
  N39      1.0000 0.77970  0.00140  0.22940  Biso   1.000  N
  N40      1.0000 0.92610  0.96100  0.52790  Biso   1.000  N
  N41      1.0000 0.84430  0.01710  0.44170  Biso   1.000  N
  N42      1.0000 0.92510  0.92720  0.43740  Biso   1.000  N
  N43      1.0000 0.75640  0.09140  0.09320  Biso   1.000  N
  N44      1.0000 0.75370  0.22320  0.72900  Biso   1.000  N
  N45      1.0000 0.10780  0.43580  0.07800  Biso   1.000  N
  N46      1.0000 0.90270  0.26110  0.02710  Biso   1.000  N
  N47      1.0000 0.81420  0.21290  0.94170  Biso   1.000  N
  N48      1.0000 0.89650  0.29880  0.93610  Biso   1.000  N
  Ag9      1.0000 0.72637  0.79121  0.13206  Biso   1.000  Ag
  Ag10     1.0000 0.20443  0.49687  0.63256  Biso   1.000  Ag
  C145     1.0000 0.34690  0.28020  0.49970  Biso   1.000  C
  C146     1.0000 0.57780  0.10050  0.60810  Biso   1.000  C
  H97      1.0000 0.59860  0.09750  0.64820  Biso   1.000  H
  C147     1.0000 0.37240  0.43890  0.08940  Biso   1.000  C
  H98      1.0000 0.41510  0.46030  0.11080  Biso   1.000  H
  C148     1.0000 0.37250  0.49330  0.99830  Biso   1.000  C
  C149     1.0000 0.42540  0.19840  0.49400  Biso   1.000  C
  C150     1.0000 0.22930  0.40650  0.53540  Biso   1.000  C
  H99      1.0000 0.18920  0.43410  0.51520  Biso   1.000  H
  C151     1.0000 0.51810  0.11270  0.49130  Biso   1.000  C
  H100     1.0000 0.49870  0.11580  0.45120  Biso   1.000  H
  C152     1.0000 0.59710  0.68410  0.11120  Biso   1.000  C
  H101     1.0000 0.61530  0.69050  0.15110  Biso   1.000  H
  C153     1.0000 0.25720  0.36610  0.50440  Biso   1.000  C
  H102     1.0000 0.23660  0.36690  0.46420  Biso   1.000  H
  C154     1.0000 0.34110  0.44850  0.03100  Biso   1.000  C
  C155     1.0000 0.27760  0.41490  0.00180  Biso   1.000  C
  H103     1.0000 0.25470  0.41960  0.96190  Biso   1.000  H
  C156     1.0000 0.31640  0.32410  0.53370  Biso   1.000  C
  C157     1.0000 0.37310  0.52470  0.91280  Biso   1.000  C
  C158     1.0000 0.34190  0.51420  0.84950  Biso   1.000  C
  C159     1.0000 0.51810  0.14160  0.58200  Biso   1.000  C
  H104     1.0000 0.49840  0.16380  0.60430  Biso   1.000  H
  C160     1.0000 0.45040  0.57750  0.99540  Biso   1.000  C
  C161     1.0000 0.31010  0.25800  0.34850  Biso   1.000  C
  C162     1.0000 0.54280  0.66590  0.99470  Biso   1.000  C
  H105     1.0000 0.52490  0.66240  0.95460  Biso   1.000  H
  C163     1.0000 0.24900  0.37520  0.03190  Biso   1.000  C
  H106     1.0000 0.20630  0.35350  0.01140  Biso   1.000  H
  C164     1.0000 0.53930  0.63910  0.08510  Biso   1.000  C
  H107     1.0000 0.51910  0.61670  0.10700  Biso   1.000  H
  C165     1.0000 0.24820  0.29290  0.32000  Biso   1.000  C
  H108     1.0000 0.22420  0.31050  0.34020  Biso   1.000  H
  C166     1.0000 0.33950  0.39700  0.11580  Biso   1.000  C
  H109     1.0000 0.36180  0.39020  0.15560  Biso   1.000  H
  C167     1.0000 0.22170  0.30180  0.26040  Biso   1.000  C
  H110     1.0000 0.17980  0.32620  0.24140  Biso   1.000  H
  C168     1.0000 0.60100  0.70910  0.02570  Biso   1.000  C
  H111     1.0000 0.62230  0.73290  0.00510  Biso   1.000  H
  C169     1.0000 0.34390  0.23230  0.31670  Biso   1.000  C
  H112     1.0000 0.38600  0.20820  0.33460  Biso   1.000  H
  C170     1.0000 0.34170  0.24850  0.41280  Biso   1.000  C
  C171     1.0000 0.48760  0.15000  0.52310  Biso   1.000  C
  C172     1.0000 0.34500  0.32490  0.59300  Biso   1.000  C
  H113     1.0000 0.38420  0.29610  0.61410  Biso   1.000  H
  C173     1.0000 0.31360  0.24330  0.25810  Biso   1.000  C
  H114     1.0000 0.33670  0.22600  0.23710  Biso   1.000  H
  C174     1.0000 0.28760  0.46300  0.82270  Biso   1.000  C
  H115     1.0000 0.27100  0.43330  0.84450  Biso   1.000  H
  C175     1.0000 0.51150  0.62750  0.02550  Biso   1.000  C
  C176     1.0000 0.57790  0.07090  0.52100  Biso   1.000  C
  H116     1.0000 0.59810  0.04640  0.49980  Biso   1.000  H
  C177     1.0000 0.25850  0.45670  0.76340  Biso   1.000  C
  H117     1.0000 0.22240  0.42180  0.74600  Biso   1.000  H
  C178     1.0000 0.36700  0.55400  0.81560  Biso   1.000  C
  H118     1.0000 0.40560  0.58530  0.83190  Biso   1.000  H
  C179     1.0000 0.33230  0.54540  0.75620  Biso   1.000  C
  H119     1.0000 0.34740  0.57520  0.73330  Biso   1.000  H
  C180     1.0000 0.31470  0.36900  0.62100  Biso   1.000  C
  H120     1.0000 0.33580  0.37140  0.66110  Biso   1.000  H
  N49      1.0000 0.62850  0.71910  0.08250  Biso   1.000  N
  N50      1.0000 0.27840  0.36550  0.08890  Biso   1.000  N
  N51      1.0000 0.27970  0.49860  0.72940  Biso   1.000  N
  N52      1.0000 0.42610  0.53900  0.02790  Biso   1.000  N
  N53      1.0000 0.34430  0.48290  0.94170  Biso   1.000  N
  N54      1.0000 0.42510  0.57280  0.93740  Biso   1.000  N
  N55      1.0000 0.25640  0.40860  0.59320  Biso   1.000  N
  N56      1.0000 0.25370  0.27680  0.22900  Biso   1.000  N
  N57      1.0000 0.60780  0.06420  0.57800  Biso   1.000  N
  N58      1.0000 0.40270  0.23890  0.52710  Biso   1.000  N
  N59      1.0000 0.31420  0.28710  0.44170  Biso   1.000  N
  N60      1.0000 0.39650  0.20120  0.43610  Biso   1.000  N
  Ag11     1.0000 0.22637  0.29121  0.13206  Biso   1.000  Ag
  Ag12     1.0000 0.70443  0.99687  0.63256  Biso   1.000  Ag
  C181     1.0000 0.84690  0.78020  0.49970  Biso   1.000  C
  C182     1.0000 0.07780  0.60050  0.60810  Biso   1.000  C
  H121     1.0000 0.09860  0.59750  0.64820  Biso   1.000  H
  C183     1.0000 0.87240  0.93890  0.08940  Biso   1.000  C
  H122     1.0000 0.91510  0.96030  0.11080  Biso   1.000  H
  C184     1.0000 0.87250  0.99330  0.99830  Biso   1.000  C
  C185     1.0000 0.92540  0.69840  0.49400  Biso   1.000  C
  C186     1.0000 0.72930  0.90650  0.53540  Biso   1.000  C
  H123     1.0000 0.68920  0.93410  0.51520  Biso   1.000  H
  C187     1.0000 0.01810  0.61270  0.49130  Biso   1.000  C
  H124     1.0000 0.99870  0.61580  0.45120  Biso   1.000  H
  C188     1.0000 0.09710  0.18410  0.11120  Biso   1.000  C
  H125     1.0000 0.11530  0.19050  0.15110  Biso   1.000  H
  C189     1.0000 0.75720  0.86610  0.50440  Biso   1.000  C
  H126     1.0000 0.73660  0.86690  0.46420  Biso   1.000  H
  C190     1.0000 0.84110  0.94850  0.03100  Biso   1.000  C
  C191     1.0000 0.77760  0.91490  0.00180  Biso   1.000  C
  H127     1.0000 0.75470  0.91960  0.96190  Biso   1.000  H
  C192     1.0000 0.81640  0.82410  0.53370  Biso   1.000  C
  C193     1.0000 0.87310  0.02470  0.91280  Biso   1.000  C
  C194     1.0000 0.84190  0.01420  0.84950  Biso   1.000  C
  C195     1.0000 0.01810  0.64160  0.58200  Biso   1.000  C
  H128     1.0000 0.99840  0.66380  0.60430  Biso   1.000  H
  C196     1.0000 0.95040  0.07750  0.99540  Biso   1.000  C
  C197     1.0000 0.81010  0.75800  0.34850  Biso   1.000  C
  C198     1.0000 0.04280  0.16590  0.99470  Biso   1.000  C
  H129     1.0000 0.02490  0.16240  0.95460  Biso   1.000  H
  C199     1.0000 0.74900  0.87520  0.03190  Biso   1.000  C
  H130     1.0000 0.70630  0.85350  0.01140  Biso   1.000  H
  C200     1.0000 0.03930  0.13910  0.08510  Biso   1.000  C
  H131     1.0000 0.01910  0.11670  0.10700  Biso   1.000  H
  C201     1.0000 0.74820  0.79290  0.32000  Biso   1.000  C
  H132     1.0000 0.72420  0.81050  0.34020  Biso   1.000  H
  C202     1.0000 0.83950  0.89700  0.11580  Biso   1.000  C
  H133     1.0000 0.86180  0.89020  0.15560  Biso   1.000  H
  C203     1.0000 0.72170  0.80180  0.26040  Biso   1.000  C
  H134     1.0000 0.67980  0.82620  0.24140  Biso   1.000  H
  C204     1.0000 0.10100  0.20910  0.02570  Biso   1.000  C
  H135     1.0000 0.12230  0.23290  0.00510  Biso   1.000  H
  C205     1.0000 0.84390  0.73230  0.31670  Biso   1.000  C
  H136     1.0000 0.88600  0.70820  0.33460  Biso   1.000  H
  C206     1.0000 0.84170  0.74850  0.41280  Biso   1.000  C
  C207     1.0000 0.98760  0.65000  0.52310  Biso   1.000  C
  C208     1.0000 0.84500  0.82490  0.59300  Biso   1.000  C
  H137     1.0000 0.88420  0.79610  0.61410  Biso   1.000  H
  C209     1.0000 0.81360  0.74330  0.25810  Biso   1.000  C
  H138     1.0000 0.83670  0.72600  0.23710  Biso   1.000  H
  C210     1.0000 0.78760  0.96300  0.82270  Biso   1.000  C
  H139     1.0000 0.77100  0.93330  0.84450  Biso   1.000  H
  C211     1.0000 0.01150  0.12750  0.02550  Biso   1.000  C
  C212     1.0000 0.07790  0.57090  0.52100  Biso   1.000  C
  H140     1.0000 0.09810  0.54640  0.49980  Biso   1.000  H
  C213     1.0000 0.75850  0.95670  0.76340  Biso   1.000  C
  H141     1.0000 0.72240  0.92180  0.74600  Biso   1.000  H
  C214     1.0000 0.86700  0.05400  0.81560  Biso   1.000  C
  H142     1.0000 0.90560  0.08530  0.83190  Biso   1.000  H
  C215     1.0000 0.83230  0.04540  0.75620  Biso   1.000  C
  H143     1.0000 0.84740  0.07520  0.73330  Biso   1.000  H
  C216     1.0000 0.81470  0.86900  0.62100  Biso   1.000  C
  H144     1.0000 0.83580  0.87140  0.66110  Biso   1.000  H
  N61      1.0000 0.12850  0.21910  0.08250  Biso   1.000  N
  N62      1.0000 0.77840  0.86550  0.08890  Biso   1.000  N
  N63      1.0000 0.77970  0.99860  0.72940  Biso   1.000  N
  N64      1.0000 0.92610  0.03900  0.02790  Biso   1.000  N
  N65      1.0000 0.84430  0.98290  0.94170  Biso   1.000  N
  N66      1.0000 0.92510  0.07280  0.93740  Biso   1.000  N
  N67      1.0000 0.75640  0.90860  0.59320  Biso   1.000  N
  N68      1.0000 0.75370  0.77680  0.22900  Biso   1.000  N
  N69      1.0000 0.10780  0.56420  0.57800  Biso   1.000  N
  N70      1.0000 0.90270  0.73890  0.52710  Biso   1.000  N
  N71      1.0000 0.81420  0.78710  0.44170  Biso   1.000  N
  N72      1.0000 0.89650  0.70120  0.43610  Biso   1.000  N
  Ag13     1.0000 0.27363  0.79121  0.36794  Biso   1.000  Ag
  Ag14     1.0000 0.79557  0.49687  0.86744  Biso   1.000  Ag
  C217     1.0000 0.65310  0.28020  0.00030  Biso   1.000  C
  C218     1.0000 0.42220  0.10050  0.89190  Biso   1.000  C
  H145     1.0000 0.40140  0.09750  0.85180  Biso   1.000  H
  C219     1.0000 0.62760  0.43890  0.41060  Biso   1.000  C
  H146     1.0000 0.58490  0.46030  0.38920  Biso   1.000  H
  C220     1.0000 0.62750  0.49330  0.50170  Biso   1.000  C
  C221     1.0000 0.57460  0.19840  0.00600  Biso   1.000  C
  C222     1.0000 0.77070  0.40650  0.96460  Biso   1.000  C
  H147     1.0000 0.81080  0.43410  0.98480  Biso   1.000  H
  C223     1.0000 0.48190  0.11270  0.00870  Biso   1.000  C
  H148     1.0000 0.50130  0.11580  0.04880  Biso   1.000  H
  C224     1.0000 0.40290  0.68410  0.38880  Biso   1.000  C
  H149     1.0000 0.38470  0.69050  0.34890  Biso   1.000  H
  C225     1.0000 0.74280  0.36610  0.99560  Biso   1.000  C
  H150     1.0000 0.76340  0.36690  0.03580  Biso   1.000  H
  C226     1.0000 0.65890  0.44850  0.46900  Biso   1.000  C
  C227     1.0000 0.72240  0.41490  0.49820  Biso   1.000  C
  H151     1.0000 0.74530  0.41960  0.53810  Biso   1.000  H
  C228     1.0000 0.68360  0.32410  0.96630  Biso   1.000  C
  C229     1.0000 0.62690  0.52470  0.58720  Biso   1.000  C
  C230     1.0000 0.65810  0.51420  0.65050  Biso   1.000  C
  C231     1.0000 0.48190  0.14160  0.91800  Biso   1.000  C
  H152     1.0000 0.50160  0.16380  0.89570  Biso   1.000  H
  C232     1.0000 0.54960  0.57750  0.50460  Biso   1.000  C
  C233     1.0000 0.68990  0.25800  0.15150  Biso   1.000  C
  C234     1.0000 0.45720  0.66590  0.50530  Biso   1.000  C
  H153     1.0000 0.47510  0.66240  0.54540  Biso   1.000  H
  C235     1.0000 0.75100  0.37520  0.46810  Biso   1.000  C
  H154     1.0000 0.79370  0.35350  0.48860  Biso   1.000  H
  C236     1.0000 0.46070  0.63910  0.41490  Biso   1.000  C
  H155     1.0000 0.48090  0.61670  0.39300  Biso   1.000  H
  C237     1.0000 0.75180  0.29290  0.18000  Biso   1.000  C
  H156     1.0000 0.77580  0.31050  0.15980  Biso   1.000  H
  C238     1.0000 0.66050  0.39700  0.38420  Biso   1.000  C
  H157     1.0000 0.63820  0.39020  0.34440  Biso   1.000  H
  C239     1.0000 0.77830  0.30180  0.23960  Biso   1.000  C
  H158     1.0000 0.82020  0.32620  0.25860  Biso   1.000  H
  C240     1.0000 0.39900  0.70910  0.47430  Biso   1.000  C
  H159     1.0000 0.37770  0.73290  0.49490  Biso   1.000  H
  C241     1.0000 0.65610  0.23230  0.18330  Biso   1.000  C
  H160     1.0000 0.61400  0.20820  0.16540  Biso   1.000  H
  C242     1.0000 0.65830  0.24850  0.08720  Biso   1.000  C
  C243     1.0000 0.51240  0.15000  0.97690  Biso   1.000  C
  C244     1.0000 0.65500  0.32490  0.90700  Biso   1.000  C
  H161     1.0000 0.61580  0.29610  0.88590  Biso   1.000  H
  C245     1.0000 0.68640  0.24330  0.24190  Biso   1.000  C
  H162     1.0000 0.66330  0.22600  0.26290  Biso   1.000  H
  C246     1.0000 0.71240  0.46300  0.67730  Biso   1.000  C
  H163     1.0000 0.72900  0.43330  0.65550  Biso   1.000  H
  C247     1.0000 0.48850  0.62750  0.47450  Biso   1.000  C
  C248     1.0000 0.42210  0.07090  0.97900  Biso   1.000  C
  H164     1.0000 0.40190  0.04640  0.00020  Biso   1.000  H
  C249     1.0000 0.74150  0.45670  0.73660  Biso   1.000  C
  H165     1.0000 0.77760  0.42180  0.75400  Biso   1.000  H
  C250     1.0000 0.63300  0.55400  0.68440  Biso   1.000  C
  H166     1.0000 0.59440  0.58530  0.66810  Biso   1.000  H
  C251     1.0000 0.66770  0.54540  0.74380  Biso   1.000  C
  H167     1.0000 0.65260  0.57520  0.76670  Biso   1.000  H
  C252     1.0000 0.68530  0.36900  0.87900  Biso   1.000  C
  H168     1.0000 0.66420  0.37140  0.83890  Biso   1.000  H
  N73      1.0000 0.37150  0.71910  0.41750  Biso   1.000  N
  N74      1.0000 0.72160  0.36550  0.41110  Biso   1.000  N
  N75      1.0000 0.72030  0.49860  0.77060  Biso   1.000  N
  N76      1.0000 0.57390  0.53900  0.47210  Biso   1.000  N
  N77      1.0000 0.65570  0.48290  0.55830  Biso   1.000  N
  N78      1.0000 0.57490  0.57280  0.56260  Biso   1.000  N
  N79      1.0000 0.74360  0.40860  0.90680  Biso   1.000  N
  N80      1.0000 0.74630  0.27680  0.27100  Biso   1.000  N
  N81      1.0000 0.39220  0.06420  0.92200  Biso   1.000  N
  N82      1.0000 0.59730  0.23890  0.97290  Biso   1.000  N
  N83      1.0000 0.68580  0.28710  0.05830  Biso   1.000  N
  N84      1.0000 0.60350  0.20120  0.06390  Biso   1.000  N
  Ag15     1.0000 0.77363  0.29121  0.36794  Biso   1.000  Ag
  Ag16     1.0000 0.29557  0.99687  0.86744  Biso   1.000  Ag
  C253     1.0000 0.15310  0.78020  0.00030  Biso   1.000  C
  C254     1.0000 0.92220  0.60050  0.89190  Biso   1.000  C
  H169     1.0000 0.90140  0.59750  0.85180  Biso   1.000  H
  C255     1.0000 0.12760  0.93890  0.41060  Biso   1.000  C
  H170     1.0000 0.08490  0.96030  0.38920  Biso   1.000  H
  C256     1.0000 0.12750  0.99330  0.50170  Biso   1.000  C
  C257     1.0000 0.07460  0.69840  0.00600  Biso   1.000  C
  C258     1.0000 0.27070  0.90650  0.96460  Biso   1.000  C
  H171     1.0000 0.31080  0.93410  0.98480  Biso   1.000  H
  C259     1.0000 0.98190  0.61270  0.00870  Biso   1.000  C
  H172     1.0000 0.00130  0.61580  0.04880  Biso   1.000  H
  C260     1.0000 0.90290  0.18410  0.38880  Biso   1.000  C
  H173     1.0000 0.88470  0.19050  0.34890  Biso   1.000  H
  C261     1.0000 0.24280  0.86610  0.99560  Biso   1.000  C
  H174     1.0000 0.26340  0.86690  0.03580  Biso   1.000  H
  C262     1.0000 0.15890  0.94850  0.46900  Biso   1.000  C
  C263     1.0000 0.22240  0.91490  0.49820  Biso   1.000  C
  H175     1.0000 0.24530  0.91960  0.53810  Biso   1.000  H
  C264     1.0000 0.18360  0.82410  0.96630  Biso   1.000  C
  C265     1.0000 0.12690  0.02470  0.58720  Biso   1.000  C
  C266     1.0000 0.15810  0.01420  0.65050  Biso   1.000  C
  C267     1.0000 0.98190  0.64160  0.91800  Biso   1.000  C
  H176     1.0000 0.00160  0.66380  0.89570  Biso   1.000  H
  C268     1.0000 0.04960  0.07750  0.50460  Biso   1.000  C
  C269     1.0000 0.18990  0.75800  0.15150  Biso   1.000  C
  C270     1.0000 0.95720  0.16590  0.50530  Biso   1.000  C
  H177     1.0000 0.97510  0.16240  0.54540  Biso   1.000  H
  C271     1.0000 0.25100  0.87520  0.46810  Biso   1.000  C
  H178     1.0000 0.29370  0.85350  0.48860  Biso   1.000  H
  C272     1.0000 0.96070  0.13910  0.41490  Biso   1.000  C
  H179     1.0000 0.98090  0.11670  0.39300  Biso   1.000  H
  C273     1.0000 0.25180  0.79290  0.18000  Biso   1.000  C
  H180     1.0000 0.27580  0.81050  0.15980  Biso   1.000  H
  C274     1.0000 0.16050  0.89700  0.38420  Biso   1.000  C
  H181     1.0000 0.13820  0.89020  0.34440  Biso   1.000  H
  C275     1.0000 0.27830  0.80180  0.23960  Biso   1.000  C
  H182     1.0000 0.32020  0.82620  0.25860  Biso   1.000  H
  C276     1.0000 0.89900  0.20910  0.47430  Biso   1.000  C
  H183     1.0000 0.87770  0.23290  0.49490  Biso   1.000  H
  C277     1.0000 0.15610  0.73230  0.18330  Biso   1.000  C
  H184     1.0000 0.11400  0.70820  0.16540  Biso   1.000  H
  C278     1.0000 0.15830  0.74850  0.08720  Biso   1.000  C
  C279     1.0000 0.01240  0.65000  0.97690  Biso   1.000  C
  C280     1.0000 0.15500  0.82490  0.90700  Biso   1.000  C
  H185     1.0000 0.11580  0.79610  0.88590  Biso   1.000  H
  C281     1.0000 0.18640  0.74330  0.24190  Biso   1.000  C
  H186     1.0000 0.16330  0.72600  0.26290  Biso   1.000  H
  C282     1.0000 0.21240  0.96300  0.67730  Biso   1.000  C
  H187     1.0000 0.22900  0.93330  0.65550  Biso   1.000  H
  C283     1.0000 0.98850  0.12750  0.47450  Biso   1.000  C
  C284     1.0000 0.92210  0.57090  0.97900  Biso   1.000  C
  H188     1.0000 0.90190  0.54640  0.00020  Biso   1.000  H
  C285     1.0000 0.24150  0.95670  0.73660  Biso   1.000  C
  H189     1.0000 0.27760  0.92180  0.75400  Biso   1.000  H
  C286     1.0000 0.13300  0.05400  0.68440  Biso   1.000  C
  H190     1.0000 0.09440  0.08530  0.66810  Biso   1.000  H
  C287     1.0000 0.16770  0.04540  0.74380  Biso   1.000  C
  H191     1.0000 0.15260  0.07520  0.76670  Biso   1.000  H
  C288     1.0000 0.18530  0.86900  0.87900  Biso   1.000  C
  H192     1.0000 0.16420  0.87140  0.83890  Biso   1.000  H
  N85      1.0000 0.87150  0.21910  0.41750  Biso   1.000  N
  N86      1.0000 0.22160  0.86550  0.41110  Biso   1.000  N
  N87      1.0000 0.22030  0.99860  0.77060  Biso   1.000  N
  N88      1.0000 0.07390  0.03900  0.47210  Biso   1.000  N
  N89      1.0000 0.15570  0.98290  0.55830  Biso   1.000  N
  N90      1.0000 0.07490  0.07280  0.56260  Biso   1.000  N
  N91      1.0000 0.24360  0.90860  0.90680  Biso   1.000  N
  N92      1.0000 0.24630  0.77680  0.27100  Biso   1.000  N
  N93      1.0000 0.89220  0.56420  0.92200  Biso   1.000  N
  N94      1.0000 0.09730  0.73890  0.97290  Biso   1.000  N
  N95      1.0000 0.18580  0.78710  0.05830  Biso   1.000  N
  N96      1.0000 0.10350  0.70120  0.06390  Biso   1.000  N
