data_image0
_cell_length_a       21.9368
_cell_length_b       16.8155
_cell_length_c       25.4998
_cell_angle_alpha    90
_cell_angle_beta     115.121
_cell_angle_gamma    90

_symmetry_space_group_name_H-M    "P 1"
_symmetry_int_tables_number       1

loop_
  _symmetry_equiv_pos_as_xyz
  'x, y, z'

loop_
  _atom_site_label
  _atom_site_occupancy
  _atom_site_fract_x
  _atom_site_fract_y
  _atom_site_fract_z
  _atom_site_thermal_displace_type
  _atom_site_B_iso_or_equiv
  _atom_site_type_symbol
  Ag1      1.0000 0.65577  0.45643  0.63345  Biso   1.000  Ag
  Ag2      1.0000 0.67883  0.75699  0.13374  Biso   1.000  Ag
  C1       1.0000 0.40260  0.97160  0.00170  Biso   1.000  C
  C2       1.0000 0.96780  0.80920  0.59140  Biso   1.000  C
  H1       1.0000 0.94650  0.78790  0.61290  Biso   1.000  H
  C3       1.0000 0.87710  0.75570  0.50050  Biso   1.000  C
  C4       1.0000 0.94040  0.79950  0.53270  Biso   1.000  C
  C5       1.0000 0.70230  0.58340  0.49630  Biso   1.000  C
  H2       1.0000 0.68030  0.58710  0.45610  Biso   1.000  H
  C6       1.0000 0.55600  0.84530  0.03730  Biso   1.000  C
  H3       1.0000 0.57570  0.81760  0.01700  Biso   1.000  H
  C7       1.0000 0.49670  0.88480  0.00610  Biso   1.000  C
  H4       1.0000 0.47670  0.88290  0.96580  Biso   1.000  H
  C8       1.0000 0.31950  0.05230  0.99580  Biso   1.000  C
  C9       1.0000 0.46730  0.92750  0.03560  Biso   1.000  C
  C10      1.0000 0.27990  0.15220  0.10940  Biso   1.000  C
  H5       1.0000 0.29950  0.15650  0.14950  Biso   1.000  H
  C11      1.0000 0.22370  0.13900  0.99190  Biso   1.000  C
  H6       1.0000 0.20340  0.13610  0.95170  Biso   1.000  H
  C12      1.0000 0.79030  0.72530  0.41450  Biso   1.000  C
  C13      1.0000 0.75770  0.73660  0.35100  Biso   1.000  C
  C14      1.0000 0.76450  0.56430  0.61280  Biso   1.000  C
  H7       1.0000 0.78580  0.55760  0.65270  Biso   1.000  H
  C15      1.0000 0.28810  0.99140  0.85000  Biso   1.000  C
  C16      1.0000 0.76500  0.62100  0.52770  Biso   1.000  C
  C17      1.0000 0.28630  0.10130  0.02500  Biso   1.000  C
  C18      1.0000 0.97480  0.83400  0.50270  Biso   1.000  C
  H8       1.0000 0.95780  0.83020  0.46260  Biso   1.000  H
  C19      1.0000 0.79620  0.60940  0.58660  Biso   1.000  C
  H9       1.0000 0.83820  0.63180  0.60850  Biso   1.000  H
  C20      1.0000 0.32160  0.95560  0.82180  Biso   1.000  C
  H10      1.0000 0.36540  0.93740  0.84220  Biso   1.000  H
  C21      1.0000 0.32020  0.00160  0.91390  Biso   1.000  C
  C22      1.0000 0.79490  0.67150  0.49700  Biso   1.000  C
  C23      1.0000 0.67520  0.54100  0.52740  Biso   1.000  C
  H11      1.0000 0.63280  0.51870  0.50710  Biso   1.000  H
  C24      1.0000 0.19390  0.18080  0.02240  Biso   1.000  C
  H12      1.0000 0.15270  0.20550  0.00130  Biso   1.000  H
  C25      1.0000 0.31380  0.10950  0.08330  Biso   1.000  C
  H13      1.0000 0.35540  0.08660  0.10580  Biso   1.000  H
  C26      1.0000 0.03290  0.87270  0.53340  Biso   1.000  C
  H14      1.0000 0.05510  0.89480  0.51290  Biso   1.000  H
  C27      1.0000 0.49890  0.92760  0.09520  Biso   1.000  C
  H15      1.0000 0.48110  0.95620  0.11660  Biso   1.000  H
  C28      1.0000 0.02750  0.85120  0.61850  Biso   1.000  C
  H16      1.0000 0.04510  0.85820  0.65840  Biso   1.000  H
  C29      1.0000 0.28870  0.94700  0.76190  Biso   1.000  C
  H17      1.0000 0.31210  0.92400  0.74280  Biso   1.000  H
  C30      1.0000 0.19510  0.00500  0.75940  Biso   1.000  C
  H18      1.0000 0.15140  0.02330  0.73810  Biso   1.000  H
  C31      1.0000 0.75550  0.79420  0.26560  Biso   1.000  C
  H19      1.0000 0.77390  0.82960  0.24830  Biso   1.000  H
  C32      1.0000 0.22290  0.01690  0.81900  Biso   1.000  C
  H20      1.0000 0.19860  0.04080  0.83710  Biso   1.000  H
  C33      1.0000 0.55640  0.88510  0.12210  Biso   1.000  C
  H21      1.0000 0.57620  0.88440  0.16230  Biso   1.000  H
  C34      1.0000 0.78640  0.78550  0.32410  Biso   1.000  C
  H22      1.0000 0.82630  0.81220  0.34580  Biso   1.000  H
  C35      1.0000 0.69750  0.69920  0.31700  Biso   1.000  C
  H23      1.0000 0.67480  0.66850  0.33330  Biso   1.000  H
  C36      1.0000 0.67290  0.70920  0.25830  Biso   1.000  C
  H24      1.0000 0.63370  0.68190  0.23550  Biso   1.000  H
  N1       1.0000 0.70460  0.52970  0.58370  Biso   1.000  N
  N2       1.0000 0.06080  0.88170  0.59030  Biso   1.000  N
  N3       1.0000 0.69970  0.75410  0.23150  Biso   1.000  N
  N4       1.0000 0.76300  0.67710  0.43970  Biso   1.000  N
  N5       1.0000 0.85240  0.70990  0.52980  Biso   1.000  N
  N6       1.0000 0.84790  0.76550  0.44320  Biso   1.000  N
  N7       1.0000 0.58670  0.84410  0.09470  Biso   1.000  N
  N8       1.0000 0.22070  0.18720  0.07950  Biso   1.000  N
  N9       1.0000 0.22550  0.97000  0.73070  Biso   1.000  N
  N10      1.0000 0.37740  0.96230  0.94370  Biso   1.000  N
  N11      1.0000 0.37520  0.01300  0.02910  Biso   1.000  N
  N12      1.0000 0.29000  0.04930  0.93780  Biso   1.000  N
  Ag3      1.0000 0.15577  0.95643  0.63345  Biso   1.000  Ag
  Ag4      1.0000 0.17883  0.25699  0.13374  Biso   1.000  Ag
  C37      1.0000 0.90260  0.47160  0.00170  Biso   1.000  C
  C38      1.0000 0.46780  0.30920  0.59140  Biso   1.000  C
  H25      1.0000 0.44650  0.28790  0.61290  Biso   1.000  H
  C39      1.0000 0.37710  0.25570  0.50050  Biso   1.000  C
  C40      1.0000 0.44040  0.29950  0.53270  Biso   1.000  C
  C41      1.0000 0.20230  0.08340  0.49630  Biso   1.000  C
  H26      1.0000 0.18030  0.08710  0.45610  Biso   1.000  H
  C42      1.0000 0.05600  0.34530  0.03730  Biso   1.000  C
  H27      1.0000 0.07570  0.31760  0.01700  Biso   1.000  H
  C43      1.0000 0.99670  0.38480  0.00610  Biso   1.000  C
  H28      1.0000 0.97670  0.38290  0.96580  Biso   1.000  H
  C44      1.0000 0.81950  0.55230  0.99580  Biso   1.000  C
  C45      1.0000 0.96730  0.42750  0.03560  Biso   1.000  C
  C46      1.0000 0.77990  0.65220  0.10940  Biso   1.000  C
  H29      1.0000 0.79950  0.65650  0.14950  Biso   1.000  H
  C47      1.0000 0.72370  0.63900  0.99190  Biso   1.000  C
  H30      1.0000 0.70340  0.63610  0.95170  Biso   1.000  H
  C48      1.0000 0.29030  0.22530  0.41450  Biso   1.000  C
  C49      1.0000 0.25770  0.23660  0.35100  Biso   1.000  C
  C50      1.0000 0.26450  0.06430  0.61280  Biso   1.000  C
  H31      1.0000 0.28580  0.05760  0.65270  Biso   1.000  H
  C51      1.0000 0.78810  0.49140  0.85000  Biso   1.000  C
  C52      1.0000 0.26500  0.12100  0.52770  Biso   1.000  C
  C53      1.0000 0.78630  0.60130  0.02500  Biso   1.000  C
  C54      1.0000 0.47480  0.33400  0.50270  Biso   1.000  C
  H32      1.0000 0.45780  0.33020  0.46260  Biso   1.000  H
  C55      1.0000 0.29620  0.10940  0.58660  Biso   1.000  C
  H33      1.0000 0.33820  0.13180  0.60850  Biso   1.000  H
  C56      1.0000 0.82160  0.45560  0.82180  Biso   1.000  C
  H34      1.0000 0.86540  0.43740  0.84220  Biso   1.000  H
  C57      1.0000 0.82020  0.50160  0.91390  Biso   1.000  C
  C58      1.0000 0.29490  0.17150  0.49700  Biso   1.000  C
  C59      1.0000 0.17520  0.04100  0.52740  Biso   1.000  C
  H35      1.0000 0.13280  0.01870  0.50710  Biso   1.000  H
  C60      1.0000 0.69390  0.68080  0.02240  Biso   1.000  C
  H36      1.0000 0.65270  0.70550  0.00130  Biso   1.000  H
  C61      1.0000 0.81380  0.60950  0.08330  Biso   1.000  C
  H37      1.0000 0.85540  0.58660  0.10580  Biso   1.000  H
  C62      1.0000 0.53290  0.37270  0.53340  Biso   1.000  C
  H38      1.0000 0.55510  0.39480  0.51290  Biso   1.000  H
  C63      1.0000 0.99890  0.42760  0.09520  Biso   1.000  C
  H39      1.0000 0.98110  0.45620  0.11660  Biso   1.000  H
  C64      1.0000 0.52750  0.35120  0.61850  Biso   1.000  C
  H40      1.0000 0.54510  0.35820  0.65840  Biso   1.000  H
  C65      1.0000 0.78870  0.44700  0.76190  Biso   1.000  C
  H41      1.0000 0.81210  0.42400  0.74280  Biso   1.000  H
  C66      1.0000 0.69510  0.50500  0.75940  Biso   1.000  C
  H42      1.0000 0.65140  0.52330  0.73810  Biso   1.000  H
  C67      1.0000 0.25550  0.29420  0.26560  Biso   1.000  C
  H43      1.0000 0.27390  0.32960  0.24830  Biso   1.000  H
  C68      1.0000 0.72290  0.51690  0.81900  Biso   1.000  C
  H44      1.0000 0.69860  0.54080  0.83710  Biso   1.000  H
  C69      1.0000 0.05640  0.38510  0.12210  Biso   1.000  C
  H45      1.0000 0.07620  0.38440  0.16230  Biso   1.000  H
  C70      1.0000 0.28640  0.28550  0.32410  Biso   1.000  C
  H46      1.0000 0.32630  0.31220  0.34580  Biso   1.000  H
  C71      1.0000 0.19750  0.19920  0.31700  Biso   1.000  C
  H47      1.0000 0.17480  0.16850  0.33330  Biso   1.000  H
  C72      1.0000 0.17290  0.20920  0.25830  Biso   1.000  C
  H48      1.0000 0.13370  0.18190  0.23550  Biso   1.000  H
  N13      1.0000 0.20460  0.02970  0.58370  Biso   1.000  N
  N14      1.0000 0.56080  0.38170  0.59030  Biso   1.000  N
  N15      1.0000 0.19970  0.25410  0.23150  Biso   1.000  N
  N16      1.0000 0.26300  0.17710  0.43970  Biso   1.000  N
  N17      1.0000 0.35240  0.20990  0.52980  Biso   1.000  N
  N18      1.0000 0.34790  0.26550  0.44320  Biso   1.000  N
  N19      1.0000 0.08670  0.34410  0.09470  Biso   1.000  N
  N20      1.0000 0.72070  0.68720  0.07950  Biso   1.000  N
  N21      1.0000 0.72550  0.47000  0.73070  Biso   1.000  N
  N22      1.0000 0.87740  0.46230  0.94370  Biso   1.000  N
  N23      1.0000 0.87520  0.51300  0.02910  Biso   1.000  N
  N24      1.0000 0.79000  0.54930  0.93780  Biso   1.000  N
  Ag5      1.0000 0.34423  0.45643  0.86655  Biso   1.000  Ag
  Ag6      1.0000 0.32117  0.75699  0.36626  Biso   1.000  Ag
  C73      1.0000 0.59740  0.97160  0.49830  Biso   1.000  C
  C74      1.0000 0.03220  0.80920  0.90860  Biso   1.000  C
  H49      1.0000 0.05350  0.78790  0.88710  Biso   1.000  H
  C75      1.0000 0.12290  0.75570  0.99950  Biso   1.000  C
  C76      1.0000 0.05960  0.79950  0.96730  Biso   1.000  C
  C77      1.0000 0.29770  0.58340  0.00370  Biso   1.000  C
  H50      1.0000 0.31970  0.58710  0.04390  Biso   1.000  H
  C78      1.0000 0.44400  0.84530  0.46270  Biso   1.000  C
  H51      1.0000 0.42430  0.81760  0.48300  Biso   1.000  H
  C79      1.0000 0.50330  0.88480  0.49390  Biso   1.000  C
  H52      1.0000 0.52330  0.88290  0.53420  Biso   1.000  H
  C80      1.0000 0.68050  0.05230  0.50420  Biso   1.000  C
  C81      1.0000 0.53270  0.92750  0.46440  Biso   1.000  C
  C82      1.0000 0.72010  0.15220  0.39060  Biso   1.000  C
  H53      1.0000 0.70050  0.15650  0.35050  Biso   1.000  H
  C83      1.0000 0.77630  0.13900  0.50810  Biso   1.000  C
  H54      1.0000 0.79660  0.13610  0.54830  Biso   1.000  H
  C84      1.0000 0.20970  0.72530  0.08550  Biso   1.000  C
  C85      1.0000 0.24230  0.73660  0.14900  Biso   1.000  C
  C86      1.0000 0.23550  0.56430  0.88720  Biso   1.000  C
  H55      1.0000 0.21420  0.55760  0.84730  Biso   1.000  H
  C87      1.0000 0.71190  0.99140  0.65000  Biso   1.000  C
  C88      1.0000 0.23500  0.62100  0.97230  Biso   1.000  C
  C89      1.0000 0.71370  0.10130  0.47500  Biso   1.000  C
  C90      1.0000 0.02520  0.83400  0.99730  Biso   1.000  C
  H56      1.0000 0.04220  0.83020  0.03740  Biso   1.000  H
  C91      1.0000 0.20380  0.60940  0.91340  Biso   1.000  C
  H57      1.0000 0.16180  0.63180  0.89150  Biso   1.000  H
  C92      1.0000 0.67840  0.95560  0.67820  Biso   1.000  C
  H58      1.0000 0.63460  0.93740  0.65780  Biso   1.000  H
  C93      1.0000 0.67980  0.00160  0.58610  Biso   1.000  C
  C94      1.0000 0.20510  0.67150  0.00300  Biso   1.000  C
  C95      1.0000 0.32480  0.54100  0.97260  Biso   1.000  C
  H59      1.0000 0.36720  0.51870  0.99290  Biso   1.000  H
  C96      1.0000 0.80610  0.18080  0.47760  Biso   1.000  C
  H60      1.0000 0.84730  0.20550  0.49870  Biso   1.000  H
  C97      1.0000 0.68620  0.10950  0.41670  Biso   1.000  C
  H61      1.0000 0.64460  0.08660  0.39420  Biso   1.000  H
  C98      1.0000 0.96710  0.87270  0.96660  Biso   1.000  C
  H62      1.0000 0.94490  0.89480  0.98710  Biso   1.000  H
  C99      1.0000 0.50110  0.92760  0.40480  Biso   1.000  C
  H63      1.0000 0.51890  0.95620  0.38340  Biso   1.000  H
  C100     1.0000 0.97250  0.85120  0.88150  Biso   1.000  C
  H64      1.0000 0.95490  0.85820  0.84160  Biso   1.000  H
  C101     1.0000 0.71130  0.94700  0.73810  Biso   1.000  C
  H65      1.0000 0.68790  0.92400  0.75720  Biso   1.000  H
  C102     1.0000 0.80490  0.00500  0.74060  Biso   1.000  C
  H66      1.0000 0.84860  0.02330  0.76190  Biso   1.000  H
  C103     1.0000 0.24450  0.79420  0.23440  Biso   1.000  C
  H67      1.0000 0.22610  0.82960  0.25170  Biso   1.000  H
  C104     1.0000 0.77710  0.01690  0.68100  Biso   1.000  C
  H68      1.0000 0.80140  0.04080  0.66290  Biso   1.000  H
  C105     1.0000 0.44360  0.88510  0.37790  Biso   1.000  C
  H69      1.0000 0.42380  0.88440  0.33770  Biso   1.000  H
  C106     1.0000 0.21360  0.78550  0.17590  Biso   1.000  C
  H70      1.0000 0.17370  0.81220  0.15420  Biso   1.000  H
  C107     1.0000 0.30250  0.69920  0.18300  Biso   1.000  C
  H71      1.0000 0.32520  0.66850  0.16670  Biso   1.000  H
  C108     1.0000 0.32710  0.70920  0.24170  Biso   1.000  C
  H72      1.0000 0.36630  0.68190  0.26450  Biso   1.000  H
  N25      1.0000 0.29540  0.52970  0.91630  Biso   1.000  N
  N26      1.0000 0.93920  0.88170  0.90970  Biso   1.000  N
  N27      1.0000 0.30030  0.75410  0.26850  Biso   1.000  N
  N28      1.0000 0.23700  0.67710  0.06030  Biso   1.000  N
  N29      1.0000 0.14760  0.70990  0.97020  Biso   1.000  N
  N30      1.0000 0.15210  0.76550  0.05680  Biso   1.000  N
  N31      1.0000 0.41330  0.84410  0.40530  Biso   1.000  N
  N32      1.0000 0.77930  0.18720  0.42050  Biso   1.000  N
  N33      1.0000 0.77450  0.97000  0.76930  Biso   1.000  N
  N34      1.0000 0.62260  0.96230  0.55630  Biso   1.000  N
  N35      1.0000 0.62480  0.01300  0.47090  Biso   1.000  N
  N36      1.0000 0.71000  0.04930  0.56220  Biso   1.000  N
  Ag7      1.0000 0.84423  0.95643  0.86655  Biso   1.000  Ag
  Ag8      1.0000 0.82117  0.25699  0.36626  Biso   1.000  Ag
  C109     1.0000 0.09740  0.47160  0.49830  Biso   1.000  C
  C110     1.0000 0.53220  0.30920  0.90860  Biso   1.000  C
  H73      1.0000 0.55350  0.28790  0.88710  Biso   1.000  H
  C111     1.0000 0.62290  0.25570  0.99950  Biso   1.000  C
  C112     1.0000 0.55960  0.29950  0.96730  Biso   1.000  C
  C113     1.0000 0.79770  0.08340  0.00370  Biso   1.000  C
  H74      1.0000 0.81970  0.08710  0.04390  Biso   1.000  H
  C114     1.0000 0.94400  0.34530  0.46270  Biso   1.000  C
  H75      1.0000 0.92430  0.31760  0.48300  Biso   1.000  H
  C115     1.0000 0.00330  0.38480  0.49390  Biso   1.000  C
  H76      1.0000 0.02330  0.38290  0.53420  Biso   1.000  H
  C116     1.0000 0.18050  0.55230  0.50420  Biso   1.000  C
  C117     1.0000 0.03270  0.42750  0.46440  Biso   1.000  C
  C118     1.0000 0.22010  0.65220  0.39060  Biso   1.000  C
  H77      1.0000 0.20050  0.65650  0.35050  Biso   1.000  H
  C119     1.0000 0.27630  0.63900  0.50810  Biso   1.000  C
  H78      1.0000 0.29660  0.63610  0.54830  Biso   1.000  H
  C120     1.0000 0.70970  0.22530  0.08550  Biso   1.000  C
  C121     1.0000 0.74230  0.23660  0.14900  Biso   1.000  C
  C122     1.0000 0.73550  0.06430  0.88720  Biso   1.000  C
  H79      1.0000 0.71420  0.05760  0.84730  Biso   1.000  H
  C123     1.0000 0.21190  0.49140  0.65000  Biso   1.000  C
  C124     1.0000 0.73500  0.12100  0.97230  Biso   1.000  C
  C125     1.0000 0.21370  0.60130  0.47500  Biso   1.000  C
  C126     1.0000 0.52520  0.33400  0.99730  Biso   1.000  C
  H80      1.0000 0.54220  0.33020  0.03740  Biso   1.000  H
  C127     1.0000 0.70380  0.10940  0.91340  Biso   1.000  C
  H81      1.0000 0.66180  0.13180  0.89150  Biso   1.000  H
  C128     1.0000 0.17840  0.45560  0.67820  Biso   1.000  C
  H82      1.0000 0.13460  0.43740  0.65780  Biso   1.000  H
  C129     1.0000 0.17980  0.50160  0.58610  Biso   1.000  C
  C130     1.0000 0.70510  0.17150  0.00300  Biso   1.000  C
  C131     1.0000 0.82480  0.04100  0.97260  Biso   1.000  C
  H83      1.0000 0.86720  0.01870  0.99290  Biso   1.000  H
  C132     1.0000 0.30610  0.68080  0.47760  Biso   1.000  C
  H84      1.0000 0.34730  0.70550  0.49870  Biso   1.000  H
  C133     1.0000 0.18620  0.60950  0.41670  Biso   1.000  C
  H85      1.0000 0.14460  0.58660  0.39420  Biso   1.000  H
  C134     1.0000 0.46710  0.37270  0.96660  Biso   1.000  C
  H86      1.0000 0.44490  0.39480  0.98710  Biso   1.000  H
  C135     1.0000 0.00110  0.42760  0.40480  Biso   1.000  C
  H87      1.0000 0.01890  0.45620  0.38340  Biso   1.000  H
  C136     1.0000 0.47250  0.35120  0.88150  Biso   1.000  C
  H88      1.0000 0.45490  0.35820  0.84160  Biso   1.000  H
  C137     1.0000 0.21130  0.44700  0.73810  Biso   1.000  C
  H89      1.0000 0.18790  0.42400  0.75720  Biso   1.000  H
  C138     1.0000 0.30490  0.50500  0.74060  Biso   1.000  C
  H90      1.0000 0.34860  0.52330  0.76190  Biso   1.000  H
  C139     1.0000 0.74450  0.29420  0.23440  Biso   1.000  C
  H91      1.0000 0.72610  0.32960  0.25170  Biso   1.000  H
  C140     1.0000 0.27710  0.51690  0.68100  Biso   1.000  C
  H92      1.0000 0.30140  0.54080  0.66290  Biso   1.000  H
  C141     1.0000 0.94360  0.38510  0.37790  Biso   1.000  C
  H93      1.0000 0.92380  0.38440  0.33770  Biso   1.000  H
  C142     1.0000 0.71360  0.28550  0.17590  Biso   1.000  C
  H94      1.0000 0.67370  0.31220  0.15420  Biso   1.000  H
  C143     1.0000 0.80250  0.19920  0.18300  Biso   1.000  C
  H95      1.0000 0.82520  0.16850  0.16670  Biso   1.000  H
  C144     1.0000 0.82710  0.20920  0.24170  Biso   1.000  C
  H96      1.0000 0.86630  0.18190  0.26450  Biso   1.000  H
  N37      1.0000 0.79540  0.02970  0.91630  Biso   1.000  N
  N38      1.0000 0.43920  0.38170  0.90970  Biso   1.000  N
  N39      1.0000 0.80030  0.25410  0.26850  Biso   1.000  N
  N40      1.0000 0.73700  0.17710  0.06030  Biso   1.000  N
  N41      1.0000 0.64760  0.20990  0.97020  Biso   1.000  N
  N42      1.0000 0.65210  0.26550  0.05680  Biso   1.000  N
  N43      1.0000 0.91330  0.34410  0.40530  Biso   1.000  N
  N44      1.0000 0.27930  0.68720  0.42050  Biso   1.000  N
  N45      1.0000 0.27450  0.47000  0.76930  Biso   1.000  N
  N46      1.0000 0.12260  0.46230  0.55630  Biso   1.000  N
  N47      1.0000 0.12480  0.51300  0.47090  Biso   1.000  N
  N48      1.0000 0.21000  0.54930  0.56220  Biso   1.000  N
  Ag9      1.0000 0.34423  0.54357  0.36655  Biso   1.000  Ag
  Ag10     1.0000 0.32117  0.24301  0.86626  Biso   1.000  Ag
  C145     1.0000 0.59740  0.02840  0.99830  Biso   1.000  C
  C146     1.0000 0.03220  0.19080  0.40860  Biso   1.000  C
  H97      1.0000 0.05350  0.21210  0.38710  Biso   1.000  H
  C147     1.0000 0.12290  0.24430  0.49950  Biso   1.000  C
  C148     1.0000 0.05960  0.20050  0.46730  Biso   1.000  C
  C149     1.0000 0.29770  0.41660  0.50370  Biso   1.000  C
  H98      1.0000 0.31970  0.41290  0.54390  Biso   1.000  H
  C150     1.0000 0.44400  0.15470  0.96270  Biso   1.000  C
  H99      1.0000 0.42430  0.18240  0.98300  Biso   1.000  H
  C151     1.0000 0.50330  0.11520  0.99390  Biso   1.000  C
  H100     1.0000 0.52330  0.11710  0.03420  Biso   1.000  H
  C152     1.0000 0.68050  0.94770  0.00420  Biso   1.000  C
  C153     1.0000 0.53270  0.07250  0.96440  Biso   1.000  C
  C154     1.0000 0.72010  0.84780  0.89060  Biso   1.000  C
  H101     1.0000 0.70050  0.84350  0.85050  Biso   1.000  H
  C155     1.0000 0.77630  0.86100  0.00810  Biso   1.000  C
  H102     1.0000 0.79660  0.86390  0.04830  Biso   1.000  H
  C156     1.0000 0.20970  0.27470  0.58550  Biso   1.000  C
  C157     1.0000 0.24230  0.26340  0.64900  Biso   1.000  C
  C158     1.0000 0.23550  0.43570  0.38720  Biso   1.000  C
  H103     1.0000 0.21420  0.44240  0.34730  Biso   1.000  H
  C159     1.0000 0.71190  0.00860  0.15000  Biso   1.000  C
  C160     1.0000 0.23500  0.37900  0.47230  Biso   1.000  C
  C161     1.0000 0.71370  0.89870  0.97500  Biso   1.000  C
  C162     1.0000 0.02520  0.16600  0.49730  Biso   1.000  C
  H104     1.0000 0.04220  0.16980  0.53740  Biso   1.000  H
  C163     1.0000 0.20380  0.39060  0.41340  Biso   1.000  C
  H105     1.0000 0.16180  0.36820  0.39150  Biso   1.000  H
  C164     1.0000 0.67840  0.04440  0.17820  Biso   1.000  C
  H106     1.0000 0.63460  0.06260  0.15780  Biso   1.000  H
  C165     1.0000 0.67980  0.99840  0.08610  Biso   1.000  C
  C166     1.0000 0.20510  0.32850  0.50300  Biso   1.000  C
  C167     1.0000 0.32480  0.45900  0.47260  Biso   1.000  C
  H107     1.0000 0.36720  0.48130  0.49290  Biso   1.000  H
  C168     1.0000 0.80610  0.81920  0.97760  Biso   1.000  C
  H108     1.0000 0.84730  0.79450  0.99870  Biso   1.000  H
  C169     1.0000 0.68620  0.89050  0.91670  Biso   1.000  C
  H109     1.0000 0.64460  0.91340  0.89420  Biso   1.000  H
  C170     1.0000 0.96710  0.12730  0.46660  Biso   1.000  C
  H110     1.0000 0.94490  0.10520  0.48710  Biso   1.000  H
  C171     1.0000 0.50110  0.07240  0.90480  Biso   1.000  C
  H111     1.0000 0.51890  0.04380  0.88340  Biso   1.000  H
  C172     1.0000 0.97250  0.14880  0.38150  Biso   1.000  C
  H112     1.0000 0.95490  0.14180  0.34160  Biso   1.000  H
  C173     1.0000 0.71130  0.05300  0.23810  Biso   1.000  C
  H113     1.0000 0.68790  0.07600  0.25720  Biso   1.000  H
  C174     1.0000 0.80490  0.99500  0.24060  Biso   1.000  C
  H114     1.0000 0.84860  0.97670  0.26190  Biso   1.000  H
  C175     1.0000 0.24450  0.20580  0.73440  Biso   1.000  C
  H115     1.0000 0.22610  0.17040  0.75170  Biso   1.000  H
  C176     1.0000 0.77710  0.98310  0.18100  Biso   1.000  C
  H116     1.0000 0.80140  0.95920  0.16290  Biso   1.000  H
  C177     1.0000 0.44360  0.11490  0.87790  Biso   1.000  C
  H117     1.0000 0.42380  0.11560  0.83770  Biso   1.000  H
  C178     1.0000 0.21360  0.21450  0.67590  Biso   1.000  C
  H118     1.0000 0.17370  0.18780  0.65420  Biso   1.000  H
  C179     1.0000 0.30250  0.30080  0.68300  Biso   1.000  C
  H119     1.0000 0.32520  0.33150  0.66670  Biso   1.000  H
  C180     1.0000 0.32710  0.29080  0.74170  Biso   1.000  C
  H120     1.0000 0.36630  0.31810  0.76450  Biso   1.000  H
  N49      1.0000 0.29540  0.47030  0.41630  Biso   1.000  N
  N50      1.0000 0.93920  0.11830  0.40970  Biso   1.000  N
  N51      1.0000 0.30030  0.24590  0.76850  Biso   1.000  N
  N52      1.0000 0.23700  0.32290  0.56030  Biso   1.000  N
  N53      1.0000 0.14760  0.29010  0.47020  Biso   1.000  N
  N54      1.0000 0.15210  0.23450  0.55680  Biso   1.000  N
  N55      1.0000 0.41330  0.15590  0.90530  Biso   1.000  N
  N56      1.0000 0.77930  0.81280  0.92050  Biso   1.000  N
  N57      1.0000 0.77450  0.03000  0.26930  Biso   1.000  N
  N58      1.0000 0.62260  0.03770  0.05630  Biso   1.000  N
  N59      1.0000 0.62480  0.98700  0.97090  Biso   1.000  N
  N60      1.0000 0.71000  0.95070  0.06220  Biso   1.000  N
  Ag11     1.0000 0.84423  0.04357  0.36655  Biso   1.000  Ag
  Ag12     1.0000 0.82117  0.74301  0.86626  Biso   1.000  Ag
  C181     1.0000 0.09740  0.52840  0.99830  Biso   1.000  C
  C182     1.0000 0.53220  0.69080  0.40860  Biso   1.000  C
  H121     1.0000 0.55350  0.71210  0.38710  Biso   1.000  H
  C183     1.0000 0.62290  0.74430  0.49950  Biso   1.000  C
  C184     1.0000 0.55960  0.70050  0.46730  Biso   1.000  C
  C185     1.0000 0.79770  0.91660  0.50370  Biso   1.000  C
  H122     1.0000 0.81970  0.91290  0.54390  Biso   1.000  H
  C186     1.0000 0.94400  0.65470  0.96270  Biso   1.000  C
  H123     1.0000 0.92430  0.68240  0.98300  Biso   1.000  H
  C187     1.0000 0.00330  0.61520  0.99390  Biso   1.000  C
  H124     1.0000 0.02330  0.61710  0.03420  Biso   1.000  H
  C188     1.0000 0.18050  0.44770  0.00420  Biso   1.000  C
  C189     1.0000 0.03270  0.57250  0.96440  Biso   1.000  C
  C190     1.0000 0.22010  0.34780  0.89060  Biso   1.000  C
  H125     1.0000 0.20050  0.34350  0.85050  Biso   1.000  H
  C191     1.0000 0.27630  0.36100  0.00810  Biso   1.000  C
  H126     1.0000 0.29660  0.36390  0.04830  Biso   1.000  H
  C192     1.0000 0.70970  0.77470  0.58550  Biso   1.000  C
  C193     1.0000 0.74230  0.76340  0.64900  Biso   1.000  C
  C194     1.0000 0.73550  0.93570  0.38720  Biso   1.000  C
  H127     1.0000 0.71420  0.94240  0.34730  Biso   1.000  H
  C195     1.0000 0.21190  0.50860  0.15000  Biso   1.000  C
  C196     1.0000 0.73500  0.87900  0.47230  Biso   1.000  C
  C197     1.0000 0.21370  0.39870  0.97500  Biso   1.000  C
  C198     1.0000 0.52520  0.66600  0.49730  Biso   1.000  C
  H128     1.0000 0.54220  0.66980  0.53740  Biso   1.000  H
  C199     1.0000 0.70380  0.89060  0.41340  Biso   1.000  C
  H129     1.0000 0.66180  0.86820  0.39150  Biso   1.000  H
  C200     1.0000 0.17840  0.54440  0.17820  Biso   1.000  C
  H130     1.0000 0.13460  0.56260  0.15780  Biso   1.000  H
  C201     1.0000 0.17980  0.49840  0.08610  Biso   1.000  C
  C202     1.0000 0.70510  0.82850  0.50300  Biso   1.000  C
  C203     1.0000 0.82480  0.95900  0.47260  Biso   1.000  C
  H131     1.0000 0.86720  0.98130  0.49290  Biso   1.000  H
  C204     1.0000 0.30610  0.31920  0.97760  Biso   1.000  C
  H132     1.0000 0.34730  0.29450  0.99870  Biso   1.000  H
  C205     1.0000 0.18620  0.39050  0.91670  Biso   1.000  C
  H133     1.0000 0.14460  0.41340  0.89420  Biso   1.000  H
  C206     1.0000 0.46710  0.62730  0.46660  Biso   1.000  C
  H134     1.0000 0.44490  0.60520  0.48710  Biso   1.000  H
  C207     1.0000 0.00110  0.57240  0.90480  Biso   1.000  C
  H135     1.0000 0.01890  0.54380  0.88340  Biso   1.000  H
  C208     1.0000 0.47250  0.64880  0.38150  Biso   1.000  C
  H136     1.0000 0.45490  0.64180  0.34160  Biso   1.000  H
  C209     1.0000 0.21130  0.55300  0.23810  Biso   1.000  C
  H137     1.0000 0.18790  0.57600  0.25720  Biso   1.000  H
  C210     1.0000 0.30490  0.49500  0.24060  Biso   1.000  C
  H138     1.0000 0.34860  0.47670  0.26190  Biso   1.000  H
  C211     1.0000 0.74450  0.70580  0.73440  Biso   1.000  C
  H139     1.0000 0.72610  0.67040  0.75170  Biso   1.000  H
  C212     1.0000 0.27710  0.48310  0.18100  Biso   1.000  C
  H140     1.0000 0.30140  0.45920  0.16290  Biso   1.000  H
  C213     1.0000 0.94360  0.61490  0.87790  Biso   1.000  C
  H141     1.0000 0.92380  0.61560  0.83770  Biso   1.000  H
  C214     1.0000 0.71360  0.71450  0.67590  Biso   1.000  C
  H142     1.0000 0.67370  0.68780  0.65420  Biso   1.000  H
  C215     1.0000 0.80250  0.80080  0.68300  Biso   1.000  C
  H143     1.0000 0.82520  0.83150  0.66670  Biso   1.000  H
  C216     1.0000 0.82710  0.79080  0.74170  Biso   1.000  C
  H144     1.0000 0.86630  0.81810  0.76450  Biso   1.000  H
  N61      1.0000 0.79540  0.97030  0.41630  Biso   1.000  N
  N62      1.0000 0.43920  0.61830  0.40970  Biso   1.000  N
  N63      1.0000 0.80030  0.74590  0.76850  Biso   1.000  N
  N64      1.0000 0.73700  0.82290  0.56030  Biso   1.000  N
  N65      1.0000 0.64760  0.79010  0.47020  Biso   1.000  N
  N66      1.0000 0.65210  0.73450  0.55680  Biso   1.000  N
  N67      1.0000 0.91330  0.65590  0.90530  Biso   1.000  N
  N68      1.0000 0.27930  0.31280  0.92050  Biso   1.000  N
  N69      1.0000 0.27450  0.53000  0.26930  Biso   1.000  N
  N70      1.0000 0.12260  0.53770  0.05630  Biso   1.000  N
  N71      1.0000 0.12480  0.48700  0.97090  Biso   1.000  N
  N72      1.0000 0.21000  0.45070  0.06220  Biso   1.000  N
  Ag13     1.0000 0.65577  0.54357  0.13345  Biso   1.000  Ag
  Ag14     1.0000 0.67883  0.24301  0.63374  Biso   1.000  Ag
  C217     1.0000 0.40260  0.02840  0.50170  Biso   1.000  C
  C218     1.0000 0.96780  0.19080  0.09140  Biso   1.000  C
  H145     1.0000 0.94650  0.21210  0.11290  Biso   1.000  H
  C219     1.0000 0.87710  0.24430  0.00050  Biso   1.000  C
  C220     1.0000 0.94040  0.20050  0.03270  Biso   1.000  C
  C221     1.0000 0.70230  0.41660  0.99630  Biso   1.000  C
  H146     1.0000 0.68030  0.41290  0.95610  Biso   1.000  H
  C222     1.0000 0.55600  0.15470  0.53730  Biso   1.000  C
  H147     1.0000 0.57570  0.18240  0.51700  Biso   1.000  H
  C223     1.0000 0.49670  0.11520  0.50610  Biso   1.000  C
  H148     1.0000 0.47670  0.11710  0.46580  Biso   1.000  H
  C224     1.0000 0.31950  0.94770  0.49580  Biso   1.000  C
  C225     1.0000 0.46730  0.07250  0.53560  Biso   1.000  C
  C226     1.0000 0.27990  0.84780  0.60940  Biso   1.000  C
  H149     1.0000 0.29950  0.84350  0.64950  Biso   1.000  H
  C227     1.0000 0.22370  0.86100  0.49190  Biso   1.000  C
  H150     1.0000 0.20340  0.86390  0.45170  Biso   1.000  H
  C228     1.0000 0.79030  0.27470  0.91450  Biso   1.000  C
  C229     1.0000 0.75770  0.26340  0.85100  Biso   1.000  C
  C230     1.0000 0.76450  0.43570  0.11280  Biso   1.000  C
  H151     1.0000 0.78580  0.44240  0.15270  Biso   1.000  H
  C231     1.0000 0.28810  0.00860  0.35000  Biso   1.000  C
  C232     1.0000 0.76500  0.37900  0.02770  Biso   1.000  C
  C233     1.0000 0.28630  0.89870  0.52500  Biso   1.000  C
  C234     1.0000 0.97480  0.16600  0.00270  Biso   1.000  C
  H152     1.0000 0.95780  0.16980  0.96260  Biso   1.000  H
  C235     1.0000 0.79620  0.39060  0.08660  Biso   1.000  C
  H153     1.0000 0.83820  0.36820  0.10850  Biso   1.000  H
  C236     1.0000 0.32160  0.04440  0.32180  Biso   1.000  C
  H154     1.0000 0.36540  0.06260  0.34220  Biso   1.000  H
  C237     1.0000 0.32020  0.99840  0.41390  Biso   1.000  C
  C238     1.0000 0.79490  0.32850  0.99700  Biso   1.000  C
  C239     1.0000 0.67520  0.45900  0.02740  Biso   1.000  C
  H155     1.0000 0.63280  0.48130  0.00710  Biso   1.000  H
  C240     1.0000 0.19390  0.81920  0.52240  Biso   1.000  C
  H156     1.0000 0.15270  0.79450  0.50130  Biso   1.000  H
  C241     1.0000 0.31380  0.89050  0.58330  Biso   1.000  C
  H157     1.0000 0.35540  0.91340  0.60580  Biso   1.000  H
  C242     1.0000 0.03290  0.12730  0.03340  Biso   1.000  C
  H158     1.0000 0.05510  0.10520  0.01290  Biso   1.000  H
  C243     1.0000 0.49890  0.07240  0.59520  Biso   1.000  C
  H159     1.0000 0.48110  0.04380  0.61660  Biso   1.000  H
  C244     1.0000 0.02750  0.14880  0.11850  Biso   1.000  C
  H160     1.0000 0.04510  0.14180  0.15840  Biso   1.000  H
  C245     1.0000 0.28870  0.05300  0.26190  Biso   1.000  C
  H161     1.0000 0.31210  0.07600  0.24280  Biso   1.000  H
  C246     1.0000 0.19510  0.99500  0.25940  Biso   1.000  C
  H162     1.0000 0.15140  0.97670  0.23810  Biso   1.000  H
  C247     1.0000 0.75550  0.20580  0.76560  Biso   1.000  C
  H163     1.0000 0.77390  0.17040  0.74830  Biso   1.000  H
  C248     1.0000 0.22290  0.98310  0.31900  Biso   1.000  C
  H164     1.0000 0.19860  0.95920  0.33710  Biso   1.000  H
  C249     1.0000 0.55640  0.11490  0.62210  Biso   1.000  C
  H165     1.0000 0.57620  0.11560  0.66230  Biso   1.000  H
  C250     1.0000 0.78640  0.21450  0.82410  Biso   1.000  C
  H166     1.0000 0.82630  0.18780  0.84580  Biso   1.000  H
  C251     1.0000 0.69750  0.30080  0.81700  Biso   1.000  C
  H167     1.0000 0.67480  0.33150  0.83330  Biso   1.000  H
  C252     1.0000 0.67290  0.29080  0.75830  Biso   1.000  C
  H168     1.0000 0.63370  0.31810  0.73550  Biso   1.000  H
  N73      1.0000 0.70460  0.47030  0.08370  Biso   1.000  N
  N74      1.0000 0.06080  0.11830  0.09030  Biso   1.000  N
  N75      1.0000 0.69970  0.24590  0.73150  Biso   1.000  N
  N76      1.0000 0.76300  0.32290  0.93970  Biso   1.000  N
  N77      1.0000 0.85240  0.29010  0.02980  Biso   1.000  N
  N78      1.0000 0.84790  0.23450  0.94320  Biso   1.000  N
  N79      1.0000 0.58670  0.15590  0.59470  Biso   1.000  N
  N80      1.0000 0.22070  0.81280  0.57950  Biso   1.000  N
  N81      1.0000 0.22550  0.03000  0.23070  Biso   1.000  N
  N82      1.0000 0.37740  0.03770  0.44370  Biso   1.000  N
  N83      1.0000 0.37520  0.98700  0.52910  Biso   1.000  N
  N84      1.0000 0.29000  0.95070  0.43780  Biso   1.000  N
  Ag15     1.0000 0.15577  0.04357  0.13345  Biso   1.000  Ag
  Ag16     1.0000 0.17883  0.74301  0.63374  Biso   1.000  Ag
  C253     1.0000 0.90260  0.52840  0.50170  Biso   1.000  C
  C254     1.0000 0.46780  0.69080  0.09140  Biso   1.000  C
  H169     1.0000 0.44650  0.71210  0.11290  Biso   1.000  H
  C255     1.0000 0.37710  0.74430  0.00050  Biso   1.000  C
  C256     1.0000 0.44040  0.70050  0.03270  Biso   1.000  C
  C257     1.0000 0.20230  0.91660  0.99630  Biso   1.000  C
  H170     1.0000 0.18030  0.91290  0.95610  Biso   1.000  H
  C258     1.0000 0.05600  0.65470  0.53730  Biso   1.000  C
  H171     1.0000 0.07570  0.68240  0.51700  Biso   1.000  H
  C259     1.0000 0.99670  0.61520  0.50610  Biso   1.000  C
  H172     1.0000 0.97670  0.61710  0.46580  Biso   1.000  H
  C260     1.0000 0.81950  0.44770  0.49580  Biso   1.000  C
  C261     1.0000 0.96730  0.57250  0.53560  Biso   1.000  C
  C262     1.0000 0.77990  0.34780  0.60940  Biso   1.000  C
  H173     1.0000 0.79950  0.34350  0.64950  Biso   1.000  H
  C263     1.0000 0.72370  0.36100  0.49190  Biso   1.000  C
  H174     1.0000 0.70340  0.36390  0.45170  Biso   1.000  H
  C264     1.0000 0.29030  0.77470  0.91450  Biso   1.000  C
  C265     1.0000 0.25770  0.76340  0.85100  Biso   1.000  C
  C266     1.0000 0.26450  0.93570  0.11280  Biso   1.000  C
  H175     1.0000 0.28580  0.94240  0.15270  Biso   1.000  H
  C267     1.0000 0.78810  0.50860  0.35000  Biso   1.000  C
  C268     1.0000 0.26500  0.87900  0.02770  Biso   1.000  C
  C269     1.0000 0.78630  0.39870  0.52500  Biso   1.000  C
  C270     1.0000 0.47480  0.66600  0.00270  Biso   1.000  C
  H176     1.0000 0.45780  0.66980  0.96260  Biso   1.000  H
  C271     1.0000 0.29620  0.89060  0.08660  Biso   1.000  C
  H177     1.0000 0.33820  0.86820  0.10850  Biso   1.000  H
  C272     1.0000 0.82160  0.54440  0.32180  Biso   1.000  C
  H178     1.0000 0.86540  0.56260  0.34220  Biso   1.000  H
  C273     1.0000 0.82020  0.49840  0.41390  Biso   1.000  C
  C274     1.0000 0.29490  0.82850  0.99700  Biso   1.000  C
  C275     1.0000 0.17520  0.95900  0.02740  Biso   1.000  C
  H179     1.0000 0.13280  0.98130  0.00710  Biso   1.000  H
  C276     1.0000 0.69390  0.31920  0.52240  Biso   1.000  C
  H180     1.0000 0.65270  0.29450  0.50130  Biso   1.000  H
  C277     1.0000 0.81380  0.39050  0.58330  Biso   1.000  C
  H181     1.0000 0.85540  0.41340  0.60580  Biso   1.000  H
  C278     1.0000 0.53290  0.62730  0.03340  Biso   1.000  C
  H182     1.0000 0.55510  0.60520  0.01290  Biso   1.000  H
  C279     1.0000 0.99890  0.57240  0.59520  Biso   1.000  C
  H183     1.0000 0.98110  0.54380  0.61660  Biso   1.000  H
  C280     1.0000 0.52750  0.64880  0.11850  Biso   1.000  C
  H184     1.0000 0.54510  0.64180  0.15840  Biso   1.000  H
  C281     1.0000 0.78870  0.55300  0.26190  Biso   1.000  C
  H185     1.0000 0.81210  0.57600  0.24280  Biso   1.000  H
  C282     1.0000 0.69510  0.49500  0.25940  Biso   1.000  C
  H186     1.0000 0.65140  0.47670  0.23810  Biso   1.000  H
  C283     1.0000 0.25550  0.70580  0.76560  Biso   1.000  C
  H187     1.0000 0.27390  0.67040  0.74830  Biso   1.000  H
  C284     1.0000 0.72290  0.48310  0.31900  Biso   1.000  C
  H188     1.0000 0.69860  0.45920  0.33710  Biso   1.000  H
  C285     1.0000 0.05640  0.61490  0.62210  Biso   1.000  C
  H189     1.0000 0.07620  0.61560  0.66230  Biso   1.000  H
  C286     1.0000 0.28640  0.71450  0.82410  Biso   1.000  C
  H190     1.0000 0.32630  0.68780  0.84580  Biso   1.000  H
  C287     1.0000 0.19750  0.80080  0.81700  Biso   1.000  C
  H191     1.0000 0.17480  0.83150  0.83330  Biso   1.000  H
  C288     1.0000 0.17290  0.79080  0.75830  Biso   1.000  C
  H192     1.0000 0.13370  0.81810  0.73550  Biso   1.000  H
  N85      1.0000 0.20460  0.97030  0.08370  Biso   1.000  N
  N86      1.0000 0.56080  0.61830  0.09030  Biso   1.000  N
  N87      1.0000 0.19970  0.74590  0.73150  Biso   1.000  N
  N88      1.0000 0.26300  0.82290  0.93970  Biso   1.000  N
  N89      1.0000 0.35240  0.79010  0.02980  Biso   1.000  N
  N90      1.0000 0.34790  0.73450  0.94320  Biso   1.000  N
  N91      1.0000 0.08670  0.65590  0.59470  Biso   1.000  N
  N92      1.0000 0.72070  0.31280  0.57950  Biso   1.000  N
  N93      1.0000 0.72550  0.53000  0.23070  Biso   1.000  N
  N94      1.0000 0.87740  0.53770  0.44370  Biso   1.000  N
  N95      1.0000 0.87520  0.48700  0.52910  Biso   1.000  N
  N96      1.0000 0.79000  0.45070  0.43780  Biso   1.000  N
