data_image0
_cell_length_a       22.06
_cell_length_b       16.3472
_cell_length_c       25.677
_cell_angle_alpha    90
_cell_angle_beta     115.392
_cell_angle_gamma    90

_symmetry_space_group_name_H-M    "P 1"
_symmetry_int_tables_number       1

loop_
  _symmetry_equiv_pos_as_xyz
  'x, y, z'

loop_
  _atom_site_label
  _atom_site_occupancy
  _atom_site_fract_x
  _atom_site_fract_y
  _atom_site_fract_z
  _atom_site_thermal_displace_type
  _atom_site_B_iso_or_equiv
  _atom_site_type_symbol
  Ag1      1.0000 0.34370  0.04236  0.36783  Biso   1.000  Ag
  N1       1.0000 0.43914  0.11500  0.41198  Biso   1.000  N
  N2       1.0000 0.79628  0.46908  0.41715  Biso   1.000  N
  N3       1.0000 0.27458  0.02700  0.27197  Biso   1.000  N
  C1       1.0000 0.46659  0.12370  0.46983  Biso   1.000  C
  C2       1.0000 0.47336  0.14550  0.38451  Biso   1.000  C
  C3       1.0000 0.52626  0.16400  0.50017  Biso   1.000  C
  H1       1.0000 0.44420  0.10160  0.49010  Biso   1.000  H
  C4       1.0000 0.53309  0.18840  0.41143  Biso   1.000  C
  H2       1.0000 0.45620  0.13760  0.34490  Biso   1.000  H
  C5       1.0000 0.55995  0.19780  0.47058  Biso   1.000  C
  H3       1.0000 0.54380  0.16850  0.54010  Biso   1.000  H
  H4       1.0000 0.55450  0.21020  0.39030  Biso   1.000  H
  C6       1.0000 0.62415  0.24300  0.50266  Biso   1.000  C
  N4       1.0000 0.64795  0.28910  0.47297  Biso   1.000  N
  N5       1.0000 0.65326  0.23140  0.55986  Biso   1.000  N
  C7       1.0000 0.70614  0.32740  0.50561  Biso   1.000  C
  C8       1.0000 0.70980  0.27350  0.58774  Biso   1.000  C
  C9       1.0000 0.73629  0.37780  0.47503  Biso   1.000  C
  N6       1.0000 0.73850  0.32277  0.56330  Biso   1.000  N
  C10      1.0000 0.74292  0.26330  0.65184  Biso   1.000  C
  C11      1.0000 0.79854  0.41590  0.50537  Biso   1.000  C
  C12      1.0000 0.70468  0.38880  0.41552  Biso   1.000  C
  C13      1.0000 0.71527  0.21180  0.67860  Biso   1.000  C
  C14      1.0000 0.80145  0.30550  0.68546  Biso   1.000  C
  H5       1.0000 0.82080  0.41210  0.54530  Biso   1.000  H
  C15      1.0000 0.82601  0.45920  0.47437  Biso   1.000  C
  C16      1.0000 0.73576  0.43320  0.38850  Biso   1.000  C
  H6       1.0000 0.66260  0.36610  0.39410  Biso   1.000  H
  H7       1.0000 0.67730  0.18110  0.65690  Biso   1.000  H
  C17      1.0000 0.74494  0.20680  0.73787  Biso   1.000  C
  C18      1.0000 0.82680  0.29710  0.74475  Biso   1.000  C
  H8       1.0000 0.82280  0.33820  0.66880  Biso   1.000  H
  H9       1.0000 0.86790  0.48310  0.49470  Biso   1.000  H
  H10      1.0000 0.71410  0.43880  0.34860  Biso   1.000  H
  H11      1.0000 0.72630  0.17140  0.75540  Biso   1.000  H
  N7       1.0000 0.79922  0.25030  0.77162  Biso   1.000  N
  H12      1.0000 0.86560  0.32590  0.76740  Biso   1.000  H
  Ag2      1.0000 0.82292  0.25016  0.86749  Biso   1.000  Ag
  N8       1.0000 0.91278  0.15970  0.90782  Biso   1.000  N
  N9       1.0000 0.27981  0.81458  0.92177  Biso   1.000  N
  C19      1.0000 0.94293  0.15770  0.96580  Biso   1.000  C
  C20      1.0000 0.94299  0.11900  0.87972  Biso   1.000  C
  C21      1.0000 0.00229  0.11720  0.99677  Biso   1.000  C
  H13      1.0000 0.92260  0.18500  0.98590  Biso   1.000  H
  C22      1.0000 0.00189  0.07510  0.90760  Biso   1.000  C
  H14      1.0000 0.92330  0.12040  0.83960  Biso   1.000  H
  H15      1.0000 0.02190  0.11800  0.03690  Biso   1.000  H
  C23      1.0000 0.03250  0.07520  0.96725  Biso   1.000  C
  H16      1.0000 0.02040  0.04620  0.88670  Biso   1.000  H
  C24      1.0000 0.09719  0.03080  0.00141  Biso   1.000  C
  N10      1.0000 0.12602  0.99040  0.97325  Biso   1.000  N
  N11      1.0000 0.12166  0.03776  0.05930  Biso   1.000  N
  C25      1.0000 0.18197  0.94930  0.00724  Biso   1.000  C
  C26      1.0000 0.17946  0.99790  0.08865  Biso   1.000  C
  C27      1.0000 0.21506  0.90000  0.97804  Biso   1.000  C
  N12      1.0000 0.21071  0.95090  0.06479  Biso   1.000  N
  C28      1.0000 0.21098  0.00730  0.15224  Biso   1.000  C
  C29      1.0000 0.27766  0.86260  0.00950  Biso   1.000  C
  C30      1.0000 0.18613  0.89190  0.91859  Biso   1.000  C
  C31      1.0000 0.17763  0.04290  0.18162  Biso   1.000  C
  C32      1.0000 0.27721  0.98180  0.18392  Biso   1.000  C
  H17      1.0000 0.29850  0.86530  0.04950  Biso   1.000  H
  C33      1.0000 0.30755  0.82170  0.97951  Biso   1.000  C
  C34      1.0000 0.21942  0.84960  0.89267  Biso   1.000  C
  H18      1.0000 0.14440  0.91490  0.89640  Biso   1.000  H
  H19      1.0000 0.13360  0.06060  0.16170  Biso   1.000  H
  C35      1.0000 0.21051  0.05160  0.24065  Biso   1.000  C
  C36      1.0000 0.30583  0.99320  0.24288  Biso   1.000  C
  H20      1.0000 0.30130  0.95790  0.16580  Biso   1.000  H
  H21      1.0000 0.34920  0.79770  0.00050  Biso   1.000  H
  H22      1.0000 0.19910  0.84500  0.85270  Biso   1.000  H
  H23      1.0000 0.18760  0.07550  0.25980  Biso   1.000  H
  H24      1.0000 0.35000  0.97610  0.26380  Biso   1.000  H
  Ag3      1.0000 0.84370  0.54236  0.36783  Biso   1.000  Ag
  N13      1.0000 0.93914  0.61500  0.41198  Biso   1.000  N
  N14      1.0000 0.29628  0.96908  0.41715  Biso   1.000  N
  N15      1.0000 0.77458  0.52700  0.27197  Biso   1.000  N
  C37      1.0000 0.96659  0.62370  0.46983  Biso   1.000  C
  C38      1.0000 0.97336  0.64550  0.38451  Biso   1.000  C
  C39      1.0000 0.02626  0.66400  0.50017  Biso   1.000  C
  H25      1.0000 0.94420  0.60160  0.49010  Biso   1.000  H
  C40      1.0000 0.03309  0.68840  0.41143  Biso   1.000  C
  H26      1.0000 0.95620  0.63760  0.34490  Biso   1.000  H
  C41      1.0000 0.05995  0.69780  0.47058  Biso   1.000  C
  H27      1.0000 0.04380  0.66850  0.54010  Biso   1.000  H
  H28      1.0000 0.05450  0.71020  0.39030  Biso   1.000  H
  C42      1.0000 0.12415  0.74300  0.50266  Biso   1.000  C
  N16      1.0000 0.14795  0.78910  0.47297  Biso   1.000  N
  N17      1.0000 0.15326  0.73140  0.55986  Biso   1.000  N
  C43      1.0000 0.20614  0.82740  0.50561  Biso   1.000  C
  C44      1.0000 0.20980  0.77350  0.58774  Biso   1.000  C
  C45      1.0000 0.23629  0.87780  0.47503  Biso   1.000  C
  N18      1.0000 0.23850  0.82277  0.56330  Biso   1.000  N
  C46      1.0000 0.24292  0.76330  0.65184  Biso   1.000  C
  C47      1.0000 0.29854  0.91590  0.50537  Biso   1.000  C
  C48      1.0000 0.20468  0.88880  0.41552  Biso   1.000  C
  C49      1.0000 0.21527  0.71180  0.67860  Biso   1.000  C
  C50      1.0000 0.30145  0.80550  0.68546  Biso   1.000  C
  H29      1.0000 0.32080  0.91210  0.54530  Biso   1.000  H
  C51      1.0000 0.32601  0.95920  0.47437  Biso   1.000  C
  C52      1.0000 0.23576  0.93320  0.38850  Biso   1.000  C
  H30      1.0000 0.16260  0.86610  0.39410  Biso   1.000  H
  H31      1.0000 0.17730  0.68110  0.65690  Biso   1.000  H
  C53      1.0000 0.24494  0.70680  0.73787  Biso   1.000  C
  C54      1.0000 0.32680  0.79710  0.74475  Biso   1.000  C
  H32      1.0000 0.32280  0.83820  0.66880  Biso   1.000  H
  H33      1.0000 0.36790  0.98310  0.49470  Biso   1.000  H
  H34      1.0000 0.21410  0.93880  0.34860  Biso   1.000  H
  H35      1.0000 0.22630  0.67140  0.75540  Biso   1.000  H
  N19      1.0000 0.29922  0.75030  0.77162  Biso   1.000  N
  H36      1.0000 0.36560  0.82590  0.76740  Biso   1.000  H
  Ag4      1.0000 0.32292  0.75016  0.86749  Biso   1.000  Ag
  N20      1.0000 0.41278  0.65970  0.90782  Biso   1.000  N
  N21      1.0000 0.77981  0.31458  0.92177  Biso   1.000  N
  C55      1.0000 0.44293  0.65770  0.96580  Biso   1.000  C
  C56      1.0000 0.44299  0.61900  0.87972  Biso   1.000  C
  C57      1.0000 0.50229  0.61720  0.99677  Biso   1.000  C
  H37      1.0000 0.42260  0.68500  0.98590  Biso   1.000  H
  C58      1.0000 0.50189  0.57510  0.90760  Biso   1.000  C
  H38      1.0000 0.42330  0.62040  0.83960  Biso   1.000  H
  H39      1.0000 0.52190  0.61800  0.03690  Biso   1.000  H
  C59      1.0000 0.53250  0.57520  0.96725  Biso   1.000  C
  H40      1.0000 0.52040  0.54620  0.88670  Biso   1.000  H
  C60      1.0000 0.59719  0.53080  0.00141  Biso   1.000  C
  N22      1.0000 0.62602  0.49040  0.97325  Biso   1.000  N
  N23      1.0000 0.62166  0.53776  0.05930  Biso   1.000  N
  C61      1.0000 0.68197  0.44930  0.00724  Biso   1.000  C
  C62      1.0000 0.67946  0.49790  0.08865  Biso   1.000  C
  C63      1.0000 0.71506  0.40000  0.97804  Biso   1.000  C
  N24      1.0000 0.71071  0.45090  0.06479  Biso   1.000  N
  C64      1.0000 0.71098  0.50730  0.15224  Biso   1.000  C
  C65      1.0000 0.77766  0.36260  0.00950  Biso   1.000  C
  C66      1.0000 0.68613  0.39190  0.91859  Biso   1.000  C
  C67      1.0000 0.67763  0.54290  0.18162  Biso   1.000  C
  C68      1.0000 0.77721  0.48180  0.18392  Biso   1.000  C
  H41      1.0000 0.79850  0.36530  0.04950  Biso   1.000  H
  C69      1.0000 0.80755  0.32170  0.97951  Biso   1.000  C
  C70      1.0000 0.71942  0.34960  0.89267  Biso   1.000  C
  H42      1.0000 0.64440  0.41490  0.89640  Biso   1.000  H
  H43      1.0000 0.63360  0.56060  0.16170  Biso   1.000  H
  C71      1.0000 0.71051  0.55160  0.24065  Biso   1.000  C
  C72      1.0000 0.80583  0.49320  0.24288  Biso   1.000  C
  H44      1.0000 0.80130  0.45790  0.16580  Biso   1.000  H
  H45      1.0000 0.84920  0.29770  0.00050  Biso   1.000  H
  H46      1.0000 0.69910  0.34500  0.85270  Biso   1.000  H
  H47      1.0000 0.68760  0.57550  0.25980  Biso   1.000  H
  H48      1.0000 0.85000  0.47610  0.26380  Biso   1.000  H
  Ag5      1.0000 0.65630  0.04236  0.13217  Biso   1.000  Ag
  N25      1.0000 0.56086  0.11500  0.08802  Biso   1.000  N
  N26      1.0000 0.20372  0.46908  0.08285  Biso   1.000  N
  N27      1.0000 0.72542  0.02700  0.22803  Biso   1.000  N
  C73      1.0000 0.53341  0.12370  0.03017  Biso   1.000  C
  C74      1.0000 0.52664  0.14550  0.11549  Biso   1.000  C
  C75      1.0000 0.47374  0.16400  0.99983  Biso   1.000  C
  H49      1.0000 0.55580  0.10160  0.00990  Biso   1.000  H
  C76      1.0000 0.46691  0.18840  0.08857  Biso   1.000  C
  H50      1.0000 0.54380  0.13760  0.15510  Biso   1.000  H
  C77      1.0000 0.44005  0.19780  0.02942  Biso   1.000  C
  H51      1.0000 0.45620  0.16850  0.95990  Biso   1.000  H
  H52      1.0000 0.44550  0.21020  0.10970  Biso   1.000  H
  C78      1.0000 0.37585  0.24300  0.99734  Biso   1.000  C
  N28      1.0000 0.35205  0.28910  0.02703  Biso   1.000  N
  N29      1.0000 0.34674  0.23140  0.94014  Biso   1.000  N
  C79      1.0000 0.29386  0.32740  0.99439  Biso   1.000  C
  C80      1.0000 0.29020  0.27350  0.91226  Biso   1.000  C
  C81      1.0000 0.26371  0.37780  0.02497  Biso   1.000  C
  N30      1.0000 0.26150  0.32277  0.93670  Biso   1.000  N
  C82      1.0000 0.25708  0.26330  0.84816  Biso   1.000  C
  C83      1.0000 0.20146  0.41590  0.99463  Biso   1.000  C
  C84      1.0000 0.29532  0.38880  0.08448  Biso   1.000  C
  C85      1.0000 0.28473  0.21180  0.82140  Biso   1.000  C
  C86      1.0000 0.19855  0.30550  0.81454  Biso   1.000  C
  H53      1.0000 0.17920  0.41210  0.95470  Biso   1.000  H
  C87      1.0000 0.17399  0.45920  0.02563  Biso   1.000  C
  C88      1.0000 0.26424  0.43320  0.11150  Biso   1.000  C
  H54      1.0000 0.33740  0.36610  0.10590  Biso   1.000  H
  H55      1.0000 0.32270  0.18110  0.84310  Biso   1.000  H
  C89      1.0000 0.25506  0.20680  0.76213  Biso   1.000  C
  C90      1.0000 0.17320  0.29710  0.75525  Biso   1.000  C
  H56      1.0000 0.17720  0.33820  0.83120  Biso   1.000  H
  H57      1.0000 0.13210  0.48310  0.00530  Biso   1.000  H
  H58      1.0000 0.28590  0.43880  0.15140  Biso   1.000  H
  H59      1.0000 0.27370  0.17140  0.74460  Biso   1.000  H
  N31      1.0000 0.20078  0.25030  0.72838  Biso   1.000  N
  H60      1.0000 0.13440  0.32590  0.73260  Biso   1.000  H
  Ag6      1.0000 0.17708  0.25016  0.63251  Biso   1.000  Ag
  N32      1.0000 0.08722  0.15970  0.59218  Biso   1.000  N
  N33      1.0000 0.72019  0.81458  0.57823  Biso   1.000  N
  C91      1.0000 0.05707  0.15770  0.53420  Biso   1.000  C
  C92      1.0000 0.05701  0.11900  0.62028  Biso   1.000  C
  C93      1.0000 0.99771  0.11720  0.50323  Biso   1.000  C
  H61      1.0000 0.07740  0.18500  0.51410  Biso   1.000  H
  C94      1.0000 0.99811  0.07510  0.59240  Biso   1.000  C
  H62      1.0000 0.07670  0.12040  0.66040  Biso   1.000  H
  H63      1.0000 0.97810  0.11800  0.46310  Biso   1.000  H
  C95      1.0000 0.96750  0.07520  0.53275  Biso   1.000  C
  H64      1.0000 0.97960  0.04620  0.61330  Biso   1.000  H
  C96      1.0000 0.90281  0.03080  0.49859  Biso   1.000  C
  N34      1.0000 0.87398  0.99040  0.52675  Biso   1.000  N
  N35      1.0000 0.87834  0.03776  0.44070  Biso   1.000  N
  C97      1.0000 0.81803  0.94930  0.49276  Biso   1.000  C
  C98      1.0000 0.82054  0.99790  0.41135  Biso   1.000  C
  C99      1.0000 0.78494  0.90000  0.52196  Biso   1.000  C
  N36      1.0000 0.78929  0.95090  0.43521  Biso   1.000  N
  C100     1.0000 0.78902  0.00730  0.34776  Biso   1.000  C
  C101     1.0000 0.72234  0.86260  0.49050  Biso   1.000  C
  C102     1.0000 0.81387  0.89190  0.58141  Biso   1.000  C
  C103     1.0000 0.82237  0.04290  0.31838  Biso   1.000  C
  C104     1.0000 0.72279  0.98180  0.31608  Biso   1.000  C
  H65      1.0000 0.70150  0.86530  0.45050  Biso   1.000  H
  C105     1.0000 0.69245  0.82170  0.52049  Biso   1.000  C
  C106     1.0000 0.78058  0.84960  0.60733  Biso   1.000  C
  H66      1.0000 0.85560  0.91490  0.60360  Biso   1.000  H
  H67      1.0000 0.86640  0.06060  0.33830  Biso   1.000  H
  C107     1.0000 0.78949  0.05160  0.25935  Biso   1.000  C
  C108     1.0000 0.69417  0.99320  0.25712  Biso   1.000  C
  H68      1.0000 0.69870  0.95790  0.33420  Biso   1.000  H
  H69      1.0000 0.65080  0.79770  0.49950  Biso   1.000  H
  H70      1.0000 0.80090  0.84500  0.64730  Biso   1.000  H
  H71      1.0000 0.81240  0.07550  0.24020  Biso   1.000  H
  H72      1.0000 0.65000  0.97610  0.23620  Biso   1.000  H
  Ag7      1.0000 0.15630  0.54236  0.13217  Biso   1.000  Ag
  N37      1.0000 0.06086  0.61500  0.08802  Biso   1.000  N
  N38      1.0000 0.70372  0.96908  0.08285  Biso   1.000  N
  N39      1.0000 0.22542  0.52700  0.22803  Biso   1.000  N
  C109     1.0000 0.03341  0.62370  0.03017  Biso   1.000  C
  C110     1.0000 0.02664  0.64550  0.11549  Biso   1.000  C
  C111     1.0000 0.97374  0.66400  0.99983  Biso   1.000  C
  H73      1.0000 0.05580  0.60160  0.00990  Biso   1.000  H
  C112     1.0000 0.96691  0.68840  0.08857  Biso   1.000  C
  H74      1.0000 0.04380  0.63760  0.15510  Biso   1.000  H
  C113     1.0000 0.94005  0.69780  0.02942  Biso   1.000  C
  H75      1.0000 0.95620  0.66850  0.95990  Biso   1.000  H
  H76      1.0000 0.94550  0.71020  0.10970  Biso   1.000  H
  C114     1.0000 0.87585  0.74300  0.99734  Biso   1.000  C
  N40      1.0000 0.85205  0.78910  0.02703  Biso   1.000  N
  N41      1.0000 0.84674  0.73140  0.94014  Biso   1.000  N
  C115     1.0000 0.79386  0.82740  0.99439  Biso   1.000  C
  C116     1.0000 0.79020  0.77350  0.91226  Biso   1.000  C
  C117     1.0000 0.76371  0.87780  0.02497  Biso   1.000  C
  N42      1.0000 0.76150  0.82277  0.93670  Biso   1.000  N
  C118     1.0000 0.75708  0.76330  0.84816  Biso   1.000  C
  C119     1.0000 0.70146  0.91590  0.99463  Biso   1.000  C
  C120     1.0000 0.79532  0.88880  0.08448  Biso   1.000  C
  C121     1.0000 0.78473  0.71180  0.82140  Biso   1.000  C
  C122     1.0000 0.69855  0.80550  0.81454  Biso   1.000  C
  H77      1.0000 0.67920  0.91210  0.95470  Biso   1.000  H
  C123     1.0000 0.67399  0.95920  0.02563  Biso   1.000  C
  C124     1.0000 0.76424  0.93320  0.11150  Biso   1.000  C
  H78      1.0000 0.83740  0.86610  0.10590  Biso   1.000  H
  H79      1.0000 0.82270  0.68110  0.84310  Biso   1.000  H
  C125     1.0000 0.75506  0.70680  0.76213  Biso   1.000  C
  C126     1.0000 0.67320  0.79710  0.75525  Biso   1.000  C
  H80      1.0000 0.67720  0.83820  0.83120  Biso   1.000  H
  H81      1.0000 0.63210  0.98310  0.00530  Biso   1.000  H
  H82      1.0000 0.78590  0.93880  0.15140  Biso   1.000  H
  H83      1.0000 0.77370  0.67140  0.74460  Biso   1.000  H
  N43      1.0000 0.70078  0.75030  0.72838  Biso   1.000  N
  H84      1.0000 0.63440  0.82590  0.73260  Biso   1.000  H
  Ag8      1.0000 0.67708  0.75016  0.63251  Biso   1.000  Ag
  N44      1.0000 0.58722  0.65970  0.59218  Biso   1.000  N
  N45      1.0000 0.22019  0.31458  0.57823  Biso   1.000  N
  C127     1.0000 0.55707  0.65770  0.53420  Biso   1.000  C
  C128     1.0000 0.55701  0.61900  0.62028  Biso   1.000  C
  C129     1.0000 0.49771  0.61720  0.50323  Biso   1.000  C
  H85      1.0000 0.57740  0.68500  0.51410  Biso   1.000  H
  C130     1.0000 0.49811  0.57510  0.59240  Biso   1.000  C
  H86      1.0000 0.57670  0.62040  0.66040  Biso   1.000  H
  H87      1.0000 0.47810  0.61800  0.46310  Biso   1.000  H
  C131     1.0000 0.46750  0.57520  0.53275  Biso   1.000  C
  H88      1.0000 0.47960  0.54620  0.61330  Biso   1.000  H
  C132     1.0000 0.40281  0.53080  0.49859  Biso   1.000  C
  N46      1.0000 0.37398  0.49040  0.52675  Biso   1.000  N
  N47      1.0000 0.37834  0.53776  0.44070  Biso   1.000  N
  C133     1.0000 0.31803  0.44930  0.49276  Biso   1.000  C
  C134     1.0000 0.32054  0.49790  0.41135  Biso   1.000  C
  C135     1.0000 0.28494  0.40000  0.52196  Biso   1.000  C
  N48      1.0000 0.28929  0.45090  0.43521  Biso   1.000  N
  C136     1.0000 0.28902  0.50730  0.34776  Biso   1.000  C
  C137     1.0000 0.22234  0.36260  0.49050  Biso   1.000  C
  C138     1.0000 0.31387  0.39190  0.58141  Biso   1.000  C
  C139     1.0000 0.32237  0.54290  0.31838  Biso   1.000  C
  C140     1.0000 0.22279  0.48180  0.31608  Biso   1.000  C
  H89      1.0000 0.20150  0.36530  0.45050  Biso   1.000  H
  C141     1.0000 0.19245  0.32170  0.52049  Biso   1.000  C
  C142     1.0000 0.28058  0.34960  0.60733  Biso   1.000  C
  H90      1.0000 0.35560  0.41490  0.60360  Biso   1.000  H
  H91      1.0000 0.36640  0.56060  0.33830  Biso   1.000  H
  C143     1.0000 0.28949  0.55160  0.25935  Biso   1.000  C
  C144     1.0000 0.19417  0.49320  0.25712  Biso   1.000  C
  H92      1.0000 0.19870  0.45790  0.33420  Biso   1.000  H
  H93      1.0000 0.15080  0.29770  0.49950  Biso   1.000  H
  H94      1.0000 0.30090  0.34500  0.64730  Biso   1.000  H
  H95      1.0000 0.31240  0.57550  0.24020  Biso   1.000  H
  H96      1.0000 0.15000  0.47610  0.23620  Biso   1.000  H
  Ag9      1.0000 0.65630  0.95764  0.63217  Biso   1.000  Ag
  N49      1.0000 0.56086  0.88500  0.58802  Biso   1.000  N
  N50      1.0000 0.20372  0.53092  0.58285  Biso   1.000  N
  N51      1.0000 0.72542  0.97300  0.72803  Biso   1.000  N
  C145     1.0000 0.53341  0.87630  0.53017  Biso   1.000  C
  C146     1.0000 0.52664  0.85450  0.61549  Biso   1.000  C
  C147     1.0000 0.47374  0.83600  0.49983  Biso   1.000  C
  H97      1.0000 0.55580  0.89840  0.50990  Biso   1.000  H
  C148     1.0000 0.46691  0.81160  0.58857  Biso   1.000  C
  H98      1.0000 0.54380  0.86240  0.65510  Biso   1.000  H
  C149     1.0000 0.44005  0.80220  0.52942  Biso   1.000  C
  H99      1.0000 0.45620  0.83150  0.45990  Biso   1.000  H
  H100     1.0000 0.44550  0.78980  0.60970  Biso   1.000  H
  C150     1.0000 0.37585  0.75700  0.49734  Biso   1.000  C
  N52      1.0000 0.35205  0.71090  0.52703  Biso   1.000  N
  N53      1.0000 0.34674  0.76860  0.44014  Biso   1.000  N
  C151     1.0000 0.29386  0.67260  0.49439  Biso   1.000  C
  C152     1.0000 0.29020  0.72650  0.41226  Biso   1.000  C
  C153     1.0000 0.26371  0.62220  0.52497  Biso   1.000  C
  N54      1.0000 0.26150  0.67723  0.43670  Biso   1.000  N
  C154     1.0000 0.25708  0.73670  0.34816  Biso   1.000  C
  C155     1.0000 0.20146  0.58410  0.49463  Biso   1.000  C
  C156     1.0000 0.29532  0.61120  0.58448  Biso   1.000  C
  C157     1.0000 0.28473  0.78820  0.32140  Biso   1.000  C
  C158     1.0000 0.19855  0.69450  0.31454  Biso   1.000  C
  H101     1.0000 0.17920  0.58790  0.45470  Biso   1.000  H
  C159     1.0000 0.17399  0.54080  0.52563  Biso   1.000  C
  C160     1.0000 0.26424  0.56680  0.61150  Biso   1.000  C
  H102     1.0000 0.33740  0.63390  0.60590  Biso   1.000  H
  H103     1.0000 0.32270  0.81890  0.34310  Biso   1.000  H
  C161     1.0000 0.25506  0.79320  0.26213  Biso   1.000  C
  C162     1.0000 0.17320  0.70290  0.25525  Biso   1.000  C
  H104     1.0000 0.17720  0.66180  0.33120  Biso   1.000  H
  H105     1.0000 0.13210  0.51690  0.50530  Biso   1.000  H
  H106     1.0000 0.28590  0.56120  0.65140  Biso   1.000  H
  H107     1.0000 0.27370  0.82860  0.24460  Biso   1.000  H
  N55      1.0000 0.20078  0.74970  0.22838  Biso   1.000  N
  H108     1.0000 0.13440  0.67410  0.23260  Biso   1.000  H
  Ag10     1.0000 0.17708  0.74984  0.13251  Biso   1.000  Ag
  N56      1.0000 0.08722  0.84030  0.09218  Biso   1.000  N
  N57      1.0000 0.72019  0.18542  0.07823  Biso   1.000  N
  C163     1.0000 0.05707  0.84230  0.03420  Biso   1.000  C
  C164     1.0000 0.05701  0.88100  0.12028  Biso   1.000  C
  C165     1.0000 0.99771  0.88280  0.00323  Biso   1.000  C
  H109     1.0000 0.07740  0.81500  0.01410  Biso   1.000  H
  C166     1.0000 0.99811  0.92490  0.09240  Biso   1.000  C
  H110     1.0000 0.07670  0.87960  0.16040  Biso   1.000  H
  H111     1.0000 0.97810  0.88200  0.96310  Biso   1.000  H
  C167     1.0000 0.96750  0.92480  0.03275  Biso   1.000  C
  H112     1.0000 0.97960  0.95380  0.11330  Biso   1.000  H
  C168     1.0000 0.90281  0.96920  0.99859  Biso   1.000  C
  N58      1.0000 0.87398  0.00960  0.02675  Biso   1.000  N
  N59      1.0000 0.87834  0.96224  0.94070  Biso   1.000  N
  C169     1.0000 0.81803  0.05070  0.99276  Biso   1.000  C
  C170     1.0000 0.82054  0.00210  0.91135  Biso   1.000  C
  C171     1.0000 0.78494  0.10000  0.02196  Biso   1.000  C
  N60      1.0000 0.78929  0.04910  0.93521  Biso   1.000  N
  C172     1.0000 0.78902  0.99270  0.84776  Biso   1.000  C
  C173     1.0000 0.72234  0.13740  0.99050  Biso   1.000  C
  C174     1.0000 0.81387  0.10810  0.08141  Biso   1.000  C
  C175     1.0000 0.82237  0.95710  0.81838  Biso   1.000  C
  C176     1.0000 0.72279  0.01820  0.81608  Biso   1.000  C
  H113     1.0000 0.70150  0.13470  0.95050  Biso   1.000  H
  C177     1.0000 0.69245  0.17830  0.02049  Biso   1.000  C
  C178     1.0000 0.78058  0.15040  0.10733  Biso   1.000  C
  H114     1.0000 0.85560  0.08510  0.10360  Biso   1.000  H
  H115     1.0000 0.86640  0.93940  0.83830  Biso   1.000  H
  C179     1.0000 0.78949  0.94840  0.75935  Biso   1.000  C
  C180     1.0000 0.69417  0.00680  0.75712  Biso   1.000  C
  H116     1.0000 0.69870  0.04210  0.83420  Biso   1.000  H
  H117     1.0000 0.65080  0.20230  0.99950  Biso   1.000  H
  H118     1.0000 0.80090  0.15500  0.14730  Biso   1.000  H
  H119     1.0000 0.81240  0.92450  0.74020  Biso   1.000  H
  H120     1.0000 0.65000  0.02390  0.73620  Biso   1.000  H
  Ag11     1.0000 0.15630  0.45764  0.63217  Biso   1.000  Ag
  N61      1.0000 0.06086  0.38500  0.58802  Biso   1.000  N
  N62      1.0000 0.70372  0.03092  0.58285  Biso   1.000  N
  N63      1.0000 0.22542  0.47300  0.72803  Biso   1.000  N
  C181     1.0000 0.03341  0.37630  0.53017  Biso   1.000  C
  C182     1.0000 0.02664  0.35450  0.61549  Biso   1.000  C
  C183     1.0000 0.97374  0.33600  0.49983  Biso   1.000  C
  H121     1.0000 0.05580  0.39840  0.50990  Biso   1.000  H
  C184     1.0000 0.96691  0.31160  0.58857  Biso   1.000  C
  H122     1.0000 0.04380  0.36240  0.65510  Biso   1.000  H
  C185     1.0000 0.94005  0.30220  0.52942  Biso   1.000  C
  H123     1.0000 0.95620  0.33150  0.45990  Biso   1.000  H
  H124     1.0000 0.94550  0.28980  0.60970  Biso   1.000  H
  C186     1.0000 0.87585  0.25700  0.49734  Biso   1.000  C
  N64      1.0000 0.85205  0.21090  0.52703  Biso   1.000  N
  N65      1.0000 0.84674  0.26860  0.44014  Biso   1.000  N
  C187     1.0000 0.79386  0.17260  0.49439  Biso   1.000  C
  C188     1.0000 0.79020  0.22650  0.41226  Biso   1.000  C
  C189     1.0000 0.76371  0.12220  0.52497  Biso   1.000  C
  N66      1.0000 0.76150  0.17723  0.43670  Biso   1.000  N
  C190     1.0000 0.75708  0.23670  0.34816  Biso   1.000  C
  C191     1.0000 0.70146  0.08410  0.49463  Biso   1.000  C
  C192     1.0000 0.79532  0.11120  0.58448  Biso   1.000  C
  C193     1.0000 0.78473  0.28820  0.32140  Biso   1.000  C
  C194     1.0000 0.69855  0.19450  0.31454  Biso   1.000  C
  H125     1.0000 0.67920  0.08790  0.45470  Biso   1.000  H
  C195     1.0000 0.67399  0.04080  0.52563  Biso   1.000  C
  C196     1.0000 0.76424  0.06680  0.61150  Biso   1.000  C
  H126     1.0000 0.83740  0.13390  0.60590  Biso   1.000  H
  H127     1.0000 0.82270  0.31890  0.34310  Biso   1.000  H
  C197     1.0000 0.75506  0.29320  0.26213  Biso   1.000  C
  C198     1.0000 0.67320  0.20290  0.25525  Biso   1.000  C
  H128     1.0000 0.67720  0.16180  0.33120  Biso   1.000  H
  H129     1.0000 0.63210  0.01690  0.50530  Biso   1.000  H
  H130     1.0000 0.78590  0.06120  0.65140  Biso   1.000  H
  H131     1.0000 0.77370  0.32860  0.24460  Biso   1.000  H
  N67      1.0000 0.70078  0.24970  0.22838  Biso   1.000  N
  H132     1.0000 0.63440  0.17410  0.23260  Biso   1.000  H
  Ag12     1.0000 0.67708  0.24984  0.13251  Biso   1.000  Ag
  N68      1.0000 0.58722  0.34030  0.09218  Biso   1.000  N
  N69      1.0000 0.22019  0.68542  0.07823  Biso   1.000  N
  C199     1.0000 0.55707  0.34230  0.03420  Biso   1.000  C
  C200     1.0000 0.55701  0.38100  0.12028  Biso   1.000  C
  C201     1.0000 0.49771  0.38280  0.00323  Biso   1.000  C
  H133     1.0000 0.57740  0.31500  0.01410  Biso   1.000  H
  C202     1.0000 0.49811  0.42490  0.09240  Biso   1.000  C
  H134     1.0000 0.57670  0.37960  0.16040  Biso   1.000  H
  H135     1.0000 0.47810  0.38200  0.96310  Biso   1.000  H
  C203     1.0000 0.46750  0.42480  0.03275  Biso   1.000  C
  H136     1.0000 0.47960  0.45380  0.11330  Biso   1.000  H
  C204     1.0000 0.40281  0.46920  0.99859  Biso   1.000  C
  N70      1.0000 0.37398  0.50960  0.02675  Biso   1.000  N
  N71      1.0000 0.37834  0.46224  0.94070  Biso   1.000  N
  C205     1.0000 0.31803  0.55070  0.99276  Biso   1.000  C
  C206     1.0000 0.32054  0.50210  0.91135  Biso   1.000  C
  C207     1.0000 0.28494  0.60000  0.02196  Biso   1.000  C
  N72      1.0000 0.28929  0.54910  0.93521  Biso   1.000  N
  C208     1.0000 0.28902  0.49270  0.84776  Biso   1.000  C
  C209     1.0000 0.22234  0.63740  0.99050  Biso   1.000  C
  C210     1.0000 0.31387  0.60810  0.08141  Biso   1.000  C
  C211     1.0000 0.32237  0.45710  0.81838  Biso   1.000  C
  C212     1.0000 0.22279  0.51820  0.81608  Biso   1.000  C
  H137     1.0000 0.20150  0.63470  0.95050  Biso   1.000  H
  C213     1.0000 0.19245  0.67830  0.02049  Biso   1.000  C
  C214     1.0000 0.28058  0.65040  0.10733  Biso   1.000  C
  H138     1.0000 0.35560  0.58510  0.10360  Biso   1.000  H
  H139     1.0000 0.36640  0.43940  0.83830  Biso   1.000  H
  C215     1.0000 0.28949  0.44840  0.75935  Biso   1.000  C
  C216     1.0000 0.19417  0.50680  0.75712  Biso   1.000  C
  H140     1.0000 0.19870  0.54210  0.83420  Biso   1.000  H
  H141     1.0000 0.15080  0.70230  0.99950  Biso   1.000  H
  H142     1.0000 0.30090  0.65500  0.14730  Biso   1.000  H
  H143     1.0000 0.31240  0.42450  0.74020  Biso   1.000  H
  H144     1.0000 0.15000  0.52390  0.73620  Biso   1.000  H
  Ag13     1.0000 0.34370  0.95764  0.86783  Biso   1.000  Ag
  N73      1.0000 0.43914  0.88500  0.91198  Biso   1.000  N
  N74      1.0000 0.79628  0.53092  0.91715  Biso   1.000  N
  N75      1.0000 0.27458  0.97300  0.77197  Biso   1.000  N
  C217     1.0000 0.46659  0.87630  0.96983  Biso   1.000  C
  C218     1.0000 0.47336  0.85450  0.88451  Biso   1.000  C
  C219     1.0000 0.52626  0.83600  0.00017  Biso   1.000  C
  H145     1.0000 0.44420  0.89840  0.99010  Biso   1.000  H
  C220     1.0000 0.53309  0.81160  0.91143  Biso   1.000  C
  H146     1.0000 0.45620  0.86240  0.84490  Biso   1.000  H
  C221     1.0000 0.55995  0.80220  0.97058  Biso   1.000  C
  H147     1.0000 0.54380  0.83150  0.04010  Biso   1.000  H
  H148     1.0000 0.55450  0.78980  0.89030  Biso   1.000  H
  C222     1.0000 0.62415  0.75700  0.00266  Biso   1.000  C
  N76      1.0000 0.64795  0.71090  0.97297  Biso   1.000  N
  N77      1.0000 0.65326  0.76860  0.05986  Biso   1.000  N
  C223     1.0000 0.70614  0.67260  0.00561  Biso   1.000  C
  C224     1.0000 0.70980  0.72650  0.08774  Biso   1.000  C
  C225     1.0000 0.73629  0.62220  0.97503  Biso   1.000  C
  N78      1.0000 0.73850  0.67723  0.06330  Biso   1.000  N
  C226     1.0000 0.74292  0.73670  0.15184  Biso   1.000  C
  C227     1.0000 0.79854  0.58410  0.00537  Biso   1.000  C
  C228     1.0000 0.70468  0.61120  0.91552  Biso   1.000  C
  C229     1.0000 0.71527  0.78820  0.17860  Biso   1.000  C
  C230     1.0000 0.80145  0.69450  0.18546  Biso   1.000  C
  H149     1.0000 0.82080  0.58790  0.04530  Biso   1.000  H
  C231     1.0000 0.82601  0.54080  0.97437  Biso   1.000  C
  C232     1.0000 0.73576  0.56680  0.88850  Biso   1.000  C
  H150     1.0000 0.66260  0.63390  0.89410  Biso   1.000  H
  H151     1.0000 0.67730  0.81890  0.15690  Biso   1.000  H
  C233     1.0000 0.74494  0.79320  0.23787  Biso   1.000  C
  C234     1.0000 0.82680  0.70290  0.24475  Biso   1.000  C
  H152     1.0000 0.82280  0.66180  0.16880  Biso   1.000  H
  H153     1.0000 0.86790  0.51690  0.99470  Biso   1.000  H
  H154     1.0000 0.71410  0.56120  0.84860  Biso   1.000  H
  H155     1.0000 0.72630  0.82860  0.25540  Biso   1.000  H
  N79      1.0000 0.79922  0.74970  0.27162  Biso   1.000  N
  H156     1.0000 0.86560  0.67410  0.26740  Biso   1.000  H
  Ag14     1.0000 0.82292  0.74984  0.36749  Biso   1.000  Ag
  N80      1.0000 0.91278  0.84030  0.40782  Biso   1.000  N
  N81      1.0000 0.27981  0.18542  0.42177  Biso   1.000  N
  C235     1.0000 0.94293  0.84230  0.46580  Biso   1.000  C
  C236     1.0000 0.94299  0.88100  0.37972  Biso   1.000  C
  C237     1.0000 0.00229  0.88280  0.49677  Biso   1.000  C
  H157     1.0000 0.92260  0.81500  0.48590  Biso   1.000  H
  C238     1.0000 0.00189  0.92490  0.40760  Biso   1.000  C
  H158     1.0000 0.92330  0.87960  0.33960  Biso   1.000  H
  H159     1.0000 0.02190  0.88200  0.53690  Biso   1.000  H
  C239     1.0000 0.03250  0.92480  0.46725  Biso   1.000  C
  H160     1.0000 0.02040  0.95380  0.38670  Biso   1.000  H
  C240     1.0000 0.09719  0.96920  0.50141  Biso   1.000  C
  N82      1.0000 0.12602  0.00960  0.47325  Biso   1.000  N
  N83      1.0000 0.12166  0.96224  0.55930  Biso   1.000  N
  C241     1.0000 0.18197  0.05070  0.50724  Biso   1.000  C
  C242     1.0000 0.17946  0.00210  0.58865  Biso   1.000  C
  C243     1.0000 0.21506  0.10000  0.47804  Biso   1.000  C
  N84      1.0000 0.21071  0.04910  0.56479  Biso   1.000  N
  C244     1.0000 0.21098  0.99270  0.65224  Biso   1.000  C
  C245     1.0000 0.27766  0.13740  0.50950  Biso   1.000  C
  C246     1.0000 0.18613  0.10810  0.41859  Biso   1.000  C
  C247     1.0000 0.17763  0.95710  0.68162  Biso   1.000  C
  C248     1.0000 0.27721  0.01820  0.68392  Biso   1.000  C
  H161     1.0000 0.29850  0.13470  0.54950  Biso   1.000  H
  C249     1.0000 0.30755  0.17830  0.47951  Biso   1.000  C
  C250     1.0000 0.21942  0.15040  0.39267  Biso   1.000  C
  H162     1.0000 0.14440  0.08510  0.39640  Biso   1.000  H
  H163     1.0000 0.13360  0.93940  0.66170  Biso   1.000  H
  C251     1.0000 0.21051  0.94840  0.74065  Biso   1.000  C
  C252     1.0000 0.30583  0.00680  0.74288  Biso   1.000  C
  H164     1.0000 0.30130  0.04210  0.66580  Biso   1.000  H
  H165     1.0000 0.34920  0.20230  0.50050  Biso   1.000  H
  H166     1.0000 0.19910  0.15500  0.35270  Biso   1.000  H
  H167     1.0000 0.18760  0.92450  0.75980  Biso   1.000  H
  H168     1.0000 0.35000  0.02390  0.76380  Biso   1.000  H
  Ag15     1.0000 0.84370  0.45764  0.86783  Biso   1.000  Ag
  N85      1.0000 0.93914  0.38500  0.91198  Biso   1.000  N
  N86      1.0000 0.29628  0.03092  0.91715  Biso   1.000  N
  N87      1.0000 0.77458  0.47300  0.77197  Biso   1.000  N
  C253     1.0000 0.96659  0.37630  0.96983  Biso   1.000  C
  C254     1.0000 0.97336  0.35450  0.88451  Biso   1.000  C
  C255     1.0000 0.02626  0.33600  0.00017  Biso   1.000  C
  H169     1.0000 0.94420  0.39840  0.99010  Biso   1.000  H
  C256     1.0000 0.03309  0.31160  0.91143  Biso   1.000  C
  H170     1.0000 0.95620  0.36240  0.84490  Biso   1.000  H
  C257     1.0000 0.05995  0.30220  0.97058  Biso   1.000  C
  H171     1.0000 0.04380  0.33150  0.04010  Biso   1.000  H
  H172     1.0000 0.05450  0.28980  0.89030  Biso   1.000  H
  C258     1.0000 0.12415  0.25700  0.00266  Biso   1.000  C
  N88      1.0000 0.14795  0.21090  0.97297  Biso   1.000  N
  N89      1.0000 0.15326  0.26860  0.05986  Biso   1.000  N
  C259     1.0000 0.20614  0.17260  0.00561  Biso   1.000  C
  C260     1.0000 0.20980  0.22650  0.08774  Biso   1.000  C
  C261     1.0000 0.23629  0.12220  0.97503  Biso   1.000  C
  N90      1.0000 0.23850  0.17723  0.06330  Biso   1.000  N
  C262     1.0000 0.24292  0.23670  0.15184  Biso   1.000  C
  C263     1.0000 0.29854  0.08410  0.00537  Biso   1.000  C
  C264     1.0000 0.20468  0.11120  0.91552  Biso   1.000  C
  C265     1.0000 0.21527  0.28820  0.17860  Biso   1.000  C
  C266     1.0000 0.30145  0.19450  0.18546  Biso   1.000  C
  H173     1.0000 0.32080  0.08790  0.04530  Biso   1.000  H
  C267     1.0000 0.32601  0.04080  0.97437  Biso   1.000  C
  C268     1.0000 0.23576  0.06680  0.88850  Biso   1.000  C
  H174     1.0000 0.16260  0.13390  0.89410  Biso   1.000  H
  H175     1.0000 0.17730  0.31890  0.15690  Biso   1.000  H
  C269     1.0000 0.24494  0.29320  0.23787  Biso   1.000  C
  C270     1.0000 0.32680  0.20290  0.24475  Biso   1.000  C
  H176     1.0000 0.32280  0.16180  0.16880  Biso   1.000  H
  H177     1.0000 0.36790  0.01690  0.99470  Biso   1.000  H
  H178     1.0000 0.21410  0.06120  0.84860  Biso   1.000  H
  H179     1.0000 0.22630  0.32860  0.25540  Biso   1.000  H
  N91      1.0000 0.29922  0.24970  0.27162  Biso   1.000  N
  H180     1.0000 0.36560  0.17410  0.26740  Biso   1.000  H
  Ag16     1.0000 0.32292  0.24984  0.36749  Biso   1.000  Ag
  N92      1.0000 0.41278  0.34030  0.40782  Biso   1.000  N
  N93      1.0000 0.77981  0.68542  0.42177  Biso   1.000  N
  C271     1.0000 0.44293  0.34230  0.46580  Biso   1.000  C
  C272     1.0000 0.44299  0.38100  0.37972  Biso   1.000  C
  C273     1.0000 0.50229  0.38280  0.49677  Biso   1.000  C
  H181     1.0000 0.42260  0.31500  0.48590  Biso   1.000  H
  C274     1.0000 0.50189  0.42490  0.40760  Biso   1.000  C
  H182     1.0000 0.42330  0.37960  0.33960  Biso   1.000  H
  H183     1.0000 0.52190  0.38200  0.53690  Biso   1.000  H
  C275     1.0000 0.53250  0.42480  0.46725  Biso   1.000  C
  H184     1.0000 0.52040  0.45380  0.38670  Biso   1.000  H
  C276     1.0000 0.59719  0.46920  0.50141  Biso   1.000  C
  N94      1.0000 0.62602  0.50960  0.47325  Biso   1.000  N
  N95      1.0000 0.62166  0.46224  0.55930  Biso   1.000  N
  C277     1.0000 0.68197  0.55070  0.50724  Biso   1.000  C
  C278     1.0000 0.67946  0.50210  0.58865  Biso   1.000  C
  C279     1.0000 0.71506  0.60000  0.47804  Biso   1.000  C
  N96      1.0000 0.71071  0.54910  0.56479  Biso   1.000  N
  C280     1.0000 0.71098  0.49270  0.65224  Biso   1.000  C
  C281     1.0000 0.77766  0.63740  0.50950  Biso   1.000  C
  C282     1.0000 0.68613  0.60810  0.41859  Biso   1.000  C
  C283     1.0000 0.67763  0.45710  0.68162  Biso   1.000  C
  C284     1.0000 0.77721  0.51820  0.68392  Biso   1.000  C
  H185     1.0000 0.79850  0.63470  0.54950  Biso   1.000  H
  C285     1.0000 0.80755  0.67830  0.47951  Biso   1.000  C
  C286     1.0000 0.71942  0.65040  0.39267  Biso   1.000  C
  H186     1.0000 0.64440  0.58510  0.39640  Biso   1.000  H
  H187     1.0000 0.63360  0.43940  0.66170  Biso   1.000  H
  C287     1.0000 0.71051  0.44840  0.74065  Biso   1.000  C
  C288     1.0000 0.80583  0.50680  0.74288  Biso   1.000  C
  H188     1.0000 0.80130  0.54210  0.66580  Biso   1.000  H
  H189     1.0000 0.84920  0.70230  0.50050  Biso   1.000  H
  H190     1.0000 0.69910  0.65500  0.35270  Biso   1.000  H
  H191     1.0000 0.68760  0.42450  0.75980  Biso   1.000  H
  H192     1.0000 0.85000  0.52390  0.76380  Biso   1.000  H
