data_image0
_cell_length_a       22.0121
_cell_length_b       16.5301
_cell_length_c       25.6641
_cell_angle_alpha    90
_cell_angle_beta     115.386
_cell_angle_gamma    90

_symmetry_space_group_name_H-M    "P 1"
_symmetry_int_tables_number       1

loop_
  _symmetry_equiv_pos_as_xyz
  'x, y, z'

loop_
  _atom_site_label
  _atom_site_occupancy
  _atom_site_fract_x
  _atom_site_fract_y
  _atom_site_fract_z
  _atom_site_thermal_displace_type
  _atom_site_B_iso_or_equiv
  _atom_site_type_symbol
  Ag1      1.0000 0.77392  0.70883  0.36825  Biso   1.000  Ag
  Ag2      1.0000 0.29482  0.00096  0.86769  Biso   1.000  Ag
  C1       1.0000 0.92314  0.40050  0.89264  Biso   1.000  C
  H1       1.0000 0.90380  0.40560  0.85270  Biso   1.000  H
  C2       1.0000 0.12800  0.06180  0.41127  Biso   1.000  C
  H2       1.0000 0.08560  0.03980  0.39000  Biso   1.000  H
  C3       1.0000 0.15399  0.21930  0.00136  Biso   1.000  C
  C4       1.0000 0.12825  0.00720  0.50256  Biso   1.000  C
  C5       1.0000 0.90320  0.81670  0.38908  Biso   1.000  C
  H3       1.0000 0.88510  0.81060  0.34920  Biso   1.000  H
  C6       1.0000 0.98160  0.38720  0.00948  Biso   1.000  C
  H4       1.0000 0.00070  0.38420  0.04950  Biso   1.000  H
  C7       1.0000 0.07521  0.30080  0.00726  Biso   1.000  C
  C8       1.0000 0.15995  0.05260  0.47042  Biso   1.000  C
  C9       1.0000 0.24355  0.13350  0.99678  Biso   1.000  C
  H5       1.0000 0.26420  0.13320  0.03690  Biso   1.000  H
  C10      1.0000 0.22330  0.08630  0.49984  Biso   1.000  C
  H6       1.0000 0.24610  0.08170  0.53970  Biso   1.000  H
  C11      1.0000 0.15821  0.98670  0.65163  Biso   1.000  C
  C12      1.0000 0.96090  0.86160  0.41588  Biso   1.000  C
  H7       1.0000 0.98100  0.88510  0.39420  Biso   1.000  H
  C13      1.0000 0.12806  0.97630  0.58826  Biso   1.000  C
  C14      1.0000 0.27190  0.09260  0.96567  Biso   1.000  C
  H8       1.0000 0.31210  0.06510  0.98590  Biso   1.000  H
  C15      1.0000 0.25200  0.12640  0.46950  Biso   1.000  C
  H9       1.0000 0.29450  0.14870  0.48980  Biso   1.000  H
  C16      1.0000 0.05010  0.92270  0.50587  Biso   1.000  C
  C17      1.0000 0.27960  0.19830  0.24060  Biso   1.000  C
  H10      1.0000 0.32160  0.17430  0.25970  Biso   1.000  H
  C18      1.0000 0.18403  0.17490  0.96727  Biso   1.000  C
  C19      1.0000 0.19040  0.24260  0.15193  Biso   1.000  C
  C20      1.0000 0.98206  0.35820  0.91884  Biso   1.000  C
  H11      1.0000 0.00150  0.33490  0.89670  Biso   1.000  H
  C21      1.0000 0.15897  0.25250  0.08851  Biso   1.000  C
  C22      1.0000 0.16070  0.10480  0.38433  Biso   1.000  C
  H12      1.0000 0.13830  0.11270  0.34470  Biso   1.000  H
  C23      1.0000 0.18670  0.25730  0.24280  Biso   1.000  C
  H13      1.0000 0.16370  0.27480  0.26380  Biso   1.000  H
  C24      1.0000 0.95710  0.83390  0.50536  Biso   1.000  C
  H14      1.0000 0.97470  0.83780  0.54530  Biso   1.000  H
  C25      1.0000 0.25290  0.20720  0.18124  Biso   1.000  C
  H15      1.0000 0.27690  0.18940  0.16120  Biso   1.000  H
  C26      1.0000 0.21210  0.03790  0.67840  Biso   1.000  C
  H16      1.0000 0.22840  0.06830  0.65660  Biso   1.000  H
  C27      1.0000 0.01259  0.35010  0.97803  Biso   1.000  C
  C28      1.0000 0.24170  0.04370  0.73760  Biso   1.000  C
  H17      1.0000 0.27750  0.07930  0.75490  Biso   1.000  H
  C29      1.0000 0.15650  0.26830  0.18410  Biso   1.000  C
  H18      1.0000 0.11430  0.29230  0.16620  Biso   1.000  H
  C30      1.0000 0.89900  0.79070  0.47471  Biso   1.000  C
  H19      1.0000 0.87760  0.76690  0.49520  Biso   1.000  H
  C31      1.0000 0.92210  0.42840  0.97970  Biso   1.000  C
  H20      1.0000 0.90190  0.45290  0.00090  Biso   1.000  H
  C32      1.0000 0.13370  0.94500  0.68550  Biso   1.000  C
  H21      1.0000 0.09590  0.91210  0.66890  Biso   1.000  H
  C33      1.0000 0.98914  0.87200  0.47483  Biso   1.000  C
  C34      1.0000 0.15530  0.17460  0.90776  Biso   1.000  C
  H22      1.0000 0.11590  0.20310  0.88680  Biso   1.000  H
  C35      1.0000 0.16680  0.95350  0.74420  Biso   1.000  C
  H23      1.0000 0.15040  0.92480  0.76660  Biso   1.000  H
  C36      1.0000 0.18640  0.13100  0.87999  Biso   1.000  C
  H24      1.0000 0.16590  0.12960  0.83990  Biso   1.000  H
  N1       1.0000 0.87141  0.78090  0.41769  Biso   1.000  N
  N2       1.0000 0.22223  0.13540  0.41198  Biso   1.000  N
  N3       1.0000 0.22110  0.00020  0.77175  Biso   1.000  N
  N4       1.0000 0.07457  0.96080  0.47277  Biso   1.000  N
  N5       1.0000 0.15590  0.01840  0.55942  Biso   1.000  N
  N6       1.0000 0.07492  0.92760  0.56312  Biso   1.000  N
  N7       1.0000 0.24452  0.09050  0.90771  Biso   1.000  N
  N8       1.0000 0.24695  0.22320  0.27181  Biso   1.000  N
  N9       1.0000 0.89169  0.43540  0.92207  Biso   1.000  N
  N10      1.0000 0.09757  0.26050  0.97338  Biso   1.000  N
  N11      1.0000 0.18686  0.21270  0.05897  Biso   1.000  N
  N12      1.0000 0.10392  0.29900  0.06458  Biso   1.000  N
  Ag3      1.0000 0.27392  0.20883  0.36825  Biso   1.000  Ag
  Ag4      1.0000 0.79482  0.50096  0.86769  Biso   1.000  Ag
  C37      1.0000 0.42314  0.90050  0.89264  Biso   1.000  C
  H25      1.0000 0.40380  0.90560  0.85270  Biso   1.000  H
  C38      1.0000 0.62800  0.56180  0.41127  Biso   1.000  C
  H26      1.0000 0.58560  0.53980  0.39000  Biso   1.000  H
  C39      1.0000 0.65399  0.71930  0.00136  Biso   1.000  C
  C40      1.0000 0.62825  0.50720  0.50256  Biso   1.000  C
  C41      1.0000 0.40320  0.31670  0.38908  Biso   1.000  C
  H27      1.0000 0.38510  0.31060  0.34920  Biso   1.000  H
  C42      1.0000 0.48160  0.88720  0.00948  Biso   1.000  C
  H28      1.0000 0.50070  0.88420  0.04950  Biso   1.000  H
  C43      1.0000 0.57521  0.80080  0.00726  Biso   1.000  C
  C44      1.0000 0.65995  0.55260  0.47042  Biso   1.000  C
  C45      1.0000 0.74355  0.63350  0.99678  Biso   1.000  C
  H29      1.0000 0.76420  0.63320  0.03690  Biso   1.000  H
  C46      1.0000 0.72330  0.58630  0.49984  Biso   1.000  C
  H30      1.0000 0.74610  0.58170  0.53970  Biso   1.000  H
  C47      1.0000 0.65821  0.48670  0.65163  Biso   1.000  C
  C48      1.0000 0.46090  0.36160  0.41588  Biso   1.000  C
  H31      1.0000 0.48100  0.38510  0.39420  Biso   1.000  H
  C49      1.0000 0.62806  0.47630  0.58826  Biso   1.000  C
  C50      1.0000 0.77190  0.59260  0.96567  Biso   1.000  C
  H32      1.0000 0.81210  0.56510  0.98590  Biso   1.000  H
  C51      1.0000 0.75200  0.62640  0.46950  Biso   1.000  C
  H33      1.0000 0.79450  0.64870  0.48980  Biso   1.000  H
  C52      1.0000 0.55010  0.42270  0.50587  Biso   1.000  C
  C53      1.0000 0.77960  0.69830  0.24060  Biso   1.000  C
  H34      1.0000 0.82160  0.67430  0.25970  Biso   1.000  H
  C54      1.0000 0.68403  0.67490  0.96727  Biso   1.000  C
  C55      1.0000 0.69040  0.74260  0.15193  Biso   1.000  C
  C56      1.0000 0.48206  0.85820  0.91884  Biso   1.000  C
  H35      1.0000 0.50150  0.83490  0.89670  Biso   1.000  H
  C57      1.0000 0.65897  0.75250  0.08851  Biso   1.000  C
  C58      1.0000 0.66070  0.60480  0.38433  Biso   1.000  C
  H36      1.0000 0.63830  0.61270  0.34470  Biso   1.000  H
  C59      1.0000 0.68670  0.75730  0.24280  Biso   1.000  C
  H37      1.0000 0.66370  0.77480  0.26380  Biso   1.000  H
  C60      1.0000 0.45710  0.33390  0.50536  Biso   1.000  C
  H38      1.0000 0.47470  0.33780  0.54530  Biso   1.000  H
  C61      1.0000 0.75290  0.70720  0.18124  Biso   1.000  C
  H39      1.0000 0.77690  0.68940  0.16120  Biso   1.000  H
  C62      1.0000 0.71210  0.53790  0.67840  Biso   1.000  C
  H40      1.0000 0.72840  0.56830  0.65660  Biso   1.000  H
  C63      1.0000 0.51259  0.85010  0.97803  Biso   1.000  C
  C64      1.0000 0.74170  0.54370  0.73760  Biso   1.000  C
  H41      1.0000 0.77750  0.57930  0.75490  Biso   1.000  H
  C65      1.0000 0.65650  0.76830  0.18410  Biso   1.000  C
  H42      1.0000 0.61430  0.79230  0.16620  Biso   1.000  H
  C66      1.0000 0.39900  0.29070  0.47471  Biso   1.000  C
  H43      1.0000 0.37760  0.26690  0.49520  Biso   1.000  H
  C67      1.0000 0.42210  0.92840  0.97970  Biso   1.000  C
  H44      1.0000 0.40190  0.95290  0.00090  Biso   1.000  H
  C68      1.0000 0.63370  0.44500  0.68550  Biso   1.000  C
  H45      1.0000 0.59590  0.41210  0.66890  Biso   1.000  H
  C69      1.0000 0.48914  0.37200  0.47483  Biso   1.000  C
  C70      1.0000 0.65530  0.67460  0.90776  Biso   1.000  C
  H46      1.0000 0.61590  0.70310  0.88680  Biso   1.000  H
  C71      1.0000 0.66680  0.45350  0.74420  Biso   1.000  C
  H47      1.0000 0.65040  0.42480  0.76660  Biso   1.000  H
  C72      1.0000 0.68640  0.63100  0.87999  Biso   1.000  C
  H48      1.0000 0.66590  0.62960  0.83990  Biso   1.000  H
  N13      1.0000 0.37141  0.28090  0.41769  Biso   1.000  N
  N14      1.0000 0.72223  0.63540  0.41198  Biso   1.000  N
  N15      1.0000 0.72110  0.50020  0.77175  Biso   1.000  N
  N16      1.0000 0.57457  0.46080  0.47277  Biso   1.000  N
  N17      1.0000 0.65590  0.51840  0.55942  Biso   1.000  N
  N18      1.0000 0.57492  0.42760  0.56312  Biso   1.000  N
  N19      1.0000 0.74452  0.59050  0.90771  Biso   1.000  N
  N20      1.0000 0.74695  0.72320  0.27181  Biso   1.000  N
  N21      1.0000 0.39169  0.93540  0.92207  Biso   1.000  N
  N22      1.0000 0.59757  0.76050  0.97338  Biso   1.000  N
  N23      1.0000 0.68686  0.71270  0.05897  Biso   1.000  N
  N24      1.0000 0.60392  0.79900  0.06458  Biso   1.000  N
  Ag5      1.0000 0.22608  0.70883  0.13175  Biso   1.000  Ag
  Ag6      1.0000 0.70518  0.00096  0.63231  Biso   1.000  Ag
  C73      1.0000 0.07686  0.40050  0.60736  Biso   1.000  C
  H49      1.0000 0.09620  0.40560  0.64730  Biso   1.000  H
  C74      1.0000 0.87200  0.06180  0.08873  Biso   1.000  C
  H50      1.0000 0.91440  0.03980  0.11000  Biso   1.000  H
  C75      1.0000 0.84601  0.21930  0.49864  Biso   1.000  C
  C76      1.0000 0.87175  0.00720  0.99744  Biso   1.000  C
  C77      1.0000 0.09680  0.81670  0.11092  Biso   1.000  C
  H51      1.0000 0.11490  0.81060  0.15080  Biso   1.000  H
  C78      1.0000 0.01840  0.38720  0.49052  Biso   1.000  C
  H52      1.0000 0.99930  0.38420  0.45050  Biso   1.000  H
  C79      1.0000 0.92479  0.30080  0.49274  Biso   1.000  C
  C80      1.0000 0.84005  0.05260  0.02958  Biso   1.000  C
  C81      1.0000 0.75645  0.13350  0.50322  Biso   1.000  C
  H53      1.0000 0.73580  0.13320  0.46310  Biso   1.000  H
  C82      1.0000 0.77670  0.08630  0.00016  Biso   1.000  C
  H54      1.0000 0.75390  0.08170  0.96030  Biso   1.000  H
  C83      1.0000 0.84179  0.98670  0.84837  Biso   1.000  C
  C84      1.0000 0.03910  0.86160  0.08412  Biso   1.000  C
  H55      1.0000 0.01900  0.88510  0.10580  Biso   1.000  H
  C85      1.0000 0.87194  0.97630  0.91174  Biso   1.000  C
  C86      1.0000 0.72810  0.09260  0.53433  Biso   1.000  C
  H56      1.0000 0.68790  0.06510  0.51410  Biso   1.000  H
  C87      1.0000 0.74800  0.12640  0.03050  Biso   1.000  C
  H57      1.0000 0.70550  0.14870  0.01020  Biso   1.000  H
  C88      1.0000 0.94990  0.92270  0.99413  Biso   1.000  C
  C89      1.0000 0.72040  0.19830  0.25940  Biso   1.000  C
  H58      1.0000 0.67840  0.17430  0.24030  Biso   1.000  H
  C90      1.0000 0.81597  0.17490  0.53273  Biso   1.000  C
  C91      1.0000 0.80960  0.24260  0.34807  Biso   1.000  C
  C92      1.0000 0.01794  0.35820  0.58116  Biso   1.000  C
  H59      1.0000 0.99850  0.33490  0.60330  Biso   1.000  H
  C93      1.0000 0.84103  0.25250  0.41149  Biso   1.000  C
  C94      1.0000 0.83930  0.10480  0.11567  Biso   1.000  C
  H60      1.0000 0.86170  0.11270  0.15530  Biso   1.000  H
  C95      1.0000 0.81330  0.25730  0.25720  Biso   1.000  C
  H61      1.0000 0.83630  0.27480  0.23620  Biso   1.000  H
  C96      1.0000 0.04290  0.83390  0.99464  Biso   1.000  C
  H62      1.0000 0.02530  0.83780  0.95470  Biso   1.000  H
  C97      1.0000 0.74710  0.20720  0.31876  Biso   1.000  C
  H63      1.0000 0.72310  0.18940  0.33880  Biso   1.000  H
  C98      1.0000 0.78790  0.03790  0.82160  Biso   1.000  C
  H64      1.0000 0.77160  0.06830  0.84340  Biso   1.000  H
  C99      1.0000 0.98741  0.35010  0.52197  Biso   1.000  C
  C100     1.0000 0.75830  0.04370  0.76240  Biso   1.000  C
  H65      1.0000 0.72250  0.07930  0.74510  Biso   1.000  H
  C101     1.0000 0.84350  0.26830  0.31590  Biso   1.000  C
  H66      1.0000 0.88570  0.29230  0.33380  Biso   1.000  H
  C102     1.0000 0.10100  0.79070  0.02529  Biso   1.000  C
  H67      1.0000 0.12240  0.76690  0.00480  Biso   1.000  H
  C103     1.0000 0.07790  0.42840  0.52030  Biso   1.000  C
  H68      1.0000 0.09810  0.45290  0.49910  Biso   1.000  H
  C104     1.0000 0.86630  0.94500  0.81450  Biso   1.000  C
  H69      1.0000 0.90410  0.91210  0.83110  Biso   1.000  H
  C105     1.0000 0.01086  0.87200  0.02517  Biso   1.000  C
  C106     1.0000 0.84470  0.17460  0.59224  Biso   1.000  C
  H70      1.0000 0.88410  0.20310  0.61320  Biso   1.000  H
  C107     1.0000 0.83320  0.95350  0.75580  Biso   1.000  C
  H71      1.0000 0.84960  0.92480  0.73340  Biso   1.000  H
  C108     1.0000 0.81360  0.13100  0.62001  Biso   1.000  C
  H72      1.0000 0.83410  0.12960  0.66010  Biso   1.000  H
  N25      1.0000 0.12859  0.78090  0.08231  Biso   1.000  N
  N26      1.0000 0.77777  0.13540  0.08802  Biso   1.000  N
  N27      1.0000 0.77890  0.00020  0.72825  Biso   1.000  N
  N28      1.0000 0.92543  0.96080  0.02723  Biso   1.000  N
  N29      1.0000 0.84410  0.01840  0.94058  Biso   1.000  N
  N30      1.0000 0.92508  0.92760  0.93688  Biso   1.000  N
  N31      1.0000 0.75548  0.09050  0.59229  Biso   1.000  N
  N32      1.0000 0.75305  0.22320  0.22819  Biso   1.000  N
  N33      1.0000 0.10831  0.43540  0.57793  Biso   1.000  N
  N34      1.0000 0.90243  0.26050  0.52662  Biso   1.000  N
  N35      1.0000 0.81314  0.21270  0.44103  Biso   1.000  N
  N36      1.0000 0.89608  0.29900  0.43542  Biso   1.000  N
  Ag7      1.0000 0.72608  0.20883  0.13175  Biso   1.000  Ag
  Ag8      1.0000 0.20518  0.50096  0.63231  Biso   1.000  Ag
  C109     1.0000 0.57686  0.90050  0.60736  Biso   1.000  C
  H73      1.0000 0.59620  0.90560  0.64730  Biso   1.000  H
  C110     1.0000 0.37200  0.56180  0.08873  Biso   1.000  C
  H74      1.0000 0.41440  0.53980  0.11000  Biso   1.000  H
  C111     1.0000 0.34601  0.71930  0.49864  Biso   1.000  C
  C112     1.0000 0.37175  0.50720  0.99744  Biso   1.000  C
  C113     1.0000 0.59680  0.31670  0.11092  Biso   1.000  C
  H75      1.0000 0.61490  0.31060  0.15080  Biso   1.000  H
  C114     1.0000 0.51840  0.88720  0.49052  Biso   1.000  C
  H76      1.0000 0.49930  0.88420  0.45050  Biso   1.000  H
  C115     1.0000 0.42479  0.80080  0.49274  Biso   1.000  C
  C116     1.0000 0.34005  0.55260  0.02958  Biso   1.000  C
  C117     1.0000 0.25645  0.63350  0.50322  Biso   1.000  C
  H77      1.0000 0.23580  0.63320  0.46310  Biso   1.000  H
  C118     1.0000 0.27670  0.58630  0.00016  Biso   1.000  C
  H78      1.0000 0.25390  0.58170  0.96030  Biso   1.000  H
  C119     1.0000 0.34179  0.48670  0.84837  Biso   1.000  C
  C120     1.0000 0.53910  0.36160  0.08412  Biso   1.000  C
  H79      1.0000 0.51900  0.38510  0.10580  Biso   1.000  H
  C121     1.0000 0.37194  0.47630  0.91174  Biso   1.000  C
  C122     1.0000 0.22810  0.59260  0.53433  Biso   1.000  C
  H80      1.0000 0.18790  0.56510  0.51410  Biso   1.000  H
  C123     1.0000 0.24800  0.62640  0.03050  Biso   1.000  C
  H81      1.0000 0.20550  0.64870  0.01020  Biso   1.000  H
  C124     1.0000 0.44990  0.42270  0.99413  Biso   1.000  C
  C125     1.0000 0.22040  0.69830  0.25940  Biso   1.000  C
  H82      1.0000 0.17840  0.67430  0.24030  Biso   1.000  H
  C126     1.0000 0.31597  0.67490  0.53273  Biso   1.000  C
  C127     1.0000 0.30960  0.74260  0.34807  Biso   1.000  C
  C128     1.0000 0.51794  0.85820  0.58116  Biso   1.000  C
  H83      1.0000 0.49850  0.83490  0.60330  Biso   1.000  H
  C129     1.0000 0.34103  0.75250  0.41149  Biso   1.000  C
  C130     1.0000 0.33930  0.60480  0.11567  Biso   1.000  C
  H84      1.0000 0.36170  0.61270  0.15530  Biso   1.000  H
  C131     1.0000 0.31330  0.75730  0.25720  Biso   1.000  C
  H85      1.0000 0.33630  0.77480  0.23620  Biso   1.000  H
  C132     1.0000 0.54290  0.33390  0.99464  Biso   1.000  C
  H86      1.0000 0.52530  0.33780  0.95470  Biso   1.000  H
  C133     1.0000 0.24710  0.70720  0.31876  Biso   1.000  C
  H87      1.0000 0.22310  0.68940  0.33880  Biso   1.000  H
  C134     1.0000 0.28790  0.53790  0.82160  Biso   1.000  C
  H88      1.0000 0.27160  0.56830  0.84340  Biso   1.000  H
  C135     1.0000 0.48741  0.85010  0.52197  Biso   1.000  C
  C136     1.0000 0.25830  0.54370  0.76240  Biso   1.000  C
  H89      1.0000 0.22250  0.57930  0.74510  Biso   1.000  H
  C137     1.0000 0.34350  0.76830  0.31590  Biso   1.000  C
  H90      1.0000 0.38570  0.79230  0.33380  Biso   1.000  H
  C138     1.0000 0.60100  0.29070  0.02529  Biso   1.000  C
  H91      1.0000 0.62240  0.26690  0.00480  Biso   1.000  H
  C139     1.0000 0.57790  0.92840  0.52030  Biso   1.000  C
  H92      1.0000 0.59810  0.95290  0.49910  Biso   1.000  H
  C140     1.0000 0.36630  0.44500  0.81450  Biso   1.000  C
  H93      1.0000 0.40410  0.41210  0.83110  Biso   1.000  H
  C141     1.0000 0.51086  0.37200  0.02517  Biso   1.000  C
  C142     1.0000 0.34470  0.67460  0.59224  Biso   1.000  C
  H94      1.0000 0.38410  0.70310  0.61320  Biso   1.000  H
  C143     1.0000 0.33320  0.45350  0.75580  Biso   1.000  C
  H95      1.0000 0.34960  0.42480  0.73340  Biso   1.000  H
  C144     1.0000 0.31360  0.63100  0.62001  Biso   1.000  C
  H96      1.0000 0.33410  0.62960  0.66010  Biso   1.000  H
  N37      1.0000 0.62859  0.28090  0.08231  Biso   1.000  N
  N38      1.0000 0.27777  0.63540  0.08802  Biso   1.000  N
  N39      1.0000 0.27890  0.50020  0.72825  Biso   1.000  N
  N40      1.0000 0.42543  0.46080  0.02723  Biso   1.000  N
  N41      1.0000 0.34410  0.51840  0.94058  Biso   1.000  N
  N42      1.0000 0.42508  0.42760  0.93688  Biso   1.000  N
  N43      1.0000 0.25548  0.59050  0.59229  Biso   1.000  N
  N44      1.0000 0.25305  0.72320  0.22819  Biso   1.000  N
  N45      1.0000 0.60831  0.93540  0.57793  Biso   1.000  N
  N46      1.0000 0.40243  0.76050  0.52662  Biso   1.000  N
  N47      1.0000 0.31314  0.71270  0.44103  Biso   1.000  N
  N48      1.0000 0.39608  0.79900  0.43542  Biso   1.000  N
  Ag9      1.0000 0.22608  0.29117  0.63175  Biso   1.000  Ag
  Ag10     1.0000 0.70518  0.99904  0.13231  Biso   1.000  Ag
  C145     1.0000 0.07686  0.59950  0.10736  Biso   1.000  C
  H97      1.0000 0.09620  0.59440  0.14730  Biso   1.000  H
  C146     1.0000 0.87200  0.93820  0.58873  Biso   1.000  C
  H98      1.0000 0.91440  0.96020  0.61000  Biso   1.000  H
  C147     1.0000 0.84601  0.78070  0.99864  Biso   1.000  C
  C148     1.0000 0.87175  0.99280  0.49744  Biso   1.000  C
  C149     1.0000 0.09680  0.18330  0.61092  Biso   1.000  C
  H99      1.0000 0.11490  0.18940  0.65080  Biso   1.000  H
  C150     1.0000 0.01840  0.61280  0.99052  Biso   1.000  C
  H100     1.0000 0.99930  0.61580  0.95050  Biso   1.000  H
  C151     1.0000 0.92479  0.69920  0.99274  Biso   1.000  C
  C152     1.0000 0.84005  0.94740  0.52958  Biso   1.000  C
  C153     1.0000 0.75645  0.86650  0.00322  Biso   1.000  C
  H101     1.0000 0.73580  0.86680  0.96310  Biso   1.000  H
  C154     1.0000 0.77670  0.91370  0.50016  Biso   1.000  C
  H102     1.0000 0.75390  0.91830  0.46030  Biso   1.000  H
  C155     1.0000 0.84179  0.01330  0.34837  Biso   1.000  C
  C156     1.0000 0.03910  0.13840  0.58412  Biso   1.000  C
  H103     1.0000 0.01900  0.11490  0.60580  Biso   1.000  H
  C157     1.0000 0.87194  0.02370  0.41174  Biso   1.000  C
  C158     1.0000 0.72810  0.90740  0.03433  Biso   1.000  C
  H104     1.0000 0.68790  0.93490  0.01410  Biso   1.000  H
  C159     1.0000 0.74800  0.87360  0.53050  Biso   1.000  C
  H105     1.0000 0.70550  0.85130  0.51020  Biso   1.000  H
  C160     1.0000 0.94990  0.07730  0.49413  Biso   1.000  C
  C161     1.0000 0.72040  0.80170  0.75940  Biso   1.000  C
  H106     1.0000 0.67840  0.82570  0.74030  Biso   1.000  H
  C162     1.0000 0.81597  0.82510  0.03273  Biso   1.000  C
  C163     1.0000 0.80960  0.75740  0.84807  Biso   1.000  C
  C164     1.0000 0.01794  0.64180  0.08116  Biso   1.000  C
  H107     1.0000 0.99850  0.66510  0.10330  Biso   1.000  H
  C165     1.0000 0.84103  0.74750  0.91149  Biso   1.000  C
  C166     1.0000 0.83930  0.89520  0.61567  Biso   1.000  C
  H108     1.0000 0.86170  0.88730  0.65530  Biso   1.000  H
  C167     1.0000 0.81330  0.74270  0.75720  Biso   1.000  C
  H109     1.0000 0.83630  0.72520  0.73620  Biso   1.000  H
  C168     1.0000 0.04290  0.16610  0.49464  Biso   1.000  C
  H110     1.0000 0.02530  0.16220  0.45470  Biso   1.000  H
  C169     1.0000 0.74710  0.79280  0.81876  Biso   1.000  C
  H111     1.0000 0.72310  0.81060  0.83880  Biso   1.000  H
  C170     1.0000 0.78790  0.96210  0.32160  Biso   1.000  C
  H112     1.0000 0.77160  0.93170  0.34340  Biso   1.000  H
  C171     1.0000 0.98741  0.64990  0.02197  Biso   1.000  C
  C172     1.0000 0.75830  0.95630  0.26240  Biso   1.000  C
  H113     1.0000 0.72250  0.92070  0.24510  Biso   1.000  H
  C173     1.0000 0.84350  0.73170  0.81590  Biso   1.000  C
  H114     1.0000 0.88570  0.70770  0.83380  Biso   1.000  H
  C174     1.0000 0.10100  0.20930  0.52529  Biso   1.000  C
  H115     1.0000 0.12240  0.23310  0.50480  Biso   1.000  H
  C175     1.0000 0.07790  0.57160  0.02030  Biso   1.000  C
  H116     1.0000 0.09810  0.54710  0.99910  Biso   1.000  H
  C176     1.0000 0.86630  0.05500  0.31450  Biso   1.000  C
  H117     1.0000 0.90410  0.08790  0.33110  Biso   1.000  H
  C177     1.0000 0.01086  0.12800  0.52517  Biso   1.000  C
  C178     1.0000 0.84470  0.82540  0.09224  Biso   1.000  C
  H118     1.0000 0.88410  0.79690  0.11320  Biso   1.000  H
  C179     1.0000 0.83320  0.04650  0.25580  Biso   1.000  C
  H119     1.0000 0.84960  0.07520  0.23340  Biso   1.000  H
  C180     1.0000 0.81360  0.86900  0.12001  Biso   1.000  C
  H120     1.0000 0.83410  0.87040  0.16010  Biso   1.000  H
  N49      1.0000 0.12859  0.21910  0.58231  Biso   1.000  N
  N50      1.0000 0.77777  0.86460  0.58802  Biso   1.000  N
  N51      1.0000 0.77890  0.99980  0.22825  Biso   1.000  N
  N52      1.0000 0.92543  0.03920  0.52723  Biso   1.000  N
  N53      1.0000 0.84410  0.98160  0.44058  Biso   1.000  N
  N54      1.0000 0.92508  0.07240  0.43688  Biso   1.000  N
  N55      1.0000 0.75548  0.90950  0.09229  Biso   1.000  N
  N56      1.0000 0.75305  0.77680  0.72819  Biso   1.000  N
  N57      1.0000 0.10831  0.56460  0.07793  Biso   1.000  N
  N58      1.0000 0.90243  0.73950  0.02662  Biso   1.000  N
  N59      1.0000 0.81314  0.78730  0.94103  Biso   1.000  N
  N60      1.0000 0.89608  0.70100  0.93542  Biso   1.000  N
  Ag11     1.0000 0.72608  0.79117  0.63175  Biso   1.000  Ag
  Ag12     1.0000 0.20518  0.49904  0.13231  Biso   1.000  Ag
  C181     1.0000 0.57686  0.09950  0.10736  Biso   1.000  C
  H121     1.0000 0.59620  0.09440  0.14730  Biso   1.000  H
  C182     1.0000 0.37200  0.43820  0.58873  Biso   1.000  C
  H122     1.0000 0.41440  0.46020  0.61000  Biso   1.000  H
  C183     1.0000 0.34601  0.28070  0.99864  Biso   1.000  C
  C184     1.0000 0.37175  0.49280  0.49744  Biso   1.000  C
  C185     1.0000 0.59680  0.68330  0.61092  Biso   1.000  C
  H123     1.0000 0.61490  0.68940  0.65080  Biso   1.000  H
  C186     1.0000 0.51840  0.11280  0.99052  Biso   1.000  C
  H124     1.0000 0.49930  0.11580  0.95050  Biso   1.000  H
  C187     1.0000 0.42479  0.19920  0.99274  Biso   1.000  C
  C188     1.0000 0.34005  0.44740  0.52958  Biso   1.000  C
  C189     1.0000 0.25645  0.36650  0.00322  Biso   1.000  C
  H125     1.0000 0.23580  0.36680  0.96310  Biso   1.000  H
  C190     1.0000 0.27670  0.41370  0.50016  Biso   1.000  C
  H126     1.0000 0.25390  0.41830  0.46030  Biso   1.000  H
  C191     1.0000 0.34179  0.51330  0.34837  Biso   1.000  C
  C192     1.0000 0.53910  0.63840  0.58412  Biso   1.000  C
  H127     1.0000 0.51900  0.61490  0.60580  Biso   1.000  H
  C193     1.0000 0.37194  0.52370  0.41174  Biso   1.000  C
  C194     1.0000 0.22810  0.40740  0.03433  Biso   1.000  C
  H128     1.0000 0.18790  0.43490  0.01410  Biso   1.000  H
  C195     1.0000 0.24800  0.37360  0.53050  Biso   1.000  C
  H129     1.0000 0.20550  0.35130  0.51020  Biso   1.000  H
  C196     1.0000 0.44990  0.57730  0.49413  Biso   1.000  C
  C197     1.0000 0.22040  0.30170  0.75940  Biso   1.000  C
  H130     1.0000 0.17840  0.32570  0.74030  Biso   1.000  H
  C198     1.0000 0.31597  0.32510  0.03273  Biso   1.000  C
  C199     1.0000 0.30960  0.25740  0.84807  Biso   1.000  C
  C200     1.0000 0.51794  0.14180  0.08116  Biso   1.000  C
  H131     1.0000 0.49850  0.16510  0.10330  Biso   1.000  H
  C201     1.0000 0.34103  0.24750  0.91149  Biso   1.000  C
  C202     1.0000 0.33930  0.39520  0.61567  Biso   1.000  C
  H132     1.0000 0.36170  0.38730  0.65530  Biso   1.000  H
  C203     1.0000 0.31330  0.24270  0.75720  Biso   1.000  C
  H133     1.0000 0.33630  0.22520  0.73620  Biso   1.000  H
  C204     1.0000 0.54290  0.66610  0.49464  Biso   1.000  C
  H134     1.0000 0.52530  0.66220  0.45470  Biso   1.000  H
  C205     1.0000 0.24710  0.29280  0.81876  Biso   1.000  C
  H135     1.0000 0.22310  0.31060  0.83880  Biso   1.000  H
  C206     1.0000 0.28790  0.46210  0.32160  Biso   1.000  C
  H136     1.0000 0.27160  0.43170  0.34340  Biso   1.000  H
  C207     1.0000 0.48741  0.14990  0.02197  Biso   1.000  C
  C208     1.0000 0.25830  0.45630  0.26240  Biso   1.000  C
  H137     1.0000 0.22250  0.42070  0.24510  Biso   1.000  H
  C209     1.0000 0.34350  0.23170  0.81590  Biso   1.000  C
  H138     1.0000 0.38570  0.20770  0.83380  Biso   1.000  H
  C210     1.0000 0.60100  0.70930  0.52529  Biso   1.000  C
  H139     1.0000 0.62240  0.73310  0.50480  Biso   1.000  H
  C211     1.0000 0.57790  0.07160  0.02030  Biso   1.000  C
  H140     1.0000 0.59810  0.04710  0.99910  Biso   1.000  H
  C212     1.0000 0.36630  0.55500  0.31450  Biso   1.000  C
  H141     1.0000 0.40410  0.58790  0.33110  Biso   1.000  H
  C213     1.0000 0.51086  0.62800  0.52517  Biso   1.000  C
  C214     1.0000 0.34470  0.32540  0.09224  Biso   1.000  C
  H142     1.0000 0.38410  0.29690  0.11320  Biso   1.000  H
  C215     1.0000 0.33320  0.54650  0.25580  Biso   1.000  C
  H143     1.0000 0.34960  0.57520  0.23340  Biso   1.000  H
  C216     1.0000 0.31360  0.36900  0.12001  Biso   1.000  C
  H144     1.0000 0.33410  0.37040  0.16010  Biso   1.000  H
  N61      1.0000 0.62859  0.71910  0.58231  Biso   1.000  N
  N62      1.0000 0.27777  0.36460  0.58802  Biso   1.000  N
  N63      1.0000 0.27890  0.49980  0.22825  Biso   1.000  N
  N64      1.0000 0.42543  0.53920  0.52723  Biso   1.000  N
  N65      1.0000 0.34410  0.48160  0.44058  Biso   1.000  N
  N66      1.0000 0.42508  0.57240  0.43688  Biso   1.000  N
  N67      1.0000 0.25548  0.40950  0.09229  Biso   1.000  N
  N68      1.0000 0.25305  0.27680  0.72819  Biso   1.000  N
  N69      1.0000 0.60831  0.06460  0.07793  Biso   1.000  N
  N70      1.0000 0.40243  0.23950  0.02662  Biso   1.000  N
  N71      1.0000 0.31314  0.28730  0.94103  Biso   1.000  N
  N72      1.0000 0.39608  0.20100  0.93542  Biso   1.000  N
  Ag13     1.0000 0.77392  0.29117  0.86825  Biso   1.000  Ag
  Ag14     1.0000 0.29482  0.99904  0.36769  Biso   1.000  Ag
  C217     1.0000 0.92314  0.59950  0.39264  Biso   1.000  C
  H145     1.0000 0.90380  0.59440  0.35270  Biso   1.000  H
  C218     1.0000 0.12800  0.93820  0.91127  Biso   1.000  C
  H146     1.0000 0.08560  0.96020  0.89000  Biso   1.000  H
  C219     1.0000 0.15399  0.78070  0.50136  Biso   1.000  C
  C220     1.0000 0.12825  0.99280  0.00256  Biso   1.000  C
  C221     1.0000 0.90320  0.18330  0.88908  Biso   1.000  C
  H147     1.0000 0.88510  0.18940  0.84920  Biso   1.000  H
  C222     1.0000 0.98160  0.61280  0.50948  Biso   1.000  C
  H148     1.0000 0.00070  0.61580  0.54950  Biso   1.000  H
  C223     1.0000 0.07521  0.69920  0.50726  Biso   1.000  C
  C224     1.0000 0.15995  0.94740  0.97042  Biso   1.000  C
  C225     1.0000 0.24355  0.86650  0.49678  Biso   1.000  C
  H149     1.0000 0.26420  0.86680  0.53690  Biso   1.000  H
  C226     1.0000 0.22330  0.91370  0.99984  Biso   1.000  C
  H150     1.0000 0.24610  0.91830  0.03970  Biso   1.000  H
  C227     1.0000 0.15821  0.01330  0.15163  Biso   1.000  C
  C228     1.0000 0.96090  0.13840  0.91588  Biso   1.000  C
  H151     1.0000 0.98100  0.11490  0.89420  Biso   1.000  H
  C229     1.0000 0.12806  0.02370  0.08826  Biso   1.000  C
  C230     1.0000 0.27190  0.90740  0.46567  Biso   1.000  C
  H152     1.0000 0.31210  0.93490  0.48590  Biso   1.000  H
  C231     1.0000 0.25200  0.87360  0.96950  Biso   1.000  C
  H153     1.0000 0.29450  0.85130  0.98980  Biso   1.000  H
  C232     1.0000 0.05010  0.07730  0.00587  Biso   1.000  C
  C233     1.0000 0.27960  0.80170  0.74060  Biso   1.000  C
  H154     1.0000 0.32160  0.82570  0.75970  Biso   1.000  H
  C234     1.0000 0.18403  0.82510  0.46727  Biso   1.000  C
  C235     1.0000 0.19040  0.75740  0.65193  Biso   1.000  C
  C236     1.0000 0.98206  0.64180  0.41884  Biso   1.000  C
  H155     1.0000 0.00150  0.66510  0.39670  Biso   1.000  H
  C237     1.0000 0.15897  0.74750  0.58851  Biso   1.000  C
  C238     1.0000 0.16070  0.89520  0.88433  Biso   1.000  C
  H156     1.0000 0.13830  0.88730  0.84470  Biso   1.000  H
  C239     1.0000 0.18670  0.74270  0.74280  Biso   1.000  C
  H157     1.0000 0.16370  0.72520  0.76380  Biso   1.000  H
  C240     1.0000 0.95710  0.16610  0.00536  Biso   1.000  C
  H158     1.0000 0.97470  0.16220  0.04530  Biso   1.000  H
  C241     1.0000 0.25290  0.79280  0.68124  Biso   1.000  C
  H159     1.0000 0.27690  0.81060  0.66120  Biso   1.000  H
  C242     1.0000 0.21210  0.96210  0.17840  Biso   1.000  C
  H160     1.0000 0.22840  0.93170  0.15660  Biso   1.000  H
  C243     1.0000 0.01259  0.64990  0.47803  Biso   1.000  C
  C244     1.0000 0.24170  0.95630  0.23760  Biso   1.000  C
  H161     1.0000 0.27750  0.92070  0.25490  Biso   1.000  H
  C245     1.0000 0.15650  0.73170  0.68410  Biso   1.000  C
  H162     1.0000 0.11430  0.70770  0.66620  Biso   1.000  H
  C246     1.0000 0.89900  0.20930  0.97471  Biso   1.000  C
  H163     1.0000 0.87760  0.23310  0.99520  Biso   1.000  H
  C247     1.0000 0.92210  0.57160  0.47970  Biso   1.000  C
  H164     1.0000 0.90190  0.54710  0.50090  Biso   1.000  H
  C248     1.0000 0.13370  0.05500  0.18550  Biso   1.000  C
  H165     1.0000 0.09590  0.08790  0.16890  Biso   1.000  H
  C249     1.0000 0.98914  0.12800  0.97483  Biso   1.000  C
  C250     1.0000 0.15530  0.82540  0.40776  Biso   1.000  C
  H166     1.0000 0.11590  0.79690  0.38680  Biso   1.000  H
  C251     1.0000 0.16680  0.04650  0.24420  Biso   1.000  C
  H167     1.0000 0.15040  0.07520  0.26660  Biso   1.000  H
  C252     1.0000 0.18640  0.86900  0.37999  Biso   1.000  C
  H168     1.0000 0.16590  0.87040  0.33990  Biso   1.000  H
  N73      1.0000 0.87141  0.21910  0.91769  Biso   1.000  N
  N74      1.0000 0.22223  0.86460  0.91198  Biso   1.000  N
  N75      1.0000 0.22110  0.99980  0.27175  Biso   1.000  N
  N76      1.0000 0.07457  0.03920  0.97277  Biso   1.000  N
  N77      1.0000 0.15590  0.98160  0.05942  Biso   1.000  N
  N78      1.0000 0.07492  0.07240  0.06312  Biso   1.000  N
  N79      1.0000 0.24452  0.90950  0.40771  Biso   1.000  N
  N80      1.0000 0.24695  0.77680  0.77181  Biso   1.000  N
  N81      1.0000 0.89169  0.56460  0.42207  Biso   1.000  N
  N82      1.0000 0.09757  0.73950  0.47338  Biso   1.000  N
  N83      1.0000 0.18686  0.78730  0.55897  Biso   1.000  N
  N84      1.0000 0.10392  0.70100  0.56458  Biso   1.000  N
  Ag15     1.0000 0.27392  0.79117  0.86825  Biso   1.000  Ag
  Ag16     1.0000 0.79482  0.49904  0.36769  Biso   1.000  Ag
  C253     1.0000 0.42314  0.09950  0.39264  Biso   1.000  C
  H169     1.0000 0.40380  0.09440  0.35270  Biso   1.000  H
  C254     1.0000 0.62800  0.43820  0.91127  Biso   1.000  C
  H170     1.0000 0.58560  0.46020  0.89000  Biso   1.000  H
  C255     1.0000 0.65399  0.28070  0.50136  Biso   1.000  C
  C256     1.0000 0.62825  0.49280  0.00256  Biso   1.000  C
  C257     1.0000 0.40320  0.68330  0.88908  Biso   1.000  C
  H171     1.0000 0.38510  0.68940  0.84920  Biso   1.000  H
  C258     1.0000 0.48160  0.11280  0.50948  Biso   1.000  C
  H172     1.0000 0.50070  0.11580  0.54950  Biso   1.000  H
  C259     1.0000 0.57521  0.19920  0.50726  Biso   1.000  C
  C260     1.0000 0.65995  0.44740  0.97042  Biso   1.000  C
  C261     1.0000 0.74355  0.36650  0.49678  Biso   1.000  C
  H173     1.0000 0.76420  0.36680  0.53690  Biso   1.000  H
  C262     1.0000 0.72330  0.41370  0.99984  Biso   1.000  C
  H174     1.0000 0.74610  0.41830  0.03970  Biso   1.000  H
  C263     1.0000 0.65821  0.51330  0.15163  Biso   1.000  C
  C264     1.0000 0.46090  0.63840  0.91588  Biso   1.000  C
  H175     1.0000 0.48100  0.61490  0.89420  Biso   1.000  H
  C265     1.0000 0.62806  0.52370  0.08826  Biso   1.000  C
  C266     1.0000 0.77190  0.40740  0.46567  Biso   1.000  C
  H176     1.0000 0.81210  0.43490  0.48590  Biso   1.000  H
  C267     1.0000 0.75200  0.37360  0.96950  Biso   1.000  C
  H177     1.0000 0.79450  0.35130  0.98980  Biso   1.000  H
  C268     1.0000 0.55010  0.57730  0.00587  Biso   1.000  C
  C269     1.0000 0.77960  0.30170  0.74060  Biso   1.000  C
  H178     1.0000 0.82160  0.32570  0.75970  Biso   1.000  H
  C270     1.0000 0.68403  0.32510  0.46727  Biso   1.000  C
  C271     1.0000 0.69040  0.25740  0.65193  Biso   1.000  C
  C272     1.0000 0.48206  0.14180  0.41884  Biso   1.000  C
  H179     1.0000 0.50150  0.16510  0.39670  Biso   1.000  H
  C273     1.0000 0.65897  0.24750  0.58851  Biso   1.000  C
  C274     1.0000 0.66070  0.39520  0.88433  Biso   1.000  C
  H180     1.0000 0.63830  0.38730  0.84470  Biso   1.000  H
  C275     1.0000 0.68670  0.24270  0.74280  Biso   1.000  C
  H181     1.0000 0.66370  0.22520  0.76380  Biso   1.000  H
  C276     1.0000 0.45710  0.66610  0.00536  Biso   1.000  C
  H182     1.0000 0.47470  0.66220  0.04530  Biso   1.000  H
  C277     1.0000 0.75290  0.29280  0.68124  Biso   1.000  C
  H183     1.0000 0.77690  0.31060  0.66120  Biso   1.000  H
  C278     1.0000 0.71210  0.46210  0.17840  Biso   1.000  C
  H184     1.0000 0.72840  0.43170  0.15660  Biso   1.000  H
  C279     1.0000 0.51259  0.14990  0.47803  Biso   1.000  C
  C280     1.0000 0.74170  0.45630  0.23760  Biso   1.000  C
  H185     1.0000 0.77750  0.42070  0.25490  Biso   1.000  H
  C281     1.0000 0.65650  0.23170  0.68410  Biso   1.000  C
  H186     1.0000 0.61430  0.20770  0.66620  Biso   1.000  H
  C282     1.0000 0.39900  0.70930  0.97471  Biso   1.000  C
  H187     1.0000 0.37760  0.73310  0.99520  Biso   1.000  H
  C283     1.0000 0.42210  0.07160  0.47970  Biso   1.000  C
  H188     1.0000 0.40190  0.04710  0.50090  Biso   1.000  H
  C284     1.0000 0.63370  0.55500  0.18550  Biso   1.000  C
  H189     1.0000 0.59590  0.58790  0.16890  Biso   1.000  H
  C285     1.0000 0.48914  0.62800  0.97483  Biso   1.000  C
  C286     1.0000 0.65530  0.32540  0.40776  Biso   1.000  C
  H190     1.0000 0.61590  0.29690  0.38680  Biso   1.000  H
  C287     1.0000 0.66680  0.54650  0.24420  Biso   1.000  C
  H191     1.0000 0.65040  0.57520  0.26660  Biso   1.000  H
  C288     1.0000 0.68640  0.36900  0.37999  Biso   1.000  C
  H192     1.0000 0.66590  0.37040  0.33990  Biso   1.000  H
  N85      1.0000 0.37141  0.71910  0.91769  Biso   1.000  N
  N86      1.0000 0.72223  0.36460  0.91198  Biso   1.000  N
  N87      1.0000 0.72110  0.49980  0.27175  Biso   1.000  N
  N88      1.0000 0.57457  0.53920  0.97277  Biso   1.000  N
  N89      1.0000 0.65590  0.48160  0.05942  Biso   1.000  N
  N90      1.0000 0.57492  0.57240  0.06312  Biso   1.000  N
  N91      1.0000 0.74452  0.40950  0.40771  Biso   1.000  N
  N92      1.0000 0.74695  0.27680  0.77181  Biso   1.000  N
  N93      1.0000 0.39169  0.06460  0.42207  Biso   1.000  N
  N94      1.0000 0.59757  0.23950  0.47338  Biso   1.000  N
  N95      1.0000 0.68686  0.28730  0.55897  Biso   1.000  N
  N96      1.0000 0.60392  0.20100  0.56458  Biso   1.000  N
