data_image0
_cell_length_a       22.0383
_cell_length_b       16.4151
_cell_length_c       25.679
_cell_angle_alpha    90
_cell_angle_beta     115.404
_cell_angle_gamma    90

_symmetry_space_group_name_H-M    "P 1"
_symmetry_int_tables_number       1

loop_
  _symmetry_equiv_pos_as_xyz
  'x, y, z'

loop_
  _atom_site_label
  _atom_site_occupancy
  _atom_site_fract_x
  _atom_site_fract_y
  _atom_site_fract_z
  _atom_site_thermal_displace_type
  _atom_site_B_iso_or_equiv
  _atom_site_type_symbol
  Ag1      1.0000 0.34404  0.04164  0.36811  Biso   1.000  Ag
  Ag2      1.0000 0.82305  0.24999  0.86765  Biso   1.000  Ag
  C1       1.0000 0.62428  0.24250  0.50295  Biso   1.000  C
  C2       1.0000 0.73570  0.43330  0.38904  Biso   1.000  C
  H1       1.0000 0.71390  0.43910  0.34920  Biso   1.000  H
  C3       1.0000 0.00281  0.11700  0.99680  Biso   1.000  C
  H2       1.0000 0.02220  0.11730  0.03690  Biso   1.000  H
  C4       1.0000 0.09731  0.03090  0.00158  Biso   1.000  C
  C5       1.0000 0.56013  0.19750  0.47065  Biso   1.000  C
  C6       1.0000 0.53320  0.18810  0.41130  Biso   1.000  C
  H3       1.0000 0.55440  0.21010  0.39010  Biso   1.000  H
  C7       1.0000 0.21976  0.84990  0.89295  Biso   1.000  C
  H4       1.0000 0.19950  0.84560  0.85300  Biso   1.000  H
  C8       1.0000 0.27780  0.86300  0.00976  Biso   1.000  C
  H5       1.0000 0.29860  0.86600  0.04980  Biso   1.000  H
  C9       1.0000 0.52672  0.16340  0.50030  Biso   1.000  C
  H6       1.0000 0.54420  0.16770  0.54020  Biso   1.000  H
  C10      1.0000 0.94347  0.15810  0.96589  Biso   1.000  C
  H7       1.0000 0.92340  0.18580  0.98600  Biso   1.000  H
  C11      1.0000 0.74307  0.26350  0.65187  Biso   1.000  C
  C12      1.0000 0.17813  0.04310  0.18178  Biso   1.000  C
  H8       1.0000 0.13420  0.06150  0.16170  Biso   1.000  H
  C13      1.0000 0.71035  0.27340  0.58824  Biso   1.000  C
  C14      1.0000 0.18211  0.94950  0.00736  Biso   1.000  C
  C15      1.0000 0.79856  0.41580  0.50549  Biso   1.000  C
  H9       1.0000 0.82110  0.41190  0.54540  Biso   1.000  H
  C16      1.0000 0.17975  0.99740  0.08896  Biso   1.000  C
  C17      1.0000 0.30641  0.99300  0.24341  Biso   1.000  C
  H10      1.0000 0.35050  0.97600  0.26450  Biso   1.000  H
  C18      1.0000 0.70578  0.32720  0.50573  Biso   1.000  C
  C19      1.0000 0.21538  0.90000  0.97817  Biso   1.000  C
  C20      1.0000 0.46693  0.12300  0.46955  Biso   1.000  C
  H11      1.0000 0.44460  0.10060  0.48970  Biso   1.000  H
  C21      1.0000 0.03298  0.07540  0.96759  Biso   1.000  C
  C22      1.0000 0.30787  0.82180  0.97987  Biso   1.000  C
  H12      1.0000 0.34950  0.79770  0.00090  Biso   1.000  H
  C23      1.0000 0.82562  0.45920  0.47431  Biso   1.000  C
  H13      1.0000 0.86740  0.48330  0.49460  Biso   1.000  H
  C24      1.0000 0.74570  0.20670  0.73784  Biso   1.000  C
  H14      1.0000 0.72710  0.17140  0.75540  Biso   1.000  H
  C25      1.0000 0.47349  0.14480  0.38455  Biso   1.000  C
  H15      1.0000 0.45630  0.13660  0.34490  Biso   1.000  H
  C26      1.0000 0.21054  0.05140  0.24062  Biso   1.000  C
  H16      1.0000 0.18740  0.07480  0.25980  Biso   1.000  H
  C27      1.0000 0.00230  0.07550  0.90795  Biso   1.000  C
  H17      1.0000 0.02090  0.04690  0.88700  Biso   1.000  H
  C28      1.0000 0.21131  0.00740  0.15250  Biso   1.000  C
  C29      1.0000 0.73623  0.37800  0.47519  Biso   1.000  C
  C30      1.0000 0.82724  0.29690  0.74460  Biso   1.000  C
  H18      1.0000 0.86590  0.32590  0.76720  Biso   1.000  H
  C31      1.0000 0.27757  0.98170  0.18415  Biso   1.000  C
  H19      1.0000 0.30160  0.95760  0.16600  Biso   1.000  H
  C32      1.0000 0.18635  0.89170  0.91899  Biso   1.000  C
  H20      1.0000 0.14440  0.91440  0.89690  Biso   1.000  H
  C33      1.0000 0.70461  0.38890  0.41566  Biso   1.000  C
  H21      1.0000 0.66260  0.36610  0.39410  Biso   1.000  H
  C34      1.0000 0.80199  0.30530  0.68565  Biso   1.000  C
  H22      1.0000 0.82350  0.33780  0.66900  Biso   1.000  H
  C35      1.0000 0.71602  0.21160  0.67845  Biso   1.000  C
  H23      1.0000 0.67840  0.18040  0.65670  Biso   1.000  H
  C36      1.0000 0.94322  0.11910  0.88008  Biso   1.000  C
  H24      1.0000 0.92340  0.12020  0.84000  Biso   1.000  H
  N1       1.0000 0.43951  0.11428  0.41219  Biso   1.000  N
  N2       1.0000 0.79617  0.46893  0.41734  Biso   1.000  N
  N3       1.0000 0.80019  0.25020  0.77175  Biso   1.000  N
  N4       1.0000 0.64811  0.28904  0.47305  Biso   1.000  N
  N5       1.0000 0.73846  0.32270  0.56327  Biso   1.000  N
  N6       1.0000 0.65352  0.23159  0.55984  Biso   1.000  N
  N7       1.0000 0.91322  0.15980  0.90774  Biso   1.000  N
  N8       1.0000 0.28014  0.81468  0.92206  Biso   1.000  N
  N9       1.0000 0.27477  0.02680  0.27187  Biso   1.000  N
  N10      1.0000 0.12590  0.99018  0.97340  Biso   1.000  N
  N11      1.0000 0.21091  0.95088  0.06483  Biso   1.000  N
  N12      1.0000 0.12201  0.03761  0.05936  Biso   1.000  N
  Ag3      1.0000 0.84404  0.54164  0.36811  Biso   1.000  Ag
  Ag4      1.0000 0.32305  0.74999  0.86765  Biso   1.000  Ag
  C37      1.0000 0.12428  0.74250  0.50295  Biso   1.000  C
  C38      1.0000 0.23570  0.93330  0.38904  Biso   1.000  C
  H25      1.0000 0.21390  0.93910  0.34920  Biso   1.000  H
  C39      1.0000 0.50281  0.61700  0.99680  Biso   1.000  C
  H26      1.0000 0.52220  0.61730  0.03690  Biso   1.000  H
  C40      1.0000 0.59731  0.53090  0.00158  Biso   1.000  C
  C41      1.0000 0.06013  0.69750  0.47065  Biso   1.000  C
  C42      1.0000 0.03320  0.68810  0.41130  Biso   1.000  C
  H27      1.0000 0.05440  0.71010  0.39010  Biso   1.000  H
  C43      1.0000 0.71976  0.34990  0.89295  Biso   1.000  C
  H28      1.0000 0.69950  0.34560  0.85300  Biso   1.000  H
  C44      1.0000 0.77780  0.36300  0.00976  Biso   1.000  C
  H29      1.0000 0.79860  0.36600  0.04980  Biso   1.000  H
  C45      1.0000 0.02672  0.66340  0.50030  Biso   1.000  C
  H30      1.0000 0.04420  0.66770  0.54020  Biso   1.000  H
  C46      1.0000 0.44347  0.65810  0.96589  Biso   1.000  C
  H31      1.0000 0.42340  0.68580  0.98600  Biso   1.000  H
  C47      1.0000 0.24307  0.76350  0.65187  Biso   1.000  C
  C48      1.0000 0.67813  0.54310  0.18178  Biso   1.000  C
  H32      1.0000 0.63420  0.56150  0.16170  Biso   1.000  H
  C49      1.0000 0.21035  0.77340  0.58824  Biso   1.000  C
  C50      1.0000 0.68211  0.44950  0.00736  Biso   1.000  C
  C51      1.0000 0.29856  0.91580  0.50549  Biso   1.000  C
  H33      1.0000 0.32110  0.91190  0.54540  Biso   1.000  H
  C52      1.0000 0.67975  0.49740  0.08896  Biso   1.000  C
  C53      1.0000 0.80641  0.49300  0.24341  Biso   1.000  C
  H34      1.0000 0.85050  0.47600  0.26450  Biso   1.000  H
  C54      1.0000 0.20578  0.82720  0.50573  Biso   1.000  C
  C55      1.0000 0.71538  0.40000  0.97817  Biso   1.000  C
  C56      1.0000 0.96693  0.62300  0.46955  Biso   1.000  C
  H35      1.0000 0.94460  0.60060  0.48970  Biso   1.000  H
  C57      1.0000 0.53298  0.57540  0.96759  Biso   1.000  C
  C58      1.0000 0.80787  0.32180  0.97987  Biso   1.000  C
  H36      1.0000 0.84950  0.29770  0.00090  Biso   1.000  H
  C59      1.0000 0.32562  0.95920  0.47431  Biso   1.000  C
  H37      1.0000 0.36740  0.98330  0.49460  Biso   1.000  H
  C60      1.0000 0.24570  0.70670  0.73784  Biso   1.000  C
  H38      1.0000 0.22710  0.67140  0.75540  Biso   1.000  H
  C61      1.0000 0.97349  0.64480  0.38455  Biso   1.000  C
  H39      1.0000 0.95630  0.63660  0.34490  Biso   1.000  H
  C62      1.0000 0.71054  0.55140  0.24062  Biso   1.000  C
  H40      1.0000 0.68740  0.57480  0.25980  Biso   1.000  H
  C63      1.0000 0.50230  0.57550  0.90795  Biso   1.000  C
  H41      1.0000 0.52090  0.54690  0.88700  Biso   1.000  H
  C64      1.0000 0.71131  0.50740  0.15250  Biso   1.000  C
  C65      1.0000 0.23623  0.87800  0.47519  Biso   1.000  C
  C66      1.0000 0.32724  0.79690  0.74460  Biso   1.000  C
  H42      1.0000 0.36590  0.82590  0.76720  Biso   1.000  H
  C67      1.0000 0.77757  0.48170  0.18415  Biso   1.000  C
  H43      1.0000 0.80160  0.45760  0.16600  Biso   1.000  H
  C68      1.0000 0.68635  0.39170  0.91899  Biso   1.000  C
  H44      1.0000 0.64440  0.41440  0.89690  Biso   1.000  H
  C69      1.0000 0.20461  0.88890  0.41566  Biso   1.000  C
  H45      1.0000 0.16260  0.86610  0.39410  Biso   1.000  H
  C70      1.0000 0.30199  0.80530  0.68565  Biso   1.000  C
  H46      1.0000 0.32350  0.83780  0.66900  Biso   1.000  H
  C71      1.0000 0.21602  0.71160  0.67845  Biso   1.000  C
  H47      1.0000 0.17840  0.68040  0.65670  Biso   1.000  H
  C72      1.0000 0.44322  0.61910  0.88008  Biso   1.000  C
  H48      1.0000 0.42340  0.62020  0.84000  Biso   1.000  H
  N13      1.0000 0.93951  0.61428  0.41219  Biso   1.000  N
  N14      1.0000 0.29617  0.96893  0.41734  Biso   1.000  N
  N15      1.0000 0.30019  0.75020  0.77175  Biso   1.000  N
  N16      1.0000 0.14811  0.78904  0.47305  Biso   1.000  N
  N17      1.0000 0.23846  0.82270  0.56327  Biso   1.000  N
  N18      1.0000 0.15352  0.73159  0.55984  Biso   1.000  N
  N19      1.0000 0.41322  0.65980  0.90774  Biso   1.000  N
  N20      1.0000 0.78014  0.31468  0.92206  Biso   1.000  N
  N21      1.0000 0.77477  0.52680  0.27187  Biso   1.000  N
  N22      1.0000 0.62590  0.49018  0.97340  Biso   1.000  N
  N23      1.0000 0.71091  0.45088  0.06483  Biso   1.000  N
  N24      1.0000 0.62201  0.53761  0.05936  Biso   1.000  N
  Ag5      1.0000 0.65596  0.04164  0.13189  Biso   1.000  Ag
  Ag6      1.0000 0.17695  0.24999  0.63235  Biso   1.000  Ag
  C73      1.0000 0.37572  0.24250  0.99705  Biso   1.000  C
  C74      1.0000 0.26430  0.43330  0.11096  Biso   1.000  C
  H49      1.0000 0.28610  0.43910  0.15080  Biso   1.000  H
  C75      1.0000 0.99719  0.11700  0.50320  Biso   1.000  C
  H50      1.0000 0.97780  0.11730  0.46310  Biso   1.000  H
  C76      1.0000 0.90269  0.03090  0.49842  Biso   1.000  C
  C77      1.0000 0.43987  0.19750  0.02935  Biso   1.000  C
  C78      1.0000 0.46680  0.18810  0.08870  Biso   1.000  C
  H51      1.0000 0.44560  0.21010  0.10990  Biso   1.000  H
  C79      1.0000 0.78024  0.84990  0.60705  Biso   1.000  C
  H52      1.0000 0.80050  0.84560  0.64700  Biso   1.000  H
  C80      1.0000 0.72220  0.86300  0.49024  Biso   1.000  C
  H53      1.0000 0.70140  0.86600  0.45020  Biso   1.000  H
  C81      1.0000 0.47328  0.16340  0.99970  Biso   1.000  C
  H54      1.0000 0.45580  0.16770  0.95980  Biso   1.000  H
  C82      1.0000 0.05653  0.15810  0.53411  Biso   1.000  C
  H55      1.0000 0.07660  0.18580  0.51400  Biso   1.000  H
  C83      1.0000 0.25693  0.26350  0.84813  Biso   1.000  C
  C84      1.0000 0.82187  0.04310  0.31822  Biso   1.000  C
  H56      1.0000 0.86580  0.06150  0.33830  Biso   1.000  H
  C85      1.0000 0.28965  0.27340  0.91176  Biso   1.000  C
  C86      1.0000 0.81789  0.94950  0.49264  Biso   1.000  C
  C87      1.0000 0.20144  0.41580  0.99451  Biso   1.000  C
  H57      1.0000 0.17890  0.41190  0.95460  Biso   1.000  H
  C88      1.0000 0.82025  0.99740  0.41104  Biso   1.000  C
  C89      1.0000 0.69359  0.99300  0.25659  Biso   1.000  C
  H58      1.0000 0.64950  0.97600  0.23550  Biso   1.000  H
  C90      1.0000 0.29422  0.32720  0.99427  Biso   1.000  C
  C91      1.0000 0.78462  0.90000  0.52183  Biso   1.000  C
  C92      1.0000 0.53307  0.12300  0.03045  Biso   1.000  C
  H59      1.0000 0.55540  0.10060  0.01030  Biso   1.000  H
  C93      1.0000 0.96702  0.07540  0.53241  Biso   1.000  C
  C94      1.0000 0.69213  0.82180  0.52013  Biso   1.000  C
  H60      1.0000 0.65050  0.79770  0.49910  Biso   1.000  H
  C95      1.0000 0.17438  0.45920  0.02569  Biso   1.000  C
  H61      1.0000 0.13260  0.48330  0.00540  Biso   1.000  H
  C96      1.0000 0.25430  0.20670  0.76216  Biso   1.000  C
  H62      1.0000 0.27290  0.17140  0.74460  Biso   1.000  H
  C97      1.0000 0.52651  0.14480  0.11545  Biso   1.000  C
  H63      1.0000 0.54370  0.13660  0.15510  Biso   1.000  H
  C98      1.0000 0.78946  0.05140  0.25938  Biso   1.000  C
  H64      1.0000 0.81260  0.07480  0.24020  Biso   1.000  H
  C99      1.0000 0.99770  0.07550  0.59205  Biso   1.000  C
  H65      1.0000 0.97910  0.04690  0.61300  Biso   1.000  H
  C100     1.0000 0.78869  0.00740  0.34750  Biso   1.000  C
  C101     1.0000 0.26377  0.37800  0.02481  Biso   1.000  C
  C102     1.0000 0.17276  0.29690  0.75540  Biso   1.000  C
  H66      1.0000 0.13410  0.32590  0.73280  Biso   1.000  H
  C103     1.0000 0.72243  0.98170  0.31585  Biso   1.000  C
  H67      1.0000 0.69840  0.95760  0.33400  Biso   1.000  H
  C104     1.0000 0.81365  0.89170  0.58101  Biso   1.000  C
  H68      1.0000 0.85560  0.91440  0.60310  Biso   1.000  H
  C105     1.0000 0.29539  0.38890  0.08434  Biso   1.000  C
  H69      1.0000 0.33740  0.36610  0.10590  Biso   1.000  H
  C106     1.0000 0.19801  0.30530  0.81435  Biso   1.000  C
  H70      1.0000 0.17650  0.33780  0.83100  Biso   1.000  H
  C107     1.0000 0.28398  0.21160  0.82155  Biso   1.000  C
  H71      1.0000 0.32160  0.18040  0.84330  Biso   1.000  H
  C108     1.0000 0.05678  0.11910  0.61992  Biso   1.000  C
  H72      1.0000 0.07660  0.12020  0.66000  Biso   1.000  H
  N25      1.0000 0.56049  0.11428  0.08781  Biso   1.000  N
  N26      1.0000 0.20383  0.46893  0.08266  Biso   1.000  N
  N27      1.0000 0.19981  0.25020  0.72825  Biso   1.000  N
  N28      1.0000 0.35189  0.28904  0.02695  Biso   1.000  N
  N29      1.0000 0.26154  0.32270  0.93673  Biso   1.000  N
  N30      1.0000 0.34648  0.23159  0.94016  Biso   1.000  N
  N31      1.0000 0.08678  0.15980  0.59226  Biso   1.000  N
  N32      1.0000 0.71986  0.81468  0.57794  Biso   1.000  N
  N33      1.0000 0.72523  0.02680  0.22813  Biso   1.000  N
  N34      1.0000 0.87410  0.99018  0.52660  Biso   1.000  N
  N35      1.0000 0.78909  0.95088  0.43517  Biso   1.000  N
  N36      1.0000 0.87799  0.03761  0.44064  Biso   1.000  N
  Ag7      1.0000 0.15596  0.54164  0.13189  Biso   1.000  Ag
  Ag8      1.0000 0.67695  0.74999  0.63235  Biso   1.000  Ag
  C109     1.0000 0.87572  0.74250  0.99705  Biso   1.000  C
  C110     1.0000 0.76430  0.93330  0.11096  Biso   1.000  C
  H73      1.0000 0.78610  0.93910  0.15080  Biso   1.000  H
  C111     1.0000 0.49719  0.61700  0.50320  Biso   1.000  C
  H74      1.0000 0.47780  0.61730  0.46310  Biso   1.000  H
  C112     1.0000 0.40269  0.53090  0.49842  Biso   1.000  C
  C113     1.0000 0.93987  0.69750  0.02935  Biso   1.000  C
  C114     1.0000 0.96680  0.68810  0.08870  Biso   1.000  C
  H75      1.0000 0.94560  0.71010  0.10990  Biso   1.000  H
  C115     1.0000 0.28024  0.34990  0.60705  Biso   1.000  C
  H76      1.0000 0.30050  0.34560  0.64700  Biso   1.000  H
  C116     1.0000 0.22220  0.36300  0.49024  Biso   1.000  C
  H77      1.0000 0.20140  0.36600  0.45020  Biso   1.000  H
  C117     1.0000 0.97328  0.66340  0.99970  Biso   1.000  C
  H78      1.0000 0.95580  0.66770  0.95980  Biso   1.000  H
  C118     1.0000 0.55653  0.65810  0.53411  Biso   1.000  C
  H79      1.0000 0.57660  0.68580  0.51400  Biso   1.000  H
  C119     1.0000 0.75693  0.76350  0.84813  Biso   1.000  C
  C120     1.0000 0.32187  0.54310  0.31822  Biso   1.000  C
  H80      1.0000 0.36580  0.56150  0.33830  Biso   1.000  H
  C121     1.0000 0.78965  0.77340  0.91176  Biso   1.000  C
  C122     1.0000 0.31789  0.44950  0.49264  Biso   1.000  C
  C123     1.0000 0.70144  0.91580  0.99451  Biso   1.000  C
  H81      1.0000 0.67890  0.91190  0.95460  Biso   1.000  H
  C124     1.0000 0.32025  0.49740  0.41104  Biso   1.000  C
  C125     1.0000 0.19359  0.49300  0.25659  Biso   1.000  C
  H82      1.0000 0.14950  0.47600  0.23550  Biso   1.000  H
  C126     1.0000 0.79422  0.82720  0.99427  Biso   1.000  C
  C127     1.0000 0.28462  0.40000  0.52183  Biso   1.000  C
  C128     1.0000 0.03307  0.62300  0.03045  Biso   1.000  C
  H83      1.0000 0.05540  0.60060  0.01030  Biso   1.000  H
  C129     1.0000 0.46702  0.57540  0.53241  Biso   1.000  C
  C130     1.0000 0.19213  0.32180  0.52013  Biso   1.000  C
  H84      1.0000 0.15050  0.29770  0.49910  Biso   1.000  H
  C131     1.0000 0.67438  0.95920  0.02569  Biso   1.000  C
  H85      1.0000 0.63260  0.98330  0.00540  Biso   1.000  H
  C132     1.0000 0.75430  0.70670  0.76216  Biso   1.000  C
  H86      1.0000 0.77290  0.67140  0.74460  Biso   1.000  H
  C133     1.0000 0.02651  0.64480  0.11545  Biso   1.000  C
  H87      1.0000 0.04370  0.63660  0.15510  Biso   1.000  H
  C134     1.0000 0.28946  0.55140  0.25938  Biso   1.000  C
  H88      1.0000 0.31260  0.57480  0.24020  Biso   1.000  H
  C135     1.0000 0.49770  0.57550  0.59205  Biso   1.000  C
  H89      1.0000 0.47910  0.54690  0.61300  Biso   1.000  H
  C136     1.0000 0.28869  0.50740  0.34750  Biso   1.000  C
  C137     1.0000 0.76377  0.87800  0.02481  Biso   1.000  C
  C138     1.0000 0.67276  0.79690  0.75540  Biso   1.000  C
  H90      1.0000 0.63410  0.82590  0.73280  Biso   1.000  H
  C139     1.0000 0.22243  0.48170  0.31585  Biso   1.000  C
  H91      1.0000 0.19840  0.45760  0.33400  Biso   1.000  H
  C140     1.0000 0.31365  0.39170  0.58101  Biso   1.000  C
  H92      1.0000 0.35560  0.41440  0.60310  Biso   1.000  H
  C141     1.0000 0.79539  0.88890  0.08434  Biso   1.000  C
  H93      1.0000 0.83740  0.86610  0.10590  Biso   1.000  H
  C142     1.0000 0.69801  0.80530  0.81435  Biso   1.000  C
  H94      1.0000 0.67650  0.83780  0.83100  Biso   1.000  H
  C143     1.0000 0.78398  0.71160  0.82155  Biso   1.000  C
  H95      1.0000 0.82160  0.68040  0.84330  Biso   1.000  H
  C144     1.0000 0.55678  0.61910  0.61992  Biso   1.000  C
  H96      1.0000 0.57660  0.62020  0.66000  Biso   1.000  H
  N37      1.0000 0.06049  0.61428  0.08781  Biso   1.000  N
  N38      1.0000 0.70383  0.96893  0.08266  Biso   1.000  N
  N39      1.0000 0.69981  0.75020  0.72825  Biso   1.000  N
  N40      1.0000 0.85189  0.78904  0.02695  Biso   1.000  N
  N41      1.0000 0.76154  0.82270  0.93673  Biso   1.000  N
  N42      1.0000 0.84648  0.73159  0.94016  Biso   1.000  N
  N43      1.0000 0.58678  0.65980  0.59226  Biso   1.000  N
  N44      1.0000 0.21986  0.31468  0.57794  Biso   1.000  N
  N45      1.0000 0.22523  0.52680  0.22813  Biso   1.000  N
  N46      1.0000 0.37410  0.49018  0.52660  Biso   1.000  N
  N47      1.0000 0.28909  0.45088  0.43517  Biso   1.000  N
  N48      1.0000 0.37799  0.53761  0.44064  Biso   1.000  N
  Ag9      1.0000 0.65596  0.95836  0.63189  Biso   1.000  Ag
  Ag10     1.0000 0.17695  0.75001  0.13235  Biso   1.000  Ag
  C145     1.0000 0.37572  0.75750  0.49705  Biso   1.000  C
  C146     1.0000 0.26430  0.56670  0.61096  Biso   1.000  C
  H97      1.0000 0.28610  0.56090  0.65080  Biso   1.000  H
  C147     1.0000 0.99719  0.88300  0.00320  Biso   1.000  C
  H98      1.0000 0.97780  0.88270  0.96310  Biso   1.000  H
  C148     1.0000 0.90269  0.96910  0.99842  Biso   1.000  C
  C149     1.0000 0.43987  0.80250  0.52935  Biso   1.000  C
  C150     1.0000 0.46680  0.81190  0.58870  Biso   1.000  C
  H99      1.0000 0.44560  0.78990  0.60990  Biso   1.000  H
  C151     1.0000 0.78024  0.15010  0.10705  Biso   1.000  C
  H100     1.0000 0.80050  0.15440  0.14700  Biso   1.000  H
  C152     1.0000 0.72220  0.13700  0.99024  Biso   1.000  C
  H101     1.0000 0.70140  0.13400  0.95020  Biso   1.000  H
  C153     1.0000 0.47328  0.83660  0.49970  Biso   1.000  C
  H102     1.0000 0.45580  0.83230  0.45980  Biso   1.000  H
  C154     1.0000 0.05653  0.84190  0.03411  Biso   1.000  C
  H103     1.0000 0.07660  0.81420  0.01400  Biso   1.000  H
  C155     1.0000 0.25693  0.73650  0.34813  Biso   1.000  C
  C156     1.0000 0.82187  0.95690  0.81822  Biso   1.000  C
  H104     1.0000 0.86580  0.93850  0.83830  Biso   1.000  H
  C157     1.0000 0.28965  0.72660  0.41176  Biso   1.000  C
  C158     1.0000 0.81789  0.05050  0.99264  Biso   1.000  C
  C159     1.0000 0.20144  0.58420  0.49451  Biso   1.000  C
  H105     1.0000 0.17890  0.58810  0.45460  Biso   1.000  H
  C160     1.0000 0.82025  0.00260  0.91104  Biso   1.000  C
  C161     1.0000 0.69359  0.00700  0.75659  Biso   1.000  C
  H106     1.0000 0.64950  0.02400  0.73550  Biso   1.000  H
  C162     1.0000 0.29422  0.67280  0.49427  Biso   1.000  C
  C163     1.0000 0.78462  0.10000  0.02183  Biso   1.000  C
  C164     1.0000 0.53307  0.87700  0.53045  Biso   1.000  C
  H107     1.0000 0.55540  0.89940  0.51030  Biso   1.000  H
  C165     1.0000 0.96702  0.92460  0.03241  Biso   1.000  C
  C166     1.0000 0.69213  0.17820  0.02013  Biso   1.000  C
  H108     1.0000 0.65050  0.20230  0.99910  Biso   1.000  H
  C167     1.0000 0.17438  0.54080  0.52569  Biso   1.000  C
  H109     1.0000 0.13260  0.51670  0.50540  Biso   1.000  H
  C168     1.0000 0.25430  0.79330  0.26216  Biso   1.000  C
  H110     1.0000 0.27290  0.82860  0.24460  Biso   1.000  H
  C169     1.0000 0.52651  0.85520  0.61545  Biso   1.000  C
  H111     1.0000 0.54370  0.86340  0.65510  Biso   1.000  H
  C170     1.0000 0.78946  0.94860  0.75938  Biso   1.000  C
  H112     1.0000 0.81260  0.92520  0.74020  Biso   1.000  H
  C171     1.0000 0.99770  0.92450  0.09205  Biso   1.000  C
  H113     1.0000 0.97910  0.95310  0.11300  Biso   1.000  H
  C172     1.0000 0.78869  0.99260  0.84750  Biso   1.000  C
  C173     1.0000 0.26377  0.62200  0.52481  Biso   1.000  C
  C174     1.0000 0.17276  0.70310  0.25540  Biso   1.000  C
  H114     1.0000 0.13410  0.67410  0.23280  Biso   1.000  H
  C175     1.0000 0.72243  0.01830  0.81585  Biso   1.000  C
  H115     1.0000 0.69840  0.04240  0.83400  Biso   1.000  H
  C176     1.0000 0.81365  0.10830  0.08101  Biso   1.000  C
  H116     1.0000 0.85560  0.08560  0.10310  Biso   1.000  H
  C177     1.0000 0.29539  0.61110  0.58434  Biso   1.000  C
  H117     1.0000 0.33740  0.63390  0.60590  Biso   1.000  H
  C178     1.0000 0.19801  0.69470  0.31435  Biso   1.000  C
  H118     1.0000 0.17650  0.66220  0.33100  Biso   1.000  H
  C179     1.0000 0.28398  0.78840  0.32155  Biso   1.000  C
  H119     1.0000 0.32160  0.81960  0.34330  Biso   1.000  H
  C180     1.0000 0.05678  0.88090  0.11992  Biso   1.000  C
  H120     1.0000 0.07660  0.87980  0.16000  Biso   1.000  H
  N49      1.0000 0.56049  0.88572  0.58781  Biso   1.000  N
  N50      1.0000 0.20383  0.53107  0.58266  Biso   1.000  N
  N51      1.0000 0.19981  0.74980  0.22825  Biso   1.000  N
  N52      1.0000 0.35189  0.71096  0.52695  Biso   1.000  N
  N53      1.0000 0.26154  0.67730  0.43673  Biso   1.000  N
  N54      1.0000 0.34648  0.76841  0.44016  Biso   1.000  N
  N55      1.0000 0.08678  0.84020  0.09226  Biso   1.000  N
  N56      1.0000 0.71986  0.18532  0.07794  Biso   1.000  N
  N57      1.0000 0.72523  0.97320  0.72813  Biso   1.000  N
  N58      1.0000 0.87410  0.00982  0.02660  Biso   1.000  N
  N59      1.0000 0.78909  0.04912  0.93517  Biso   1.000  N
  N60      1.0000 0.87799  0.96239  0.94064  Biso   1.000  N
  Ag11     1.0000 0.15596  0.45836  0.63189  Biso   1.000  Ag
  Ag12     1.0000 0.67695  0.25001  0.13235  Biso   1.000  Ag
  C181     1.0000 0.87572  0.25750  0.49705  Biso   1.000  C
  C182     1.0000 0.76430  0.06670  0.61096  Biso   1.000  C
  H121     1.0000 0.78610  0.06090  0.65080  Biso   1.000  H
  C183     1.0000 0.49719  0.38300  0.00320  Biso   1.000  C
  H122     1.0000 0.47780  0.38270  0.96310  Biso   1.000  H
  C184     1.0000 0.40269  0.46910  0.99842  Biso   1.000  C
  C185     1.0000 0.93987  0.30250  0.52935  Biso   1.000  C
  C186     1.0000 0.96680  0.31190  0.58870  Biso   1.000  C
  H123     1.0000 0.94560  0.28990  0.60990  Biso   1.000  H
  C187     1.0000 0.28024  0.65010  0.10705  Biso   1.000  C
  H124     1.0000 0.30050  0.65440  0.14700  Biso   1.000  H
  C188     1.0000 0.22220  0.63700  0.99024  Biso   1.000  C
  H125     1.0000 0.20140  0.63400  0.95020  Biso   1.000  H
  C189     1.0000 0.97328  0.33660  0.49970  Biso   1.000  C
  H126     1.0000 0.95580  0.33230  0.45980  Biso   1.000  H
  C190     1.0000 0.55653  0.34190  0.03411  Biso   1.000  C
  H127     1.0000 0.57660  0.31420  0.01400  Biso   1.000  H
  C191     1.0000 0.75693  0.23650  0.34813  Biso   1.000  C
  C192     1.0000 0.32187  0.45690  0.81822  Biso   1.000  C
  H128     1.0000 0.36580  0.43850  0.83830  Biso   1.000  H
  C193     1.0000 0.78965  0.22660  0.41176  Biso   1.000  C
  C194     1.0000 0.31789  0.55050  0.99264  Biso   1.000  C
  C195     1.0000 0.70144  0.08420  0.49451  Biso   1.000  C
  H129     1.0000 0.67890  0.08810  0.45460  Biso   1.000  H
  C196     1.0000 0.32025  0.50260  0.91104  Biso   1.000  C
  C197     1.0000 0.19359  0.50700  0.75659  Biso   1.000  C
  H130     1.0000 0.14950  0.52400  0.73550  Biso   1.000  H
  C198     1.0000 0.79422  0.17280  0.49427  Biso   1.000  C
  C199     1.0000 0.28462  0.60000  0.02183  Biso   1.000  C
  C200     1.0000 0.03307  0.37700  0.53045  Biso   1.000  C
  H131     1.0000 0.05540  0.39940  0.51030  Biso   1.000  H
  C201     1.0000 0.46702  0.42460  0.03241  Biso   1.000  C
  C202     1.0000 0.19213  0.67820  0.02013  Biso   1.000  C
  H132     1.0000 0.15050  0.70230  0.99910  Biso   1.000  H
  C203     1.0000 0.67438  0.04080  0.52569  Biso   1.000  C
  H133     1.0000 0.63260  0.01670  0.50540  Biso   1.000  H
  C204     1.0000 0.75430  0.29330  0.26216  Biso   1.000  C
  H134     1.0000 0.77290  0.32860  0.24460  Biso   1.000  H
  C205     1.0000 0.02651  0.35520  0.61545  Biso   1.000  C
  H135     1.0000 0.04370  0.36340  0.65510  Biso   1.000  H
  C206     1.0000 0.28946  0.44860  0.75938  Biso   1.000  C
  H136     1.0000 0.31260  0.42520  0.74020  Biso   1.000  H
  C207     1.0000 0.49770  0.42450  0.09205  Biso   1.000  C
  H137     1.0000 0.47910  0.45310  0.11300  Biso   1.000  H
  C208     1.0000 0.28869  0.49260  0.84750  Biso   1.000  C
  C209     1.0000 0.76377  0.12200  0.52481  Biso   1.000  C
  C210     1.0000 0.67276  0.20310  0.25540  Biso   1.000  C
  H138     1.0000 0.63410  0.17410  0.23280  Biso   1.000  H
  C211     1.0000 0.22243  0.51830  0.81585  Biso   1.000  C
  H139     1.0000 0.19840  0.54240  0.83400  Biso   1.000  H
  C212     1.0000 0.31365  0.60830  0.08101  Biso   1.000  C
  H140     1.0000 0.35560  0.58560  0.10310  Biso   1.000  H
  C213     1.0000 0.79539  0.11110  0.58434  Biso   1.000  C
  H141     1.0000 0.83740  0.13390  0.60590  Biso   1.000  H
  C214     1.0000 0.69801  0.19470  0.31435  Biso   1.000  C
  H142     1.0000 0.67650  0.16220  0.33100  Biso   1.000  H
  C215     1.0000 0.78398  0.28840  0.32155  Biso   1.000  C
  H143     1.0000 0.82160  0.31960  0.34330  Biso   1.000  H
  C216     1.0000 0.55678  0.38090  0.11992  Biso   1.000  C
  H144     1.0000 0.57660  0.37980  0.16000  Biso   1.000  H
  N61      1.0000 0.06049  0.38572  0.58781  Biso   1.000  N
  N62      1.0000 0.70383  0.03107  0.58266  Biso   1.000  N
  N63      1.0000 0.69981  0.24980  0.22825  Biso   1.000  N
  N64      1.0000 0.85189  0.21096  0.52695  Biso   1.000  N
  N65      1.0000 0.76154  0.17730  0.43673  Biso   1.000  N
  N66      1.0000 0.84648  0.26841  0.44016  Biso   1.000  N
  N67      1.0000 0.58678  0.34020  0.09226  Biso   1.000  N
  N68      1.0000 0.21986  0.68532  0.07794  Biso   1.000  N
  N69      1.0000 0.22523  0.47320  0.72813  Biso   1.000  N
  N70      1.0000 0.37410  0.50982  0.02660  Biso   1.000  N
  N71      1.0000 0.28909  0.54912  0.93517  Biso   1.000  N
  N72      1.0000 0.37799  0.46239  0.94064  Biso   1.000  N
  Ag13     1.0000 0.34404  0.95836  0.86811  Biso   1.000  Ag
  Ag14     1.0000 0.82305  0.75001  0.36765  Biso   1.000  Ag
  C217     1.0000 0.62428  0.75750  0.00295  Biso   1.000  C
  C218     1.0000 0.73570  0.56670  0.88904  Biso   1.000  C
  H145     1.0000 0.71390  0.56090  0.84920  Biso   1.000  H
  C219     1.0000 0.00281  0.88300  0.49680  Biso   1.000  C
  H146     1.0000 0.02220  0.88270  0.53690  Biso   1.000  H
  C220     1.0000 0.09731  0.96910  0.50158  Biso   1.000  C
  C221     1.0000 0.56013  0.80250  0.97065  Biso   1.000  C
  C222     1.0000 0.53320  0.81190  0.91130  Biso   1.000  C
  H147     1.0000 0.55440  0.78990  0.89010  Biso   1.000  H
  C223     1.0000 0.21976  0.15010  0.39295  Biso   1.000  C
  H148     1.0000 0.19950  0.15440  0.35300  Biso   1.000  H
  C224     1.0000 0.27780  0.13700  0.50976  Biso   1.000  C
  H149     1.0000 0.29860  0.13400  0.54980  Biso   1.000  H
  C225     1.0000 0.52672  0.83660  0.00030  Biso   1.000  C
  H150     1.0000 0.54420  0.83230  0.04020  Biso   1.000  H
  C226     1.0000 0.94347  0.84190  0.46589  Biso   1.000  C
  H151     1.0000 0.92340  0.81420  0.48600  Biso   1.000  H
  C227     1.0000 0.74307  0.73650  0.15187  Biso   1.000  C
  C228     1.0000 0.17813  0.95690  0.68178  Biso   1.000  C
  H152     1.0000 0.13420  0.93850  0.66170  Biso   1.000  H
  C229     1.0000 0.71035  0.72660  0.08824  Biso   1.000  C
  C230     1.0000 0.18211  0.05050  0.50736  Biso   1.000  C
  C231     1.0000 0.79856  0.58420  0.00549  Biso   1.000  C
  H153     1.0000 0.82110  0.58810  0.04540  Biso   1.000  H
  C232     1.0000 0.17975  0.00260  0.58896  Biso   1.000  C
  C233     1.0000 0.30641  0.00700  0.74341  Biso   1.000  C
  H154     1.0000 0.35050  0.02400  0.76450  Biso   1.000  H
  C234     1.0000 0.70578  0.67280  0.00573  Biso   1.000  C
  C235     1.0000 0.21538  0.10000  0.47817  Biso   1.000  C
  C236     1.0000 0.46693  0.87700  0.96955  Biso   1.000  C
  H155     1.0000 0.44460  0.89940  0.98970  Biso   1.000  H
  C237     1.0000 0.03298  0.92460  0.46759  Biso   1.000  C
  C238     1.0000 0.30787  0.17820  0.47987  Biso   1.000  C
  H156     1.0000 0.34950  0.20230  0.50090  Biso   1.000  H
  C239     1.0000 0.82562  0.54080  0.97431  Biso   1.000  C
  H157     1.0000 0.86740  0.51670  0.99460  Biso   1.000  H
  C240     1.0000 0.74570  0.79330  0.23784  Biso   1.000  C
  H158     1.0000 0.72710  0.82860  0.25540  Biso   1.000  H
  C241     1.0000 0.47349  0.85520  0.88455  Biso   1.000  C
  H159     1.0000 0.45630  0.86340  0.84490  Biso   1.000  H
  C242     1.0000 0.21054  0.94860  0.74062  Biso   1.000  C
  H160     1.0000 0.18740  0.92520  0.75980  Biso   1.000  H
  C243     1.0000 0.00230  0.92450  0.40795  Biso   1.000  C
  H161     1.0000 0.02090  0.95310  0.38700  Biso   1.000  H
  C244     1.0000 0.21131  0.99260  0.65250  Biso   1.000  C
  C245     1.0000 0.73623  0.62200  0.97519  Biso   1.000  C
  C246     1.0000 0.82724  0.70310  0.24460  Biso   1.000  C
  H162     1.0000 0.86590  0.67410  0.26720  Biso   1.000  H
  C247     1.0000 0.27757  0.01830  0.68415  Biso   1.000  C
  H163     1.0000 0.30160  0.04240  0.66600  Biso   1.000  H
  C248     1.0000 0.18635  0.10830  0.41899  Biso   1.000  C
  H164     1.0000 0.14440  0.08560  0.39690  Biso   1.000  H
  C249     1.0000 0.70461  0.61110  0.91566  Biso   1.000  C
  H165     1.0000 0.66260  0.63390  0.89410  Biso   1.000  H
  C250     1.0000 0.80199  0.69470  0.18565  Biso   1.000  C
  H166     1.0000 0.82350  0.66220  0.16900  Biso   1.000  H
  C251     1.0000 0.71602  0.78840  0.17845  Biso   1.000  C
  H167     1.0000 0.67840  0.81960  0.15670  Biso   1.000  H
  C252     1.0000 0.94322  0.88090  0.38008  Biso   1.000  C
  H168     1.0000 0.92340  0.87980  0.34000  Biso   1.000  H
  N73      1.0000 0.43951  0.88572  0.91219  Biso   1.000  N
  N74      1.0000 0.79617  0.53107  0.91734  Biso   1.000  N
  N75      1.0000 0.80019  0.74980  0.27175  Biso   1.000  N
  N76      1.0000 0.64811  0.71096  0.97305  Biso   1.000  N
  N77      1.0000 0.73846  0.67730  0.06327  Biso   1.000  N
  N78      1.0000 0.65352  0.76841  0.05984  Biso   1.000  N
  N79      1.0000 0.91322  0.84020  0.40774  Biso   1.000  N
  N80      1.0000 0.28014  0.18532  0.42206  Biso   1.000  N
  N81      1.0000 0.27477  0.97320  0.77187  Biso   1.000  N
  N82      1.0000 0.12590  0.00982  0.47340  Biso   1.000  N
  N83      1.0000 0.21091  0.04912  0.56483  Biso   1.000  N
  N84      1.0000 0.12201  0.96239  0.55936  Biso   1.000  N
  Ag15     1.0000 0.84404  0.45836  0.86811  Biso   1.000  Ag
  Ag16     1.0000 0.32305  0.25001  0.36765  Biso   1.000  Ag
  C253     1.0000 0.12428  0.25750  0.00295  Biso   1.000  C
  C254     1.0000 0.23570  0.06670  0.88904  Biso   1.000  C
  H169     1.0000 0.21390  0.06090  0.84920  Biso   1.000  H
  C255     1.0000 0.50281  0.38300  0.49680  Biso   1.000  C
  H170     1.0000 0.52220  0.38270  0.53690  Biso   1.000  H
  C256     1.0000 0.59731  0.46910  0.50158  Biso   1.000  C
  C257     1.0000 0.06013  0.30250  0.97065  Biso   1.000  C
  C258     1.0000 0.03320  0.31190  0.91130  Biso   1.000  C
  H171     1.0000 0.05440  0.28990  0.89010  Biso   1.000  H
  C259     1.0000 0.71976  0.65010  0.39295  Biso   1.000  C
  H172     1.0000 0.69950  0.65440  0.35300  Biso   1.000  H
  C260     1.0000 0.77780  0.63700  0.50976  Biso   1.000  C
  H173     1.0000 0.79860  0.63400  0.54980  Biso   1.000  H
  C261     1.0000 0.02672  0.33660  0.00030  Biso   1.000  C
  H174     1.0000 0.04420  0.33230  0.04020  Biso   1.000  H
  C262     1.0000 0.44347  0.34190  0.46589  Biso   1.000  C
  H175     1.0000 0.42340  0.31420  0.48600  Biso   1.000  H
  C263     1.0000 0.24307  0.23650  0.15187  Biso   1.000  C
  C264     1.0000 0.67813  0.45690  0.68178  Biso   1.000  C
  H176     1.0000 0.63420  0.43850  0.66170  Biso   1.000  H
  C265     1.0000 0.21035  0.22660  0.08824  Biso   1.000  C
  C266     1.0000 0.68211  0.55050  0.50736  Biso   1.000  C
  C267     1.0000 0.29856  0.08420  0.00549  Biso   1.000  C
  H177     1.0000 0.32110  0.08810  0.04540  Biso   1.000  H
  C268     1.0000 0.67975  0.50260  0.58896  Biso   1.000  C
  C269     1.0000 0.80641  0.50700  0.74341  Biso   1.000  C
  H178     1.0000 0.85050  0.52400  0.76450  Biso   1.000  H
  C270     1.0000 0.20578  0.17280  0.00573  Biso   1.000  C
  C271     1.0000 0.71538  0.60000  0.47817  Biso   1.000  C
  C272     1.0000 0.96693  0.37700  0.96955  Biso   1.000  C
  H179     1.0000 0.94460  0.39940  0.98970  Biso   1.000  H
  C273     1.0000 0.53298  0.42460  0.46759  Biso   1.000  C
  C274     1.0000 0.80787  0.67820  0.47987  Biso   1.000  C
  H180     1.0000 0.84950  0.70230  0.50090  Biso   1.000  H
  C275     1.0000 0.32562  0.04080  0.97431  Biso   1.000  C
  H181     1.0000 0.36740  0.01670  0.99460  Biso   1.000  H
  C276     1.0000 0.24570  0.29330  0.23784  Biso   1.000  C
  H182     1.0000 0.22710  0.32860  0.25540  Biso   1.000  H
  C277     1.0000 0.97349  0.35520  0.88455  Biso   1.000  C
  H183     1.0000 0.95630  0.36340  0.84490  Biso   1.000  H
  C278     1.0000 0.71054  0.44860  0.74062  Biso   1.000  C
  H184     1.0000 0.68740  0.42520  0.75980  Biso   1.000  H
  C279     1.0000 0.50230  0.42450  0.40795  Biso   1.000  C
  H185     1.0000 0.52090  0.45310  0.38700  Biso   1.000  H
  C280     1.0000 0.71131  0.49260  0.65250  Biso   1.000  C
  C281     1.0000 0.23623  0.12200  0.97519  Biso   1.000  C
  C282     1.0000 0.32724  0.20310  0.24460  Biso   1.000  C
  H186     1.0000 0.36590  0.17410  0.26720  Biso   1.000  H
  C283     1.0000 0.77757  0.51830  0.68415  Biso   1.000  C
  H187     1.0000 0.80160  0.54240  0.66600  Biso   1.000  H
  C284     1.0000 0.68635  0.60830  0.41899  Biso   1.000  C
  H188     1.0000 0.64440  0.58560  0.39690  Biso   1.000  H
  C285     1.0000 0.20461  0.11110  0.91566  Biso   1.000  C
  H189     1.0000 0.16260  0.13390  0.89410  Biso   1.000  H
  C286     1.0000 0.30199  0.19470  0.18565  Biso   1.000  C
  H190     1.0000 0.32350  0.16220  0.16900  Biso   1.000  H
  C287     1.0000 0.21602  0.28840  0.17845  Biso   1.000  C
  H191     1.0000 0.17840  0.31960  0.15670  Biso   1.000  H
  C288     1.0000 0.44322  0.38090  0.38008  Biso   1.000  C
  H192     1.0000 0.42340  0.37980  0.34000  Biso   1.000  H
  N85      1.0000 0.93951  0.38572  0.91219  Biso   1.000  N
  N86      1.0000 0.29617  0.03107  0.91734  Biso   1.000  N
  N87      1.0000 0.30019  0.24980  0.27175  Biso   1.000  N
  N88      1.0000 0.14811  0.21096  0.97305  Biso   1.000  N
  N89      1.0000 0.23846  0.17730  0.06327  Biso   1.000  N
  N90      1.0000 0.15352  0.26841  0.05984  Biso   1.000  N
  N91      1.0000 0.41322  0.34020  0.40774  Biso   1.000  N
  N92      1.0000 0.78014  0.68532  0.42206  Biso   1.000  N
  N93      1.0000 0.77477  0.47320  0.77187  Biso   1.000  N
  N94      1.0000 0.62590  0.50982  0.47340  Biso   1.000  N
  N95      1.0000 0.71091  0.54912  0.56483  Biso   1.000  N
  N96      1.0000 0.62201  0.46239  0.55936  Biso   1.000  N
