data_image0
_cell_length_a       21.9717
_cell_length_b       16.6692
_cell_length_c       25.6289
_cell_angle_alpha    90
_cell_angle_beta     115.344
_cell_angle_gamma    90

_symmetry_space_group_name_H-M    "P 1"
_symmetry_int_tables_number       1

loop_
  _symmetry_equiv_pos_as_xyz
  'x, y, z'

loop_
  _atom_site_label
  _atom_site_occupancy
  _atom_site_fract_x
  _atom_site_fract_y
  _atom_site_fract_z
  _atom_site_thermal_displace_type
  _atom_site_B_iso_or_equiv
  _atom_site_type_symbol
  Ag1      1.0000 0.27371  0.20896  0.86808  Biso   1.000  Ag
  Ag2      1.0000 0.29539  0.00244  0.36756  Biso   1.000  Ag
  C1       1.0000 0.92210  0.39970  0.39200  Biso   1.000  C
  H1       1.0000 0.90170  0.40340  0.35190  Biso   1.000  H
  C2       1.0000 0.15350  0.22000  0.50080  Biso   1.000  C
  C3       1.0000 0.12760  0.06140  0.91090  Biso   1.000  C
  H2       1.0000 0.08490  0.04010  0.88960  Biso   1.000  H
  C4       1.0000 0.12800  0.00720  0.00190  Biso   1.000  C
  C5       1.0000 0.98170  0.38700  0.50900  Biso   1.000  C
  H3       1.0000 0.00090  0.38360  0.54910  Biso   1.000  H
  C6       1.0000 0.90300  0.81540  0.88890  Biso   1.000  C
  H4       1.0000 0.88530  0.80830  0.84910  Biso   1.000  H
  C7       1.0000 0.07480  0.30150  0.50630  Biso   1.000  C
  C8       1.0000 0.24340  0.13340  0.49650  Biso   1.000  C
  H5       1.0000 0.26370  0.13230  0.53670  Biso   1.000  H
  C9       1.0000 0.27110  0.09320  0.46480  Biso   1.000  C
  H6       1.0000 0.31130  0.06580  0.48480  Biso   1.000  H
  C10      1.0000 0.22280  0.08500  0.99900  Biso   1.000  C
  H7       1.0000 0.24600  0.07990  0.03880  Biso   1.000  H
  C11      1.0000 0.15960  0.05170  0.96950  Biso   1.000  C
  C12      1.0000 0.12740  0.97590  0.08750  Biso   1.000  C
  C13      1.0000 0.15830  0.98560  0.15120  Biso   1.000  C
  C14      1.0000 0.96060  0.86130  0.91530  Biso   1.000  C
  H8       1.0000 0.98040  0.88440  0.89340  Biso   1.000  H
  C15      1.0000 0.18390  0.17570  0.46630  Biso   1.000  C
  C16      1.0000 0.19000  0.24240  0.65140  Biso   1.000  C
  C17      1.0000 0.25070  0.12590  0.96780  Biso   1.000  C
  H9       1.0000 0.29280  0.14900  0.98810  Biso   1.000  H
  C18      1.0000 0.98210  0.35800  0.41830  Biso   1.000  C
  H10      1.0000 0.00170  0.33550  0.39600  Biso   1.000  H
  C19      1.0000 0.95720  0.83380  0.00510  Biso   1.000  C
  H11      1.0000 0.97500  0.83710  0.04520  Biso   1.000  H
  C20      1.0000 0.25200  0.20730  0.68050  Biso   1.000  C
  H12      1.0000 0.27590  0.18960  0.66020  Biso   1.000  H
  C21      1.0000 0.04950  0.92280  0.00510  Biso   1.000  C
  C22      1.0000 0.27910  0.19820  0.73990  Biso   1.000  C
  H13      1.0000 0.32110  0.17430  0.75890  Biso   1.000  H
  C23      1.0000 0.16060  0.10390  0.88430  Biso   1.000  C
  H14      1.0000 0.13820  0.11140  0.84460  Biso   1.000  H
  C24      1.0000 0.01260  0.34990  0.47700  Biso   1.000  C
  C25      1.0000 0.15580  0.26820  0.68320  Biso   1.000  C
  H15      1.0000 0.11360  0.29210  0.66540  Biso   1.000  H
  C26      1.0000 0.15830  0.25160  0.58740  Biso   1.000  C
  C27      1.0000 0.89900  0.79070  0.97430  Biso   1.000  C
  H16      1.0000 0.87770  0.76690  0.99490  Biso   1.000  H
  C28      1.0000 0.18710  0.25660  0.74240  Biso   1.000  C
  H17      1.0000 0.16430  0.27410  0.76370  Biso   1.000  H
  C29      1.0000 0.15520  0.17520  0.40700  Biso   1.000  C
  H18      1.0000 0.11600  0.20400  0.38600  Biso   1.000  H
  C30      1.0000 0.92220  0.42860  0.47930  Biso   1.000  C
  H19      1.0000 0.90220  0.45340  0.50050  Biso   1.000  H
  C31      1.0000 0.24120  0.04390  0.23680  Biso   1.000  C
  H20      1.0000 0.27670  0.07960  0.25420  Biso   1.000  H
  C32      1.0000 0.21180  0.03770  0.17740  Biso   1.000  C
  H21      1.0000 0.22770  0.06800  0.15540  Biso   1.000  H
  C33      1.0000 0.13330  0.94490  0.18460  Biso   1.000  C
  H22      1.0000 0.09510  0.91280  0.16800  Biso   1.000  H
  C34      1.0000 0.98880  0.87270  0.97470  Biso   1.000  C
  C35      1.0000 0.16740  0.95380  0.24420  Biso   1.000  C
  H23      1.0000 0.15160  0.92490  0.26700  Biso   1.000  H
  C36      1.0000 0.18590  0.13120  0.37950  Biso   1.000  C
  H24      1.0000 0.16520  0.12920  0.33940  Biso   1.000  H
  N1       1.0000 0.22200  0.13460  0.91160  Biso   1.000  N
  N2       1.0000 0.87140  0.78080  0.91750  Biso   1.000  N
  N3       1.0000 0.22060  0.00020  0.27090  Biso   1.000  N
  N4       1.0000 0.07400  0.96070  0.97210  Biso   1.000  N
  N5       1.0000 0.07470  0.92740  0.06260  Biso   1.000  N
  N6       1.0000 0.15580  0.01750  0.05870  Biso   1.000  N
  N7       1.0000 0.24380  0.09100  0.40720  Biso   1.000  N
  N8       1.0000 0.89200  0.43520  0.42200  Biso   1.000  N
  N9       1.0000 0.24640  0.22300  0.77110  Biso   1.000  N
  N10      1.0000 0.09710  0.26080  0.47270  Biso   1.000  N
  N11      1.0000 0.10360  0.29930  0.56400  Biso   1.000  N
  N12      1.0000 0.18610  0.21260  0.55840  Biso   1.000  N
  Ag3      1.0000 0.77371  0.70896  0.86808  Biso   1.000  Ag
  Ag4      1.0000 0.79539  0.50244  0.36756  Biso   1.000  Ag
  C37      1.0000 0.42210  0.89970  0.39200  Biso   1.000  C
  H25      1.0000 0.40170  0.90340  0.35190  Biso   1.000  H
  C38      1.0000 0.65350  0.72000  0.50080  Biso   1.000  C
  C39      1.0000 0.62760  0.56140  0.91090  Biso   1.000  C
  H26      1.0000 0.58490  0.54010  0.88960  Biso   1.000  H
  C40      1.0000 0.62800  0.50720  0.00190  Biso   1.000  C
  C41      1.0000 0.48170  0.88700  0.50900  Biso   1.000  C
  H27      1.0000 0.50090  0.88360  0.54910  Biso   1.000  H
  C42      1.0000 0.40300  0.31540  0.88890  Biso   1.000  C
  H28      1.0000 0.38530  0.30830  0.84910  Biso   1.000  H
  C43      1.0000 0.57480  0.80150  0.50630  Biso   1.000  C
  C44      1.0000 0.74340  0.63340  0.49650  Biso   1.000  C
  H29      1.0000 0.76370  0.63230  0.53670  Biso   1.000  H
  C45      1.0000 0.77110  0.59320  0.46480  Biso   1.000  C
  H30      1.0000 0.81130  0.56580  0.48480  Biso   1.000  H
  C46      1.0000 0.72280  0.58500  0.99900  Biso   1.000  C
  H31      1.0000 0.74600  0.57990  0.03880  Biso   1.000  H
  C47      1.0000 0.65960  0.55170  0.96950  Biso   1.000  C
  C48      1.0000 0.62740  0.47590  0.08750  Biso   1.000  C
  C49      1.0000 0.65830  0.48560  0.15120  Biso   1.000  C
  C50      1.0000 0.46060  0.36130  0.91530  Biso   1.000  C
  H32      1.0000 0.48040  0.38440  0.89340  Biso   1.000  H
  C51      1.0000 0.68390  0.67570  0.46630  Biso   1.000  C
  C52      1.0000 0.69000  0.74240  0.65140  Biso   1.000  C
  C53      1.0000 0.75070  0.62590  0.96780  Biso   1.000  C
  H33      1.0000 0.79280  0.64900  0.98810  Biso   1.000  H
  C54      1.0000 0.48210  0.85800  0.41830  Biso   1.000  C
  H34      1.0000 0.50170  0.83550  0.39600  Biso   1.000  H
  C55      1.0000 0.45720  0.33380  0.00510  Biso   1.000  C
  H35      1.0000 0.47500  0.33710  0.04520  Biso   1.000  H
  C56      1.0000 0.75200  0.70730  0.68050  Biso   1.000  C
  H36      1.0000 0.77590  0.68960  0.66020  Biso   1.000  H
  C57      1.0000 0.54950  0.42280  0.00510  Biso   1.000  C
  C58      1.0000 0.77910  0.69820  0.73990  Biso   1.000  C
  H37      1.0000 0.82110  0.67430  0.75890  Biso   1.000  H
  C59      1.0000 0.66060  0.60390  0.88430  Biso   1.000  C
  H38      1.0000 0.63820  0.61140  0.84460  Biso   1.000  H
  C60      1.0000 0.51260  0.84990  0.47700  Biso   1.000  C
  C61      1.0000 0.65580  0.76820  0.68320  Biso   1.000  C
  H39      1.0000 0.61360  0.79210  0.66540  Biso   1.000  H
  C62      1.0000 0.65830  0.75160  0.58740  Biso   1.000  C
  C63      1.0000 0.39900  0.29070  0.97430  Biso   1.000  C
  H40      1.0000 0.37770  0.26690  0.99490  Biso   1.000  H
  C64      1.0000 0.68710  0.75660  0.74240  Biso   1.000  C
  H41      1.0000 0.66430  0.77410  0.76370  Biso   1.000  H
  C65      1.0000 0.65520  0.67520  0.40700  Biso   1.000  C
  H42      1.0000 0.61600  0.70400  0.38600  Biso   1.000  H
  C66      1.0000 0.42220  0.92860  0.47930  Biso   1.000  C
  H43      1.0000 0.40220  0.95340  0.50050  Biso   1.000  H
  C67      1.0000 0.74120  0.54390  0.23680  Biso   1.000  C
  H44      1.0000 0.77670  0.57960  0.25420  Biso   1.000  H
  C68      1.0000 0.71180  0.53770  0.17740  Biso   1.000  C
  H45      1.0000 0.72770  0.56800  0.15540  Biso   1.000  H
  C69      1.0000 0.63330  0.44490  0.18460  Biso   1.000  C
  H46      1.0000 0.59510  0.41280  0.16800  Biso   1.000  H
  C70      1.0000 0.48880  0.37270  0.97470  Biso   1.000  C
  C71      1.0000 0.66740  0.45380  0.24420  Biso   1.000  C
  H47      1.0000 0.65160  0.42490  0.26700  Biso   1.000  H
  C72      1.0000 0.68590  0.63120  0.37950  Biso   1.000  C
  H48      1.0000 0.66520  0.62920  0.33940  Biso   1.000  H
  N13      1.0000 0.72200  0.63460  0.91160  Biso   1.000  N
  N14      1.0000 0.37140  0.28080  0.91750  Biso   1.000  N
  N15      1.0000 0.72060  0.50020  0.27090  Biso   1.000  N
  N16      1.0000 0.57400  0.46070  0.97210  Biso   1.000  N
  N17      1.0000 0.57470  0.42740  0.06260  Biso   1.000  N
  N18      1.0000 0.65580  0.51750  0.05870  Biso   1.000  N
  N19      1.0000 0.74380  0.59100  0.40720  Biso   1.000  N
  N20      1.0000 0.39200  0.93520  0.42200  Biso   1.000  N
  N21      1.0000 0.74640  0.72300  0.77110  Biso   1.000  N
  N22      1.0000 0.59710  0.76080  0.47270  Biso   1.000  N
  N23      1.0000 0.60360  0.79930  0.56400  Biso   1.000  N
  N24      1.0000 0.68610  0.71260  0.55840  Biso   1.000  N
  Ag5      1.0000 0.72629  0.20896  0.63192  Biso   1.000  Ag
  Ag6      1.0000 0.70461  0.00244  0.13244  Biso   1.000  Ag
  C73      1.0000 0.07790  0.39970  0.10800  Biso   1.000  C
  H49      1.0000 0.09830  0.40340  0.14810  Biso   1.000  H
  C74      1.0000 0.84650  0.22000  0.99920  Biso   1.000  C
  C75      1.0000 0.87240  0.06140  0.58910  Biso   1.000  C
  H50      1.0000 0.91510  0.04010  0.61040  Biso   1.000  H
  C76      1.0000 0.87200  0.00720  0.49810  Biso   1.000  C
  C77      1.0000 0.01830  0.38700  0.99100  Biso   1.000  C
  H51      1.0000 0.99910  0.38360  0.95090  Biso   1.000  H
  C78      1.0000 0.09700  0.81540  0.61110  Biso   1.000  C
  H52      1.0000 0.11470  0.80830  0.65090  Biso   1.000  H
  C79      1.0000 0.92520  0.30150  0.99370  Biso   1.000  C
  C80      1.0000 0.75660  0.13340  0.00350  Biso   1.000  C
  H53      1.0000 0.73630  0.13230  0.96330  Biso   1.000  H
  C81      1.0000 0.72890  0.09320  0.03520  Biso   1.000  C
  H54      1.0000 0.68870  0.06580  0.01520  Biso   1.000  H
  C82      1.0000 0.77720  0.08500  0.50100  Biso   1.000  C
  H55      1.0000 0.75400  0.07990  0.46120  Biso   1.000  H
  C83      1.0000 0.84040  0.05170  0.53050  Biso   1.000  C
  C84      1.0000 0.87260  0.97590  0.41250  Biso   1.000  C
  C85      1.0000 0.84170  0.98560  0.34880  Biso   1.000  C
  C86      1.0000 0.03940  0.86130  0.58470  Biso   1.000  C
  H56      1.0000 0.01960  0.88440  0.60660  Biso   1.000  H
  C87      1.0000 0.81610  0.17570  0.03370  Biso   1.000  C
  C88      1.0000 0.81000  0.24240  0.84860  Biso   1.000  C
  C89      1.0000 0.74930  0.12590  0.53220  Biso   1.000  C
  H57      1.0000 0.70720  0.14900  0.51190  Biso   1.000  H
  C90      1.0000 0.01790  0.35800  0.08170  Biso   1.000  C
  H58      1.0000 0.99830  0.33550  0.10400  Biso   1.000  H
  C91      1.0000 0.04280  0.83380  0.49490  Biso   1.000  C
  H59      1.0000 0.02500  0.83710  0.45480  Biso   1.000  H
  C92      1.0000 0.74800  0.20730  0.81950  Biso   1.000  C
  H60      1.0000 0.72410  0.18960  0.83980  Biso   1.000  H
  C93      1.0000 0.95050  0.92280  0.49490  Biso   1.000  C
  C94      1.0000 0.72090  0.19820  0.76010  Biso   1.000  C
  H61      1.0000 0.67890  0.17430  0.74110  Biso   1.000  H
  C95      1.0000 0.83940  0.10390  0.61570  Biso   1.000  C
  H62      1.0000 0.86180  0.11140  0.65540  Biso   1.000  H
  C96      1.0000 0.98740  0.34990  0.02300  Biso   1.000  C
  C97      1.0000 0.84420  0.26820  0.81680  Biso   1.000  C
  H63      1.0000 0.88640  0.29210  0.83460  Biso   1.000  H
  C98      1.0000 0.84170  0.25160  0.91260  Biso   1.000  C
  C99      1.0000 0.10100  0.79070  0.52570  Biso   1.000  C
  H64      1.0000 0.12230  0.76690  0.50510  Biso   1.000  H
  C100     1.0000 0.81290  0.25660  0.75760  Biso   1.000  C
  H65      1.0000 0.83570  0.27410  0.73630  Biso   1.000  H
  C101     1.0000 0.84480  0.17520  0.09300  Biso   1.000  C
  H66      1.0000 0.88400  0.20400  0.11400  Biso   1.000  H
  C102     1.0000 0.07780  0.42860  0.02070  Biso   1.000  C
  H67      1.0000 0.09780  0.45340  0.99950  Biso   1.000  H
  C103     1.0000 0.75880  0.04390  0.26320  Biso   1.000  C
  H68      1.0000 0.72330  0.07960  0.24580  Biso   1.000  H
  C104     1.0000 0.78820  0.03770  0.32260  Biso   1.000  C
  H69      1.0000 0.77230  0.06800  0.34460  Biso   1.000  H
  C105     1.0000 0.86670  0.94490  0.31540  Biso   1.000  C
  H70      1.0000 0.90490  0.91280  0.33200  Biso   1.000  H
  C106     1.0000 0.01120  0.87270  0.52530  Biso   1.000  C
  C107     1.0000 0.83260  0.95380  0.25580  Biso   1.000  C
  H71      1.0000 0.84840  0.92490  0.23300  Biso   1.000  H
  C108     1.0000 0.81410  0.13120  0.12050  Biso   1.000  C
  H72      1.0000 0.83480  0.12920  0.16060  Biso   1.000  H
  N25      1.0000 0.77800  0.13460  0.58840  Biso   1.000  N
  N26      1.0000 0.12860  0.78080  0.58250  Biso   1.000  N
  N27      1.0000 0.77940  0.00020  0.22910  Biso   1.000  N
  N28      1.0000 0.92600  0.96070  0.52790  Biso   1.000  N
  N29      1.0000 0.92530  0.92740  0.43740  Biso   1.000  N
  N30      1.0000 0.84420  0.01750  0.44130  Biso   1.000  N
  N31      1.0000 0.75620  0.09100  0.09280  Biso   1.000  N
  N32      1.0000 0.10800  0.43520  0.07800  Biso   1.000  N
  N33      1.0000 0.75360  0.22300  0.72890  Biso   1.000  N
  N34      1.0000 0.90290  0.26080  0.02730  Biso   1.000  N
  N35      1.0000 0.89640  0.29930  0.93600  Biso   1.000  N
  N36      1.0000 0.81390  0.21260  0.94160  Biso   1.000  N
  Ag7      1.0000 0.22629  0.70896  0.63192  Biso   1.000  Ag
  Ag8      1.0000 0.20461  0.50244  0.13244  Biso   1.000  Ag
  C109     1.0000 0.57790  0.89970  0.10800  Biso   1.000  C
  H73      1.0000 0.59830  0.90340  0.14810  Biso   1.000  H
  C110     1.0000 0.34650  0.72000  0.99920  Biso   1.000  C
  C111     1.0000 0.37240  0.56140  0.58910  Biso   1.000  C
  H74      1.0000 0.41510  0.54010  0.61040  Biso   1.000  H
  C112     1.0000 0.37200  0.50720  0.49810  Biso   1.000  C
  C113     1.0000 0.51830  0.88700  0.99100  Biso   1.000  C
  H75      1.0000 0.49910  0.88360  0.95090  Biso   1.000  H
  C114     1.0000 0.59700  0.31540  0.61110  Biso   1.000  C
  H76      1.0000 0.61470  0.30830  0.65090  Biso   1.000  H
  C115     1.0000 0.42520  0.80150  0.99370  Biso   1.000  C
  C116     1.0000 0.25660  0.63340  0.00350  Biso   1.000  C
  H77      1.0000 0.23630  0.63230  0.96330  Biso   1.000  H
  C117     1.0000 0.22890  0.59320  0.03520  Biso   1.000  C
  H78      1.0000 0.18870  0.56580  0.01520  Biso   1.000  H
  C118     1.0000 0.27720  0.58500  0.50100  Biso   1.000  C
  H79      1.0000 0.25400  0.57990  0.46120  Biso   1.000  H
  C119     1.0000 0.34040  0.55170  0.53050  Biso   1.000  C
  C120     1.0000 0.37260  0.47590  0.41250  Biso   1.000  C
  C121     1.0000 0.34170  0.48560  0.34880  Biso   1.000  C
  C122     1.0000 0.53940  0.36130  0.58470  Biso   1.000  C
  H80      1.0000 0.51960  0.38440  0.60660  Biso   1.000  H
  C123     1.0000 0.31610  0.67570  0.03370  Biso   1.000  C
  C124     1.0000 0.31000  0.74240  0.84860  Biso   1.000  C
  C125     1.0000 0.24930  0.62590  0.53220  Biso   1.000  C
  H81      1.0000 0.20720  0.64900  0.51190  Biso   1.000  H
  C126     1.0000 0.51790  0.85800  0.08170  Biso   1.000  C
  H82      1.0000 0.49830  0.83550  0.10400  Biso   1.000  H
  C127     1.0000 0.54280  0.33380  0.49490  Biso   1.000  C
  H83      1.0000 0.52500  0.33710  0.45480  Biso   1.000  H
  C128     1.0000 0.24800  0.70730  0.81950  Biso   1.000  C
  H84      1.0000 0.22410  0.68960  0.83980  Biso   1.000  H
  C129     1.0000 0.45050  0.42280  0.49490  Biso   1.000  C
  C130     1.0000 0.22090  0.69820  0.76010  Biso   1.000  C
  H85      1.0000 0.17890  0.67430  0.74110  Biso   1.000  H
  C131     1.0000 0.33940  0.60390  0.61570  Biso   1.000  C
  H86      1.0000 0.36180  0.61140  0.65540  Biso   1.000  H
  C132     1.0000 0.48740  0.84990  0.02300  Biso   1.000  C
  C133     1.0000 0.34420  0.76820  0.81680  Biso   1.000  C
  H87      1.0000 0.38640  0.79210  0.83460  Biso   1.000  H
  C134     1.0000 0.34170  0.75160  0.91260  Biso   1.000  C
  C135     1.0000 0.60100  0.29070  0.52570  Biso   1.000  C
  H88      1.0000 0.62230  0.26690  0.50510  Biso   1.000  H
  C136     1.0000 0.31290  0.75660  0.75760  Biso   1.000  C
  H89      1.0000 0.33570  0.77410  0.73630  Biso   1.000  H
  C137     1.0000 0.34480  0.67520  0.09300  Biso   1.000  C
  H90      1.0000 0.38400  0.70400  0.11400  Biso   1.000  H
  C138     1.0000 0.57780  0.92860  0.02070  Biso   1.000  C
  H91      1.0000 0.59780  0.95340  0.99950  Biso   1.000  H
  C139     1.0000 0.25880  0.54390  0.26320  Biso   1.000  C
  H92      1.0000 0.22330  0.57960  0.24580  Biso   1.000  H
  C140     1.0000 0.28820  0.53770  0.32260  Biso   1.000  C
  H93      1.0000 0.27230  0.56800  0.34460  Biso   1.000  H
  C141     1.0000 0.36670  0.44490  0.31540  Biso   1.000  C
  H94      1.0000 0.40490  0.41280  0.33200  Biso   1.000  H
  C142     1.0000 0.51120  0.37270  0.52530  Biso   1.000  C
  C143     1.0000 0.33260  0.45380  0.25580  Biso   1.000  C
  H95      1.0000 0.34840  0.42490  0.23300  Biso   1.000  H
  C144     1.0000 0.31410  0.63120  0.12050  Biso   1.000  C
  H96      1.0000 0.33480  0.62920  0.16060  Biso   1.000  H
  N37      1.0000 0.27800  0.63460  0.58840  Biso   1.000  N
  N38      1.0000 0.62860  0.28080  0.58250  Biso   1.000  N
  N39      1.0000 0.27940  0.50020  0.22910  Biso   1.000  N
  N40      1.0000 0.42600  0.46070  0.52790  Biso   1.000  N
  N41      1.0000 0.42530  0.42740  0.43740  Biso   1.000  N
  N42      1.0000 0.34420  0.51750  0.44130  Biso   1.000  N
  N43      1.0000 0.25620  0.59100  0.09280  Biso   1.000  N
  N44      1.0000 0.60800  0.93520  0.07800  Biso   1.000  N
  N45      1.0000 0.25360  0.72300  0.72890  Biso   1.000  N
  N46      1.0000 0.40290  0.76080  0.02730  Biso   1.000  N
  N47      1.0000 0.39640  0.79930  0.93600  Biso   1.000  N
  N48      1.0000 0.31390  0.71260  0.94160  Biso   1.000  N
  Ag9      1.0000 0.72629  0.79104  0.13192  Biso   1.000  Ag
  Ag10     1.0000 0.70461  0.99756  0.63244  Biso   1.000  Ag
  C145     1.0000 0.07790  0.60030  0.60800  Biso   1.000  C
  H97      1.0000 0.09830  0.59660  0.64810  Biso   1.000  H
  C146     1.0000 0.84650  0.78000  0.49920  Biso   1.000  C
  C147     1.0000 0.87240  0.93860  0.08910  Biso   1.000  C
  H98      1.0000 0.91510  0.95990  0.11040  Biso   1.000  H
  C148     1.0000 0.87200  0.99280  0.99810  Biso   1.000  C
  C149     1.0000 0.01830  0.61300  0.49100  Biso   1.000  C
  H99      1.0000 0.99910  0.61640  0.45090  Biso   1.000  H
  C150     1.0000 0.09700  0.18460  0.11110  Biso   1.000  C
  H100     1.0000 0.11470  0.19170  0.15090  Biso   1.000  H
  C151     1.0000 0.92520  0.69850  0.49370  Biso   1.000  C
  C152     1.0000 0.75660  0.86660  0.50350  Biso   1.000  C
  H101     1.0000 0.73630  0.86770  0.46330  Biso   1.000  H
  C153     1.0000 0.72890  0.90680  0.53520  Biso   1.000  C
  H102     1.0000 0.68870  0.93420  0.51520  Biso   1.000  H
  C154     1.0000 0.77720  0.91500  0.00100  Biso   1.000  C
  H103     1.0000 0.75400  0.92010  0.96120  Biso   1.000  H
  C155     1.0000 0.84040  0.94830  0.03050  Biso   1.000  C
  C156     1.0000 0.87260  0.02410  0.91250  Biso   1.000  C
  C157     1.0000 0.84170  0.01440  0.84880  Biso   1.000  C
  C158     1.0000 0.03940  0.13870  0.08470  Biso   1.000  C
  H104     1.0000 0.01960  0.11560  0.10660  Biso   1.000  H
  C159     1.0000 0.81610  0.82430  0.53370  Biso   1.000  C
  C160     1.0000 0.81000  0.75760  0.34860  Biso   1.000  C
  C161     1.0000 0.74930  0.87410  0.03220  Biso   1.000  C
  H105     1.0000 0.70720  0.85100  0.01190  Biso   1.000  H
  C162     1.0000 0.01790  0.64200  0.58170  Biso   1.000  C
  H106     1.0000 0.99830  0.66450  0.60400  Biso   1.000  H
  C163     1.0000 0.04280  0.16620  0.99490  Biso   1.000  C
  H107     1.0000 0.02500  0.16290  0.95480  Biso   1.000  H
  C164     1.0000 0.74800  0.79270  0.31950  Biso   1.000  C
  H108     1.0000 0.72410  0.81040  0.33980  Biso   1.000  H
  C165     1.0000 0.95050  0.07720  0.99490  Biso   1.000  C
  C166     1.0000 0.72090  0.80180  0.26010  Biso   1.000  C
  H109     1.0000 0.67890  0.82570  0.24110  Biso   1.000  H
  C167     1.0000 0.83940  0.89610  0.11570  Biso   1.000  C
  H110     1.0000 0.86180  0.88860  0.15540  Biso   1.000  H
  C168     1.0000 0.98740  0.65010  0.52300  Biso   1.000  C
  C169     1.0000 0.84420  0.73180  0.31680  Biso   1.000  C
  H111     1.0000 0.88640  0.70790  0.33460  Biso   1.000  H
  C170     1.0000 0.84170  0.74840  0.41260  Biso   1.000  C
  C171     1.0000 0.10100  0.20930  0.02570  Biso   1.000  C
  H112     1.0000 0.12230  0.23310  0.00510  Biso   1.000  H
  C172     1.0000 0.81290  0.74340  0.25760  Biso   1.000  C
  H113     1.0000 0.83570  0.72590  0.23630  Biso   1.000  H
  C173     1.0000 0.84480  0.82480  0.59300  Biso   1.000  C
  H114     1.0000 0.88400  0.79600  0.61400  Biso   1.000  H
  C174     1.0000 0.07780  0.57140  0.52070  Biso   1.000  C
  H115     1.0000 0.09780  0.54660  0.49950  Biso   1.000  H
  C175     1.0000 0.75880  0.95610  0.76320  Biso   1.000  C
  H116     1.0000 0.72330  0.92040  0.74580  Biso   1.000  H
  C176     1.0000 0.78820  0.96230  0.82260  Biso   1.000  C
  H117     1.0000 0.77230  0.93200  0.84460  Biso   1.000  H
  C177     1.0000 0.86670  0.05510  0.81540  Biso   1.000  C
  H118     1.0000 0.90490  0.08720  0.83200  Biso   1.000  H
  C178     1.0000 0.01120  0.12730  0.02530  Biso   1.000  C
  C179     1.0000 0.83260  0.04620  0.75580  Biso   1.000  C
  H119     1.0000 0.84840  0.07510  0.73300  Biso   1.000  H
  C180     1.0000 0.81410  0.86880  0.62050  Biso   1.000  C
  H120     1.0000 0.83480  0.87080  0.66060  Biso   1.000  H
  N49      1.0000 0.77800  0.86540  0.08840  Biso   1.000  N
  N50      1.0000 0.12860  0.21920  0.08250  Biso   1.000  N
  N51      1.0000 0.77940  0.99980  0.72910  Biso   1.000  N
  N52      1.0000 0.92600  0.03930  0.02790  Biso   1.000  N
  N53      1.0000 0.92530  0.07260  0.93740  Biso   1.000  N
  N54      1.0000 0.84420  0.98250  0.94130  Biso   1.000  N
  N55      1.0000 0.75620  0.90900  0.59280  Biso   1.000  N
  N56      1.0000 0.10800  0.56480  0.57800  Biso   1.000  N
  N57      1.0000 0.75360  0.77700  0.22890  Biso   1.000  N
  N58      1.0000 0.90290  0.73920  0.52730  Biso   1.000  N
  N59      1.0000 0.89640  0.70070  0.43600  Biso   1.000  N
  N60      1.0000 0.81390  0.78740  0.44160  Biso   1.000  N
  Ag11     1.0000 0.22629  0.29104  0.13192  Biso   1.000  Ag
  Ag12     1.0000 0.20461  0.49756  0.63244  Biso   1.000  Ag
  C181     1.0000 0.57790  0.10030  0.60800  Biso   1.000  C
  H121     1.0000 0.59830  0.09660  0.64810  Biso   1.000  H
  C182     1.0000 0.34650  0.28000  0.49920  Biso   1.000  C
  C183     1.0000 0.37240  0.43860  0.08910  Biso   1.000  C
  H122     1.0000 0.41510  0.45990  0.11040  Biso   1.000  H
  C184     1.0000 0.37200  0.49280  0.99810  Biso   1.000  C
  C185     1.0000 0.51830  0.11300  0.49100  Biso   1.000  C
  H123     1.0000 0.49910  0.11640  0.45090  Biso   1.000  H
  C186     1.0000 0.59700  0.68460  0.11110  Biso   1.000  C
  H124     1.0000 0.61470  0.69170  0.15090  Biso   1.000  H
  C187     1.0000 0.42520  0.19850  0.49370  Biso   1.000  C
  C188     1.0000 0.25660  0.36660  0.50350  Biso   1.000  C
  H125     1.0000 0.23630  0.36770  0.46330  Biso   1.000  H
  C189     1.0000 0.22890  0.40680  0.53520  Biso   1.000  C
  H126     1.0000 0.18870  0.43420  0.51520  Biso   1.000  H
  C190     1.0000 0.27720  0.41500  0.00100  Biso   1.000  C
  H127     1.0000 0.25400  0.42010  0.96120  Biso   1.000  H
  C191     1.0000 0.34040  0.44830  0.03050  Biso   1.000  C
  C192     1.0000 0.37260  0.52410  0.91250  Biso   1.000  C
  C193     1.0000 0.34170  0.51440  0.84880  Biso   1.000  C
  C194     1.0000 0.53940  0.63870  0.08470  Biso   1.000  C
  H128     1.0000 0.51960  0.61560  0.10660  Biso   1.000  H
  C195     1.0000 0.31610  0.32430  0.53370  Biso   1.000  C
  C196     1.0000 0.31000  0.25760  0.34860  Biso   1.000  C
  C197     1.0000 0.24930  0.37410  0.03220  Biso   1.000  C
  H129     1.0000 0.20720  0.35100  0.01190  Biso   1.000  H
  C198     1.0000 0.51790  0.14200  0.58170  Biso   1.000  C
  H130     1.0000 0.49830  0.16450  0.60400  Biso   1.000  H
  C199     1.0000 0.54280  0.66620  0.99490  Biso   1.000  C
  H131     1.0000 0.52500  0.66290  0.95480  Biso   1.000  H
  C200     1.0000 0.24800  0.29270  0.31950  Biso   1.000  C
  H132     1.0000 0.22410  0.31040  0.33980  Biso   1.000  H
  C201     1.0000 0.45050  0.57720  0.99490  Biso   1.000  C
  C202     1.0000 0.22090  0.30180  0.26010  Biso   1.000  C
  H133     1.0000 0.17890  0.32570  0.24110  Biso   1.000  H
  C203     1.0000 0.33940  0.39610  0.11570  Biso   1.000  C
  H134     1.0000 0.36180  0.38860  0.15540  Biso   1.000  H
  C204     1.0000 0.48740  0.15010  0.52300  Biso   1.000  C
  C205     1.0000 0.34420  0.23180  0.31680  Biso   1.000  C
  H135     1.0000 0.38640  0.20790  0.33460  Biso   1.000  H
  C206     1.0000 0.34170  0.24840  0.41260  Biso   1.000  C
  C207     1.0000 0.60100  0.70930  0.02570  Biso   1.000  C
  H136     1.0000 0.62230  0.73310  0.00510  Biso   1.000  H
  C208     1.0000 0.31290  0.24340  0.25760  Biso   1.000  C
  H137     1.0000 0.33570  0.22590  0.23630  Biso   1.000  H
  C209     1.0000 0.34480  0.32480  0.59300  Biso   1.000  C
  H138     1.0000 0.38400  0.29600  0.61400  Biso   1.000  H
  C210     1.0000 0.57780  0.07140  0.52070  Biso   1.000  C
  H139     1.0000 0.59780  0.04660  0.49950  Biso   1.000  H
  C211     1.0000 0.25880  0.45610  0.76320  Biso   1.000  C
  H140     1.0000 0.22330  0.42040  0.74580  Biso   1.000  H
  C212     1.0000 0.28820  0.46230  0.82260  Biso   1.000  C
  H141     1.0000 0.27230  0.43200  0.84460  Biso   1.000  H
  C213     1.0000 0.36670  0.55510  0.81540  Biso   1.000  C
  H142     1.0000 0.40490  0.58720  0.83200  Biso   1.000  H
  C214     1.0000 0.51120  0.62730  0.02530  Biso   1.000  C
  C215     1.0000 0.33260  0.54620  0.75580  Biso   1.000  C
  H143     1.0000 0.34840  0.57510  0.73300  Biso   1.000  H
  C216     1.0000 0.31410  0.36880  0.62050  Biso   1.000  C
  H144     1.0000 0.33480  0.37080  0.66060  Biso   1.000  H
  N61      1.0000 0.27800  0.36540  0.08840  Biso   1.000  N
  N62      1.0000 0.62860  0.71920  0.08250  Biso   1.000  N
  N63      1.0000 0.27940  0.49980  0.72910  Biso   1.000  N
  N64      1.0000 0.42600  0.53930  0.02790  Biso   1.000  N
  N65      1.0000 0.42530  0.57260  0.93740  Biso   1.000  N
  N66      1.0000 0.34420  0.48250  0.94130  Biso   1.000  N
  N67      1.0000 0.25620  0.40900  0.59280  Biso   1.000  N
  N68      1.0000 0.60800  0.06480  0.57800  Biso   1.000  N
  N69      1.0000 0.25360  0.27700  0.22890  Biso   1.000  N
  N70      1.0000 0.40290  0.23920  0.52730  Biso   1.000  N
  N71      1.0000 0.39640  0.20070  0.43600  Biso   1.000  N
  N72      1.0000 0.31390  0.28740  0.44160  Biso   1.000  N
  Ag13     1.0000 0.27371  0.79104  0.36808  Biso   1.000  Ag
  Ag14     1.0000 0.29539  0.99756  0.86756  Biso   1.000  Ag
  C217     1.0000 0.92210  0.60030  0.89200  Biso   1.000  C
  H145     1.0000 0.90170  0.59660  0.85190  Biso   1.000  H
  C218     1.0000 0.15350  0.78000  0.00080  Biso   1.000  C
  C219     1.0000 0.12760  0.93860  0.41090  Biso   1.000  C
  H146     1.0000 0.08490  0.95990  0.38960  Biso   1.000  H
  C220     1.0000 0.12800  0.99280  0.50190  Biso   1.000  C
  C221     1.0000 0.98170  0.61300  0.00900  Biso   1.000  C
  H147     1.0000 0.00090  0.61640  0.04910  Biso   1.000  H
  C222     1.0000 0.90300  0.18460  0.38890  Biso   1.000  C
  H148     1.0000 0.88530  0.19170  0.34910  Biso   1.000  H
  C223     1.0000 0.07480  0.69850  0.00630  Biso   1.000  C
  C224     1.0000 0.24340  0.86660  0.99650  Biso   1.000  C
  H149     1.0000 0.26370  0.86770  0.03670  Biso   1.000  H
  C225     1.0000 0.27110  0.90680  0.96480  Biso   1.000  C
  H150     1.0000 0.31130  0.93420  0.98480  Biso   1.000  H
  C226     1.0000 0.22280  0.91500  0.49900  Biso   1.000  C
  H151     1.0000 0.24600  0.92010  0.53880  Biso   1.000  H
  C227     1.0000 0.15960  0.94830  0.46950  Biso   1.000  C
  C228     1.0000 0.12740  0.02410  0.58750  Biso   1.000  C
  C229     1.0000 0.15830  0.01440  0.65120  Biso   1.000  C
  C230     1.0000 0.96060  0.13870  0.41530  Biso   1.000  C
  H152     1.0000 0.98040  0.11560  0.39340  Biso   1.000  H
  C231     1.0000 0.18390  0.82430  0.96630  Biso   1.000  C
  C232     1.0000 0.19000  0.75760  0.15140  Biso   1.000  C
  C233     1.0000 0.25070  0.87410  0.46780  Biso   1.000  C
  H153     1.0000 0.29280  0.85100  0.48810  Biso   1.000  H
  C234     1.0000 0.98210  0.64200  0.91830  Biso   1.000  C
  H154     1.0000 0.00170  0.66450  0.89600  Biso   1.000  H
  C235     1.0000 0.95720  0.16620  0.50510  Biso   1.000  C
  H155     1.0000 0.97500  0.16290  0.54520  Biso   1.000  H
  C236     1.0000 0.25200  0.79270  0.18050  Biso   1.000  C
  H156     1.0000 0.27590  0.81040  0.16020  Biso   1.000  H
  C237     1.0000 0.04950  0.07720  0.50510  Biso   1.000  C
  C238     1.0000 0.27910  0.80180  0.23990  Biso   1.000  C
  H157     1.0000 0.32110  0.82570  0.25890  Biso   1.000  H
  C239     1.0000 0.16060  0.89610  0.38430  Biso   1.000  C
  H158     1.0000 0.13820  0.88860  0.34460  Biso   1.000  H
  C240     1.0000 0.01260  0.65010  0.97700  Biso   1.000  C
  C241     1.0000 0.15580  0.73180  0.18320  Biso   1.000  C
  H159     1.0000 0.11360  0.70790  0.16540  Biso   1.000  H
  C242     1.0000 0.15830  0.74840  0.08740  Biso   1.000  C
  C243     1.0000 0.89900  0.20930  0.47430  Biso   1.000  C
  H160     1.0000 0.87770  0.23310  0.49490  Biso   1.000  H
  C244     1.0000 0.18710  0.74340  0.24240  Biso   1.000  C
  H161     1.0000 0.16430  0.72590  0.26370  Biso   1.000  H
  C245     1.0000 0.15520  0.82480  0.90700  Biso   1.000  C
  H162     1.0000 0.11600  0.79600  0.88600  Biso   1.000  H
  C246     1.0000 0.92220  0.57140  0.97930  Biso   1.000  C
  H163     1.0000 0.90220  0.54660  0.00050  Biso   1.000  H
  C247     1.0000 0.24120  0.95610  0.73680  Biso   1.000  C
  H164     1.0000 0.27670  0.92040  0.75420  Biso   1.000  H
  C248     1.0000 0.21180  0.96230  0.67740  Biso   1.000  C
  H165     1.0000 0.22770  0.93200  0.65540  Biso   1.000  H
  C249     1.0000 0.13330  0.05510  0.68460  Biso   1.000  C
  H166     1.0000 0.09510  0.08720  0.66800  Biso   1.000  H
  C250     1.0000 0.98880  0.12730  0.47470  Biso   1.000  C
  C251     1.0000 0.16740  0.04620  0.74420  Biso   1.000  C
  H167     1.0000 0.15160  0.07510  0.76700  Biso   1.000  H
  C252     1.0000 0.18590  0.86880  0.87950  Biso   1.000  C
  H168     1.0000 0.16520  0.87080  0.83940  Biso   1.000  H
  N73      1.0000 0.22200  0.86540  0.41160  Biso   1.000  N
  N74      1.0000 0.87140  0.21920  0.41750  Biso   1.000  N
  N75      1.0000 0.22060  0.99980  0.77090  Biso   1.000  N
  N76      1.0000 0.07400  0.03930  0.47210  Biso   1.000  N
  N77      1.0000 0.07470  0.07260  0.56260  Biso   1.000  N
  N78      1.0000 0.15580  0.98250  0.55870  Biso   1.000  N
  N79      1.0000 0.24380  0.90900  0.90720  Biso   1.000  N
  N80      1.0000 0.89200  0.56480  0.92200  Biso   1.000  N
  N81      1.0000 0.24640  0.77700  0.27110  Biso   1.000  N
  N82      1.0000 0.09710  0.73920  0.97270  Biso   1.000  N
  N83      1.0000 0.10360  0.70070  0.06400  Biso   1.000  N
  N84      1.0000 0.18610  0.78740  0.05840  Biso   1.000  N
  Ag15     1.0000 0.77371  0.29104  0.36808  Biso   1.000  Ag
  Ag16     1.0000 0.79539  0.49756  0.86756  Biso   1.000  Ag
  C253     1.0000 0.42210  0.10030  0.89200  Biso   1.000  C
  H169     1.0000 0.40170  0.09660  0.85190  Biso   1.000  H
  C254     1.0000 0.65350  0.28000  0.00080  Biso   1.000  C
  C255     1.0000 0.62760  0.43860  0.41090  Biso   1.000  C
  H170     1.0000 0.58490  0.45990  0.38960  Biso   1.000  H
  C256     1.0000 0.62800  0.49280  0.50190  Biso   1.000  C
  C257     1.0000 0.48170  0.11300  0.00900  Biso   1.000  C
  H171     1.0000 0.50090  0.11640  0.04910  Biso   1.000  H
  C258     1.0000 0.40300  0.68460  0.38890  Biso   1.000  C
  H172     1.0000 0.38530  0.69170  0.34910  Biso   1.000  H
  C259     1.0000 0.57480  0.19850  0.00630  Biso   1.000  C
  C260     1.0000 0.74340  0.36660  0.99650  Biso   1.000  C
  H173     1.0000 0.76370  0.36770  0.03670  Biso   1.000  H
  C261     1.0000 0.77110  0.40680  0.96480  Biso   1.000  C
  H174     1.0000 0.81130  0.43420  0.98480  Biso   1.000  H
  C262     1.0000 0.72280  0.41500  0.49900  Biso   1.000  C
  H175     1.0000 0.74600  0.42010  0.53880  Biso   1.000  H
  C263     1.0000 0.65960  0.44830  0.46950  Biso   1.000  C
  C264     1.0000 0.62740  0.52410  0.58750  Biso   1.000  C
  C265     1.0000 0.65830  0.51440  0.65120  Biso   1.000  C
  C266     1.0000 0.46060  0.63870  0.41530  Biso   1.000  C
  H176     1.0000 0.48040  0.61560  0.39340  Biso   1.000  H
  C267     1.0000 0.68390  0.32430  0.96630  Biso   1.000  C
  C268     1.0000 0.69000  0.25760  0.15140  Biso   1.000  C
  C269     1.0000 0.75070  0.37410  0.46780  Biso   1.000  C
  H177     1.0000 0.79280  0.35100  0.48810  Biso   1.000  H
  C270     1.0000 0.48210  0.14200  0.91830  Biso   1.000  C
  H178     1.0000 0.50170  0.16450  0.89600  Biso   1.000  H
  C271     1.0000 0.45720  0.66620  0.50510  Biso   1.000  C
  H179     1.0000 0.47500  0.66290  0.54520  Biso   1.000  H
  C272     1.0000 0.75200  0.29270  0.18050  Biso   1.000  C
  H180     1.0000 0.77590  0.31040  0.16020  Biso   1.000  H
  C273     1.0000 0.54950  0.57720  0.50510  Biso   1.000  C
  C274     1.0000 0.77910  0.30180  0.23990  Biso   1.000  C
  H181     1.0000 0.82110  0.32570  0.25890  Biso   1.000  H
  C275     1.0000 0.66060  0.39610  0.38430  Biso   1.000  C
  H182     1.0000 0.63820  0.38860  0.34460  Biso   1.000  H
  C276     1.0000 0.51260  0.15010  0.97700  Biso   1.000  C
  C277     1.0000 0.65580  0.23180  0.18320  Biso   1.000  C
  H183     1.0000 0.61360  0.20790  0.16540  Biso   1.000  H
  C278     1.0000 0.65830  0.24840  0.08740  Biso   1.000  C
  C279     1.0000 0.39900  0.70930  0.47430  Biso   1.000  C
  H184     1.0000 0.37770  0.73310  0.49490  Biso   1.000  H
  C280     1.0000 0.68710  0.24340  0.24240  Biso   1.000  C
  H185     1.0000 0.66430  0.22590  0.26370  Biso   1.000  H
  C281     1.0000 0.65520  0.32480  0.90700  Biso   1.000  C
  H186     1.0000 0.61600  0.29600  0.88600  Biso   1.000  H
  C282     1.0000 0.42220  0.07140  0.97930  Biso   1.000  C
  H187     1.0000 0.40220  0.04660  0.00050  Biso   1.000  H
  C283     1.0000 0.74120  0.45610  0.73680  Biso   1.000  C
  H188     1.0000 0.77670  0.42040  0.75420  Biso   1.000  H
  C284     1.0000 0.71180  0.46230  0.67740  Biso   1.000  C
  H189     1.0000 0.72770  0.43200  0.65540  Biso   1.000  H
  C285     1.0000 0.63330  0.55510  0.68460  Biso   1.000  C
  H190     1.0000 0.59510  0.58720  0.66800  Biso   1.000  H
  C286     1.0000 0.48880  0.62730  0.47470  Biso   1.000  C
  C287     1.0000 0.66740  0.54620  0.74420  Biso   1.000  C
  H191     1.0000 0.65160  0.57510  0.76700  Biso   1.000  H
  C288     1.0000 0.68590  0.36880  0.87950  Biso   1.000  C
  H192     1.0000 0.66520  0.37080  0.83940  Biso   1.000  H
  N85      1.0000 0.72200  0.36540  0.41160  Biso   1.000  N
  N86      1.0000 0.37140  0.71920  0.41750  Biso   1.000  N
  N87      1.0000 0.72060  0.49980  0.77090  Biso   1.000  N
  N88      1.0000 0.57400  0.53930  0.47210  Biso   1.000  N
  N89      1.0000 0.57470  0.57260  0.56260  Biso   1.000  N
  N90      1.0000 0.65580  0.48250  0.55870  Biso   1.000  N
  N91      1.0000 0.74380  0.40900  0.90720  Biso   1.000  N
  N92      1.0000 0.39200  0.06480  0.92200  Biso   1.000  N
  N93      1.0000 0.74640  0.27700  0.27110  Biso   1.000  N
  N94      1.0000 0.59710  0.23920  0.97270  Biso   1.000  N
  N95      1.0000 0.60360  0.20070  0.06400  Biso   1.000  N
  N96      1.0000 0.68610  0.28740  0.05840  Biso   1.000  N
