data_image0
_cell_length_a       21.9944
_cell_length_b       16.6621
_cell_length_c       25.6363
_cell_angle_alpha    90
_cell_angle_beta     115.34
_cell_angle_gamma    90

_symmetry_space_group_name_H-M    "P 1"
_symmetry_int_tables_number       1

loop_
  _symmetry_equiv_pos_as_xyz
  'x, y, z'

loop_
  _atom_site_label
  _atom_site_occupancy
  _atom_site_fract_x
  _atom_site_fract_y
  _atom_site_fract_z
  _atom_site_thermal_displace_type
  _atom_site_B_iso_or_equiv
  _atom_site_type_symbol
  Ag1      1.0000 0.77378  0.70901  0.36815  Biso   1.000  Ag
  Ag2      1.0000 0.29535  0.00221  0.86757  Biso   1.000  Ag
  C1       1.0000 0.15370  0.22000  0.00100  Biso   1.000  C
  C2       1.0000 0.12790  0.00720  0.50190  Biso   1.000  C
  C3       1.0000 0.92230  0.39980  0.89220  Biso   1.000  C
  H1       1.0000 0.90210  0.40360  0.85220  Biso   1.000  H
  C4       1.0000 0.12780  0.06170  0.41090  Biso   1.000  C
  H2       1.0000 0.08520  0.04040  0.38960  Biso   1.000  H
  C5       1.0000 0.90310  0.81660  0.38890  Biso   1.000  C
  H3       1.0000 0.88500  0.81030  0.34910  Biso   1.000  H
  C6       1.0000 0.98190  0.38700  0.00950  Biso   1.000  C
  H4       1.0000 0.00080  0.38340  0.04950  Biso   1.000  H
  C7       1.0000 0.07480  0.30140  0.00670  Biso   1.000  C
  C8       1.0000 0.15940  0.05200  0.46940  Biso   1.000  C
  C9       1.0000 0.15850  0.98590  0.65120  Biso   1.000  C
  C10      1.0000 0.24340  0.13350  0.99650  Biso   1.000  C
  H5       1.0000 0.26400  0.13260  0.03660  Biso   1.000  H
  C11      1.0000 0.27110  0.09320  0.96470  Biso   1.000  C
  H6       1.0000 0.31140  0.06600  0.98470  Biso   1.000  H
  C12      1.0000 0.22280  0.08580  0.49880  Biso   1.000  C
  H7       1.0000 0.24550  0.08130  0.53870  Biso   1.000  H
  C13      1.0000 0.04970  0.92270  0.50510  Biso   1.000  C
  C14      1.0000 0.18390  0.17540  0.96660  Biso   1.000  C
  C15      1.0000 0.96070  0.86160  0.41530  Biso   1.000  C
  H8       1.0000 0.98090  0.88440  0.39350  Biso   1.000  H
  C16      1.0000 0.25130  0.12570  0.46830  Biso   1.000  C
  H9       1.0000 0.29380  0.14770  0.48860  Biso   1.000  H
  C17      1.0000 0.12770  0.97540  0.58760  Biso   1.000  C
  C18      1.0000 0.95730  0.83400  0.50540  Biso   1.000  C
  H10      1.0000 0.97510  0.83740  0.54540  Biso   1.000  H
  C19      1.0000 0.19030  0.24310  0.15190  Biso   1.000  C
  C20      1.0000 0.25240  0.20690  0.18090  Biso   1.000  C
  H11      1.0000 0.27590  0.18800  0.16060  Biso   1.000  H
  C21      1.0000 0.15820  0.25180  0.08770  Biso   1.000  C
  C22      1.0000 0.16050  0.10370  0.38430  Biso   1.000  C
  H12      1.0000 0.13830  0.11080  0.34450  Biso   1.000  H
  C23      1.0000 0.98210  0.35790  0.91830  Biso   1.000  C
  H13      1.0000 0.00150  0.33510  0.89600  Biso   1.000  H
  C24      1.0000 0.98870  0.87260  0.47480  Biso   1.000  C
  C25      1.0000 0.01270  0.35020  0.97740  Biso   1.000  C
  C26      1.0000 0.21190  0.03760  0.67770  Biso   1.000  C
  H14      1.0000 0.22800  0.06800  0.65590  Biso   1.000  H
  C27      1.0000 0.18690  0.25710  0.24250  Biso   1.000  C
  H15      1.0000 0.16410  0.27480  0.26370  Biso   1.000  H
  C28      1.0000 0.89910  0.79070  0.47440  Biso   1.000  C
  H16      1.0000 0.87800  0.76640  0.49500  Biso   1.000  H
  C29      1.0000 0.27900  0.19920  0.24000  Biso   1.000  C
  H17      1.0000 0.32140  0.17620  0.25920  Biso   1.000  H
  C30      1.0000 0.92220  0.42880  0.97910  Biso   1.000  C
  H18      1.0000 0.90210  0.45380  0.00020  Biso   1.000  H
  C31      1.0000 0.15620  0.26790  0.18340  Biso   1.000  C
  H19      1.0000 0.11380  0.29130  0.16540  Biso   1.000  H
  C32      1.0000 0.15540  0.17530  0.90730  Biso   1.000  C
  H20      1.0000 0.11640  0.20430  0.88630  Biso   1.000  H
  C33      1.0000 0.13350  0.94530  0.68500  Biso   1.000  C
  H21      1.0000 0.09530  0.91330  0.66850  Biso   1.000  H
  C34      1.0000 0.24100  0.04360  0.73690  Biso   1.000  C
  H22      1.0000 0.27640  0.07950  0.75440  Biso   1.000  H
  C35      1.0000 0.16730  0.95390  0.74410  Biso   1.000  C
  H23      1.0000 0.15140  0.92520  0.76680  Biso   1.000  H
  C36      1.0000 0.18570  0.13140  0.87930  Biso   1.000  C
  H24      1.0000 0.16510  0.12980  0.83910  Biso   1.000  H
  N1       1.0000 0.87140  0.78130  0.41750  Biso   1.000  N
  N2       1.0000 0.22190  0.13480  0.41160  Biso   1.000  N
  N3       1.0000 0.22070  0.00010  0.77080  Biso   1.000  N
  N4       1.0000 0.07410  0.96100  0.47230  Biso   1.000  N
  N5       1.0000 0.15600  0.01750  0.55910  Biso   1.000  N
  N6       1.0000 0.07480  0.92730  0.56280  Biso   1.000  N
  N7       1.0000 0.24380  0.09060  0.90720  Biso   1.000  N
  N8       1.0000 0.24650  0.22340  0.27120  Biso   1.000  N
  N9       1.0000 0.89200  0.43510  0.92170  Biso   1.000  N
  N10      1.0000 0.18620  0.21290  0.05850  Biso   1.000  N
  N11      1.0000 0.10370  0.29900  0.06410  Biso   1.000  N
  N12      1.0000 0.09760  0.26060  0.97320  Biso   1.000  N
  Ag3      1.0000 0.27378  0.20901  0.36815  Biso   1.000  Ag
  Ag4      1.0000 0.79535  0.50221  0.86757  Biso   1.000  Ag
  C37      1.0000 0.65370  0.72000  0.00100  Biso   1.000  C
  C38      1.0000 0.62790  0.50720  0.50190  Biso   1.000  C
  C39      1.0000 0.42230  0.89980  0.89220  Biso   1.000  C
  H25      1.0000 0.40210  0.90360  0.85220  Biso   1.000  H
  C40      1.0000 0.62780  0.56170  0.41090  Biso   1.000  C
  H26      1.0000 0.58520  0.54040  0.38960  Biso   1.000  H
  C41      1.0000 0.40310  0.31660  0.38890  Biso   1.000  C
  H27      1.0000 0.38500  0.31030  0.34910  Biso   1.000  H
  C42      1.0000 0.48190  0.88700  0.00950  Biso   1.000  C
  H28      1.0000 0.50080  0.88340  0.04950  Biso   1.000  H
  C43      1.0000 0.57480  0.80140  0.00670  Biso   1.000  C
  C44      1.0000 0.65940  0.55200  0.46940  Biso   1.000  C
  C45      1.0000 0.65850  0.48590  0.65120  Biso   1.000  C
  C46      1.0000 0.74340  0.63350  0.99650  Biso   1.000  C
  H29      1.0000 0.76400  0.63260  0.03660  Biso   1.000  H
  C47      1.0000 0.77110  0.59320  0.96470  Biso   1.000  C
  H30      1.0000 0.81140  0.56600  0.98470  Biso   1.000  H
  C48      1.0000 0.72280  0.58580  0.49880  Biso   1.000  C
  H31      1.0000 0.74550  0.58130  0.53870  Biso   1.000  H
  C49      1.0000 0.54970  0.42270  0.50510  Biso   1.000  C
  C50      1.0000 0.68390  0.67540  0.96660  Biso   1.000  C
  C51      1.0000 0.46070  0.36160  0.41530  Biso   1.000  C
  H32      1.0000 0.48090  0.38440  0.39350  Biso   1.000  H
  C52      1.0000 0.75130  0.62570  0.46830  Biso   1.000  C
  H33      1.0000 0.79380  0.64770  0.48860  Biso   1.000  H
  C53      1.0000 0.62770  0.47540  0.58760  Biso   1.000  C
  C54      1.0000 0.45730  0.33400  0.50540  Biso   1.000  C
  H34      1.0000 0.47510  0.33740  0.54540  Biso   1.000  H
  C55      1.0000 0.69030  0.74310  0.15190  Biso   1.000  C
  C56      1.0000 0.75240  0.70690  0.18090  Biso   1.000  C
  H35      1.0000 0.77590  0.68800  0.16060  Biso   1.000  H
  C57      1.0000 0.65820  0.75180  0.08770  Biso   1.000  C
  C58      1.0000 0.66050  0.60370  0.38430  Biso   1.000  C
  H36      1.0000 0.63830  0.61080  0.34450  Biso   1.000  H
  C59      1.0000 0.48210  0.85790  0.91830  Biso   1.000  C
  H37      1.0000 0.50150  0.83510  0.89600  Biso   1.000  H
  C60      1.0000 0.48870  0.37260  0.47480  Biso   1.000  C
  C61      1.0000 0.51270  0.85020  0.97740  Biso   1.000  C
  C62      1.0000 0.71190  0.53760  0.67770  Biso   1.000  C
  H38      1.0000 0.72800  0.56800  0.65590  Biso   1.000  H
  C63      1.0000 0.68690  0.75710  0.24250  Biso   1.000  C
  H39      1.0000 0.66410  0.77480  0.26370  Biso   1.000  H
  C64      1.0000 0.39910  0.29070  0.47440  Biso   1.000  C
  H40      1.0000 0.37800  0.26640  0.49500  Biso   1.000  H
  C65      1.0000 0.77900  0.69920  0.24000  Biso   1.000  C
  H41      1.0000 0.82140  0.67620  0.25920  Biso   1.000  H
  C66      1.0000 0.42220  0.92880  0.97910  Biso   1.000  C
  H42      1.0000 0.40210  0.95380  0.00020  Biso   1.000  H
  C67      1.0000 0.65620  0.76790  0.18340  Biso   1.000  C
  H43      1.0000 0.61380  0.79130  0.16540  Biso   1.000  H
  C68      1.0000 0.65540  0.67530  0.90730  Biso   1.000  C
  H44      1.0000 0.61640  0.70430  0.88630  Biso   1.000  H
  C69      1.0000 0.63350  0.44530  0.68500  Biso   1.000  C
  H45      1.0000 0.59530  0.41330  0.66850  Biso   1.000  H
  C70      1.0000 0.74100  0.54360  0.73690  Biso   1.000  C
  H46      1.0000 0.77640  0.57950  0.75440  Biso   1.000  H
  C71      1.0000 0.66730  0.45390  0.74410  Biso   1.000  C
  H47      1.0000 0.65140  0.42520  0.76680  Biso   1.000  H
  C72      1.0000 0.68570  0.63140  0.87930  Biso   1.000  C
  H48      1.0000 0.66510  0.62980  0.83910  Biso   1.000  H
  N13      1.0000 0.37140  0.28130  0.41750  Biso   1.000  N
  N14      1.0000 0.72190  0.63480  0.41160  Biso   1.000  N
  N15      1.0000 0.72070  0.50010  0.77080  Biso   1.000  N
  N16      1.0000 0.57410  0.46100  0.47230  Biso   1.000  N
  N17      1.0000 0.65600  0.51750  0.55910  Biso   1.000  N
  N18      1.0000 0.57480  0.42730  0.56280  Biso   1.000  N
  N19      1.0000 0.74380  0.59060  0.90720  Biso   1.000  N
  N20      1.0000 0.74650  0.72340  0.27120  Biso   1.000  N
  N21      1.0000 0.39200  0.93510  0.92170  Biso   1.000  N
  N22      1.0000 0.68620  0.71290  0.05850  Biso   1.000  N
  N23      1.0000 0.60370  0.79900  0.06410  Biso   1.000  N
  N24      1.0000 0.59760  0.76060  0.97320  Biso   1.000  N
  Ag5      1.0000 0.22622  0.70901  0.13185  Biso   1.000  Ag
  Ag6      1.0000 0.70465  0.00221  0.63243  Biso   1.000  Ag
  C73      1.0000 0.84630  0.22000  0.49900  Biso   1.000  C
  C74      1.0000 0.87210  0.00720  0.99810  Biso   1.000  C
  C75      1.0000 0.07770  0.39980  0.60780  Biso   1.000  C
  H49      1.0000 0.09790  0.40360  0.64780  Biso   1.000  H
  C76      1.0000 0.87220  0.06170  0.08910  Biso   1.000  C
  H50      1.0000 0.91480  0.04040  0.11040  Biso   1.000  H
  C77      1.0000 0.09690  0.81660  0.11110  Biso   1.000  C
  H51      1.0000 0.11500  0.81030  0.15090  Biso   1.000  H
  C78      1.0000 0.01810  0.38700  0.49050  Biso   1.000  C
  H52      1.0000 0.99920  0.38340  0.45050  Biso   1.000  H
  C79      1.0000 0.92520  0.30140  0.49330  Biso   1.000  C
  C80      1.0000 0.84060  0.05200  0.03060  Biso   1.000  C
  C81      1.0000 0.84150  0.98590  0.84880  Biso   1.000  C
  C82      1.0000 0.75660  0.13350  0.50350  Biso   1.000  C
  H53      1.0000 0.73600  0.13260  0.46340  Biso   1.000  H
  C83      1.0000 0.72890  0.09320  0.53530  Biso   1.000  C
  H54      1.0000 0.68860  0.06600  0.51530  Biso   1.000  H
  C84      1.0000 0.77720  0.08580  0.00120  Biso   1.000  C
  H55      1.0000 0.75450  0.08130  0.96130  Biso   1.000  H
  C85      1.0000 0.95030  0.92270  0.99490  Biso   1.000  C
  C86      1.0000 0.81610  0.17540  0.53340  Biso   1.000  C
  C87      1.0000 0.03930  0.86160  0.08470  Biso   1.000  C
  H56      1.0000 0.01910  0.88440  0.10650  Biso   1.000  H
  C88      1.0000 0.74870  0.12570  0.03170  Biso   1.000  C
  H57      1.0000 0.70620  0.14770  0.01140  Biso   1.000  H
  C89      1.0000 0.87230  0.97540  0.91240  Biso   1.000  C
  C90      1.0000 0.04270  0.83400  0.99460  Biso   1.000  C
  H58      1.0000 0.02490  0.83740  0.95460  Biso   1.000  H
  C91      1.0000 0.80970  0.24310  0.34810  Biso   1.000  C
  C92      1.0000 0.74760  0.20690  0.31910  Biso   1.000  C
  H59      1.0000 0.72410  0.18800  0.33940  Biso   1.000  H
  C93      1.0000 0.84180  0.25180  0.41230  Biso   1.000  C
  C94      1.0000 0.83950  0.10370  0.11570  Biso   1.000  C
  H60      1.0000 0.86170  0.11080  0.15550  Biso   1.000  H
  C95      1.0000 0.01790  0.35790  0.58170  Biso   1.000  C
  H61      1.0000 0.99850  0.33510  0.60400  Biso   1.000  H
  C96      1.0000 0.01130  0.87260  0.02520  Biso   1.000  C
  C97      1.0000 0.98730  0.35020  0.52260  Biso   1.000  C
  C98      1.0000 0.78810  0.03760  0.82230  Biso   1.000  C
  H62      1.0000 0.77200  0.06800  0.84410  Biso   1.000  H
  C99      1.0000 0.81310  0.25710  0.25750  Biso   1.000  C
  H63      1.0000 0.83590  0.27480  0.23630  Biso   1.000  H
  C100     1.0000 0.10090  0.79070  0.02560  Biso   1.000  C
  H64      1.0000 0.12200  0.76640  0.00500  Biso   1.000  H
  C101     1.0000 0.72100  0.19920  0.26000  Biso   1.000  C
  H65      1.0000 0.67860  0.17620  0.24080  Biso   1.000  H
  C102     1.0000 0.07780  0.42880  0.52090  Biso   1.000  C
  H66      1.0000 0.09790  0.45380  0.49980  Biso   1.000  H
  C103     1.0000 0.84380  0.26790  0.31660  Biso   1.000  C
  H67      1.0000 0.88620  0.29130  0.33460  Biso   1.000  H
  C104     1.0000 0.84460  0.17530  0.59270  Biso   1.000  C
  H68      1.0000 0.88360  0.20430  0.61370  Biso   1.000  H
  C105     1.0000 0.86650  0.94530  0.81500  Biso   1.000  C
  H69      1.0000 0.90470  0.91330  0.83150  Biso   1.000  H
  C106     1.0000 0.75900  0.04360  0.76310  Biso   1.000  C
  H70      1.0000 0.72360  0.07950  0.74560  Biso   1.000  H
  C107     1.0000 0.83270  0.95390  0.75590  Biso   1.000  C
  H71      1.0000 0.84860  0.92520  0.73320  Biso   1.000  H
  C108     1.0000 0.81430  0.13140  0.62070  Biso   1.000  C
  H72      1.0000 0.83490  0.12980  0.66090  Biso   1.000  H
  N25      1.0000 0.12860  0.78130  0.08250  Biso   1.000  N
  N26      1.0000 0.77810  0.13480  0.08840  Biso   1.000  N
  N27      1.0000 0.77930  0.00010  0.72920  Biso   1.000  N
  N28      1.0000 0.92590  0.96100  0.02770  Biso   1.000  N
  N29      1.0000 0.84400  0.01750  0.94090  Biso   1.000  N
  N30      1.0000 0.92520  0.92730  0.93720  Biso   1.000  N
  N31      1.0000 0.75620  0.09060  0.59280  Biso   1.000  N
  N32      1.0000 0.75350  0.22340  0.22880  Biso   1.000  N
  N33      1.0000 0.10800  0.43510  0.57830  Biso   1.000  N
  N34      1.0000 0.81380  0.21290  0.44150  Biso   1.000  N
  N35      1.0000 0.89630  0.29900  0.43590  Biso   1.000  N
  N36      1.0000 0.90240  0.26060  0.52680  Biso   1.000  N
  Ag7      1.0000 0.72622  0.20901  0.13185  Biso   1.000  Ag
  Ag8      1.0000 0.20465  0.50221  0.63243  Biso   1.000  Ag
  C109     1.0000 0.34630  0.72000  0.49900  Biso   1.000  C
  C110     1.0000 0.37210  0.50720  0.99810  Biso   1.000  C
  C111     1.0000 0.57770  0.89980  0.60780  Biso   1.000  C
  H73      1.0000 0.59790  0.90360  0.64780  Biso   1.000  H
  C112     1.0000 0.37220  0.56170  0.08910  Biso   1.000  C
  H74      1.0000 0.41480  0.54040  0.11040  Biso   1.000  H
  C113     1.0000 0.59690  0.31660  0.11110  Biso   1.000  C
  H75      1.0000 0.61500  0.31030  0.15090  Biso   1.000  H
  C114     1.0000 0.51810  0.88700  0.49050  Biso   1.000  C
  H76      1.0000 0.49920  0.88340  0.45050  Biso   1.000  H
  C115     1.0000 0.42520  0.80140  0.49330  Biso   1.000  C
  C116     1.0000 0.34060  0.55200  0.03060  Biso   1.000  C
  C117     1.0000 0.34150  0.48590  0.84880  Biso   1.000  C
  C118     1.0000 0.25660  0.63350  0.50350  Biso   1.000  C
  H77      1.0000 0.23600  0.63260  0.46340  Biso   1.000  H
  C119     1.0000 0.22890  0.59320  0.53530  Biso   1.000  C
  H78      1.0000 0.18860  0.56600  0.51530  Biso   1.000  H
  C120     1.0000 0.27720  0.58580  0.00120  Biso   1.000  C
  H79      1.0000 0.25450  0.58130  0.96130  Biso   1.000  H
  C121     1.0000 0.45030  0.42270  0.99490  Biso   1.000  C
  C122     1.0000 0.31610  0.67540  0.53340  Biso   1.000  C
  C123     1.0000 0.53930  0.36160  0.08470  Biso   1.000  C
  H80      1.0000 0.51910  0.38440  0.10650  Biso   1.000  H
  C124     1.0000 0.24870  0.62570  0.03170  Biso   1.000  C
  H81      1.0000 0.20620  0.64770  0.01140  Biso   1.000  H
  C125     1.0000 0.37230  0.47540  0.91240  Biso   1.000  C
  C126     1.0000 0.54270  0.33400  0.99460  Biso   1.000  C
  H82      1.0000 0.52490  0.33740  0.95460  Biso   1.000  H
  C127     1.0000 0.30970  0.74310  0.34810  Biso   1.000  C
  C128     1.0000 0.24760  0.70690  0.31910  Biso   1.000  C
  H83      1.0000 0.22410  0.68800  0.33940  Biso   1.000  H
  C129     1.0000 0.34180  0.75180  0.41230  Biso   1.000  C
  C130     1.0000 0.33950  0.60370  0.11570  Biso   1.000  C
  H84      1.0000 0.36170  0.61080  0.15550  Biso   1.000  H
  C131     1.0000 0.51790  0.85790  0.58170  Biso   1.000  C
  H85      1.0000 0.49850  0.83510  0.60400  Biso   1.000  H
  C132     1.0000 0.51130  0.37260  0.02520  Biso   1.000  C
  C133     1.0000 0.48730  0.85020  0.52260  Biso   1.000  C
  C134     1.0000 0.28810  0.53760  0.82230  Biso   1.000  C
  H86      1.0000 0.27200  0.56800  0.84410  Biso   1.000  H
  C135     1.0000 0.31310  0.75710  0.25750  Biso   1.000  C
  H87      1.0000 0.33590  0.77480  0.23630  Biso   1.000  H
  C136     1.0000 0.60090  0.29070  0.02560  Biso   1.000  C
  H88      1.0000 0.62200  0.26640  0.00500  Biso   1.000  H
  C137     1.0000 0.22100  0.69920  0.26000  Biso   1.000  C
  H89      1.0000 0.17860  0.67620  0.24080  Biso   1.000  H
  C138     1.0000 0.57780  0.92880  0.52090  Biso   1.000  C
  H90      1.0000 0.59790  0.95380  0.49980  Biso   1.000  H
  C139     1.0000 0.34380  0.76790  0.31660  Biso   1.000  C
  H91      1.0000 0.38620  0.79130  0.33460  Biso   1.000  H
  C140     1.0000 0.34460  0.67530  0.59270  Biso   1.000  C
  H92      1.0000 0.38360  0.70430  0.61370  Biso   1.000  H
  C141     1.0000 0.36650  0.44530  0.81500  Biso   1.000  C
  H93      1.0000 0.40470  0.41330  0.83150  Biso   1.000  H
  C142     1.0000 0.25900  0.54360  0.76310  Biso   1.000  C
  H94      1.0000 0.22360  0.57950  0.74560  Biso   1.000  H
  C143     1.0000 0.33270  0.45390  0.75590  Biso   1.000  C
  H95      1.0000 0.34860  0.42520  0.73320  Biso   1.000  H
  C144     1.0000 0.31430  0.63140  0.62070  Biso   1.000  C
  H96      1.0000 0.33490  0.62980  0.66090  Biso   1.000  H
  N37      1.0000 0.62860  0.28130  0.08250  Biso   1.000  N
  N38      1.0000 0.27810  0.63480  0.08840  Biso   1.000  N
  N39      1.0000 0.27930  0.50010  0.72920  Biso   1.000  N
  N40      1.0000 0.42590  0.46100  0.02770  Biso   1.000  N
  N41      1.0000 0.34400  0.51750  0.94090  Biso   1.000  N
  N42      1.0000 0.42520  0.42730  0.93720  Biso   1.000  N
  N43      1.0000 0.25620  0.59060  0.59280  Biso   1.000  N
  N44      1.0000 0.25350  0.72340  0.22880  Biso   1.000  N
  N45      1.0000 0.60800  0.93510  0.57830  Biso   1.000  N
  N46      1.0000 0.31380  0.71290  0.44150  Biso   1.000  N
  N47      1.0000 0.39630  0.79900  0.43590  Biso   1.000  N
  N48      1.0000 0.40240  0.76060  0.52680  Biso   1.000  N
  Ag9      1.0000 0.22622  0.29099  0.63185  Biso   1.000  Ag
  Ag10     1.0000 0.70465  0.99779  0.13243  Biso   1.000  Ag
  C145     1.0000 0.84630  0.78000  0.99900  Biso   1.000  C
  C146     1.0000 0.87210  0.99280  0.49810  Biso   1.000  C
  C147     1.0000 0.07770  0.60020  0.10780  Biso   1.000  C
  H97      1.0000 0.09790  0.59640  0.14780  Biso   1.000  H
  C148     1.0000 0.87220  0.93830  0.58910  Biso   1.000  C
  H98      1.0000 0.91480  0.95960  0.61040  Biso   1.000  H
  C149     1.0000 0.09690  0.18340  0.61110  Biso   1.000  C
  H99      1.0000 0.11500  0.18970  0.65090  Biso   1.000  H
  C150     1.0000 0.01810  0.61300  0.99050  Biso   1.000  C
  H100     1.0000 0.99920  0.61660  0.95050  Biso   1.000  H
  C151     1.0000 0.92520  0.69860  0.99330  Biso   1.000  C
  C152     1.0000 0.84060  0.94800  0.53060  Biso   1.000  C
  C153     1.0000 0.84150  0.01410  0.34880  Biso   1.000  C
  C154     1.0000 0.75660  0.86650  0.00350  Biso   1.000  C
  H101     1.0000 0.73600  0.86740  0.96340  Biso   1.000  H
  C155     1.0000 0.72890  0.90680  0.03530  Biso   1.000  C
  H102     1.0000 0.68860  0.93400  0.01530  Biso   1.000  H
  C156     1.0000 0.77720  0.91420  0.50120  Biso   1.000  C
  H103     1.0000 0.75450  0.91870  0.46130  Biso   1.000  H
  C157     1.0000 0.95030  0.07730  0.49490  Biso   1.000  C
  C158     1.0000 0.81610  0.82460  0.03340  Biso   1.000  C
  C159     1.0000 0.03930  0.13840  0.58470  Biso   1.000  C
  H104     1.0000 0.01910  0.11560  0.60650  Biso   1.000  H
  C160     1.0000 0.74870  0.87430  0.53170  Biso   1.000  C
  H105     1.0000 0.70620  0.85230  0.51140  Biso   1.000  H
  C161     1.0000 0.87230  0.02460  0.41240  Biso   1.000  C
  C162     1.0000 0.04270  0.16600  0.49460  Biso   1.000  C
  H106     1.0000 0.02490  0.16260  0.45460  Biso   1.000  H
  C163     1.0000 0.80970  0.75690  0.84810  Biso   1.000  C
  C164     1.0000 0.74760  0.79310  0.81910  Biso   1.000  C
  H107     1.0000 0.72410  0.81200  0.83940  Biso   1.000  H
  C165     1.0000 0.84180  0.74820  0.91230  Biso   1.000  C
  C166     1.0000 0.83950  0.89630  0.61570  Biso   1.000  C
  H108     1.0000 0.86170  0.88920  0.65550  Biso   1.000  H
  C167     1.0000 0.01790  0.64210  0.08170  Biso   1.000  C
  H109     1.0000 0.99850  0.66490  0.10400  Biso   1.000  H
  C168     1.0000 0.01130  0.12740  0.52520  Biso   1.000  C
  C169     1.0000 0.98730  0.64980  0.02260  Biso   1.000  C
  C170     1.0000 0.78810  0.96240  0.32230  Biso   1.000  C
  H110     1.0000 0.77200  0.93200  0.34410  Biso   1.000  H
  C171     1.0000 0.81310  0.74290  0.75750  Biso   1.000  C
  H111     1.0000 0.83590  0.72520  0.73630  Biso   1.000  H
  C172     1.0000 0.10090  0.20930  0.52560  Biso   1.000  C
  H112     1.0000 0.12200  0.23360  0.50500  Biso   1.000  H
  C173     1.0000 0.72100  0.80080  0.76000  Biso   1.000  C
  H113     1.0000 0.67860  0.82380  0.74080  Biso   1.000  H
  C174     1.0000 0.07780  0.57120  0.02090  Biso   1.000  C
  H114     1.0000 0.09790  0.54620  0.99980  Biso   1.000  H
  C175     1.0000 0.84380  0.73210  0.81660  Biso   1.000  C
  H115     1.0000 0.88620  0.70870  0.83460  Biso   1.000  H
  C176     1.0000 0.84460  0.82470  0.09270  Biso   1.000  C
  H116     1.0000 0.88360  0.79570  0.11370  Biso   1.000  H
  C177     1.0000 0.86650  0.05470  0.31500  Biso   1.000  C
  H117     1.0000 0.90470  0.08670  0.33150  Biso   1.000  H
  C178     1.0000 0.75900  0.95640  0.26310  Biso   1.000  C
  H118     1.0000 0.72360  0.92050  0.24560  Biso   1.000  H
  C179     1.0000 0.83270  0.04610  0.25590  Biso   1.000  C
  H119     1.0000 0.84860  0.07480  0.23320  Biso   1.000  H
  C180     1.0000 0.81430  0.86860  0.12070  Biso   1.000  C
  H120     1.0000 0.83490  0.87020  0.16090  Biso   1.000  H
  N49      1.0000 0.12860  0.21870  0.58250  Biso   1.000  N
  N50      1.0000 0.77810  0.86520  0.58840  Biso   1.000  N
  N51      1.0000 0.77930  0.99990  0.22920  Biso   1.000  N
  N52      1.0000 0.92590  0.03900  0.52770  Biso   1.000  N
  N53      1.0000 0.84400  0.98250  0.44090  Biso   1.000  N
  N54      1.0000 0.92520  0.07270  0.43720  Biso   1.000  N
  N55      1.0000 0.75620  0.90940  0.09280  Biso   1.000  N
  N56      1.0000 0.75350  0.77660  0.72880  Biso   1.000  N
  N57      1.0000 0.10800  0.56490  0.07830  Biso   1.000  N
  N58      1.0000 0.81380  0.78710  0.94150  Biso   1.000  N
  N59      1.0000 0.89630  0.70100  0.93590  Biso   1.000  N
  N60      1.0000 0.90240  0.73940  0.02680  Biso   1.000  N
  Ag11     1.0000 0.72622  0.79099  0.63185  Biso   1.000  Ag
  Ag12     1.0000 0.20465  0.49779  0.13243  Biso   1.000  Ag
  C181     1.0000 0.34630  0.28000  0.99900  Biso   1.000  C
  C182     1.0000 0.37210  0.49280  0.49810  Biso   1.000  C
  C183     1.0000 0.57770  0.10020  0.10780  Biso   1.000  C
  H121     1.0000 0.59790  0.09640  0.14780  Biso   1.000  H
  C184     1.0000 0.37220  0.43830  0.58910  Biso   1.000  C
  H122     1.0000 0.41480  0.45960  0.61040  Biso   1.000  H
  C185     1.0000 0.59690  0.68340  0.61110  Biso   1.000  C
  H123     1.0000 0.61500  0.68970  0.65090  Biso   1.000  H
  C186     1.0000 0.51810  0.11300  0.99050  Biso   1.000  C
  H124     1.0000 0.49920  0.11660  0.95050  Biso   1.000  H
  C187     1.0000 0.42520  0.19860  0.99330  Biso   1.000  C
  C188     1.0000 0.34060  0.44800  0.53060  Biso   1.000  C
  C189     1.0000 0.34150  0.51410  0.34880  Biso   1.000  C
  C190     1.0000 0.25660  0.36650  0.00350  Biso   1.000  C
  H125     1.0000 0.23600  0.36740  0.96340  Biso   1.000  H
  C191     1.0000 0.22890  0.40680  0.03530  Biso   1.000  C
  H126     1.0000 0.18860  0.43400  0.01530  Biso   1.000  H
  C192     1.0000 0.27720  0.41420  0.50120  Biso   1.000  C
  H127     1.0000 0.25450  0.41870  0.46130  Biso   1.000  H
  C193     1.0000 0.45030  0.57730  0.49490  Biso   1.000  C
  C194     1.0000 0.31610  0.32460  0.03340  Biso   1.000  C
  C195     1.0000 0.53930  0.63840  0.58470  Biso   1.000  C
  H128     1.0000 0.51910  0.61560  0.60650  Biso   1.000  H
  C196     1.0000 0.24870  0.37430  0.53170  Biso   1.000  C
  H129     1.0000 0.20620  0.35230  0.51140  Biso   1.000  H
  C197     1.0000 0.37230  0.52460  0.41240  Biso   1.000  C
  C198     1.0000 0.54270  0.66600  0.49460  Biso   1.000  C
  H130     1.0000 0.52490  0.66260  0.45460  Biso   1.000  H
  C199     1.0000 0.30970  0.25690  0.84810  Biso   1.000  C
  C200     1.0000 0.24760  0.29310  0.81910  Biso   1.000  C
  H131     1.0000 0.22410  0.31200  0.83940  Biso   1.000  H
  C201     1.0000 0.34180  0.24820  0.91230  Biso   1.000  C
  C202     1.0000 0.33950  0.39630  0.61570  Biso   1.000  C
  H132     1.0000 0.36170  0.38920  0.65550  Biso   1.000  H
  C203     1.0000 0.51790  0.14210  0.08170  Biso   1.000  C
  H133     1.0000 0.49850  0.16490  0.10400  Biso   1.000  H
  C204     1.0000 0.51130  0.62740  0.52520  Biso   1.000  C
  C205     1.0000 0.48730  0.14980  0.02260  Biso   1.000  C
  C206     1.0000 0.28810  0.46240  0.32230  Biso   1.000  C
  H134     1.0000 0.27200  0.43200  0.34410  Biso   1.000  H
  C207     1.0000 0.31310  0.24290  0.75750  Biso   1.000  C
  H135     1.0000 0.33590  0.22520  0.73630  Biso   1.000  H
  C208     1.0000 0.60090  0.70930  0.52560  Biso   1.000  C
  H136     1.0000 0.62200  0.73360  0.50500  Biso   1.000  H
  C209     1.0000 0.22100  0.30080  0.76000  Biso   1.000  C
  H137     1.0000 0.17860  0.32380  0.74080  Biso   1.000  H
  C210     1.0000 0.57780  0.07120  0.02090  Biso   1.000  C
  H138     1.0000 0.59790  0.04620  0.99980  Biso   1.000  H
  C211     1.0000 0.34380  0.23210  0.81660  Biso   1.000  C
  H139     1.0000 0.38620  0.20870  0.83460  Biso   1.000  H
  C212     1.0000 0.34460  0.32470  0.09270  Biso   1.000  C
  H140     1.0000 0.38360  0.29570  0.11370  Biso   1.000  H
  C213     1.0000 0.36650  0.55470  0.31500  Biso   1.000  C
  H141     1.0000 0.40470  0.58670  0.33150  Biso   1.000  H
  C214     1.0000 0.25900  0.45640  0.26310  Biso   1.000  C
  H142     1.0000 0.22360  0.42050  0.24560  Biso   1.000  H
  C215     1.0000 0.33270  0.54610  0.25590  Biso   1.000  C
  H143     1.0000 0.34860  0.57480  0.23320  Biso   1.000  H
  C216     1.0000 0.31430  0.36860  0.12070  Biso   1.000  C
  H144     1.0000 0.33490  0.37020  0.16090  Biso   1.000  H
  N61      1.0000 0.62860  0.71870  0.58250  Biso   1.000  N
  N62      1.0000 0.27810  0.36520  0.58840  Biso   1.000  N
  N63      1.0000 0.27930  0.49990  0.22920  Biso   1.000  N
  N64      1.0000 0.42590  0.53900  0.52770  Biso   1.000  N
  N65      1.0000 0.34400  0.48250  0.44090  Biso   1.000  N
  N66      1.0000 0.42520  0.57270  0.43720  Biso   1.000  N
  N67      1.0000 0.25620  0.40940  0.09280  Biso   1.000  N
  N68      1.0000 0.25350  0.27660  0.72880  Biso   1.000  N
  N69      1.0000 0.60800  0.06490  0.07830  Biso   1.000  N
  N70      1.0000 0.31380  0.28710  0.94150  Biso   1.000  N
  N71      1.0000 0.39630  0.20100  0.93590  Biso   1.000  N
  N72      1.0000 0.40240  0.23940  0.02680  Biso   1.000  N
  Ag13     1.0000 0.77378  0.29099  0.86815  Biso   1.000  Ag
  Ag14     1.0000 0.29535  0.99779  0.36757  Biso   1.000  Ag
  C217     1.0000 0.15370  0.78000  0.50100  Biso   1.000  C
  C218     1.0000 0.12790  0.99280  0.00190  Biso   1.000  C
  C219     1.0000 0.92230  0.60020  0.39220  Biso   1.000  C
  H145     1.0000 0.90210  0.59640  0.35220  Biso   1.000  H
  C220     1.0000 0.12780  0.93830  0.91090  Biso   1.000  C
  H146     1.0000 0.08520  0.95960  0.88960  Biso   1.000  H
  C221     1.0000 0.90310  0.18340  0.88890  Biso   1.000  C
  H147     1.0000 0.88500  0.18970  0.84910  Biso   1.000  H
  C222     1.0000 0.98190  0.61300  0.50950  Biso   1.000  C
  H148     1.0000 0.00080  0.61660  0.54950  Biso   1.000  H
  C223     1.0000 0.07480  0.69860  0.50670  Biso   1.000  C
  C224     1.0000 0.15940  0.94800  0.96940  Biso   1.000  C
  C225     1.0000 0.15850  0.01410  0.15120  Biso   1.000  C
  C226     1.0000 0.24340  0.86650  0.49650  Biso   1.000  C
  H149     1.0000 0.26400  0.86740  0.53660  Biso   1.000  H
  C227     1.0000 0.27110  0.90680  0.46470  Biso   1.000  C
  H150     1.0000 0.31140  0.93400  0.48470  Biso   1.000  H
  C228     1.0000 0.22280  0.91420  0.99880  Biso   1.000  C
  H151     1.0000 0.24550  0.91870  0.03870  Biso   1.000  H
  C229     1.0000 0.04970  0.07730  0.00510  Biso   1.000  C
  C230     1.0000 0.18390  0.82460  0.46660  Biso   1.000  C
  C231     1.0000 0.96070  0.13840  0.91530  Biso   1.000  C
  H152     1.0000 0.98090  0.11560  0.89350  Biso   1.000  H
  C232     1.0000 0.25130  0.87430  0.96830  Biso   1.000  C
  H153     1.0000 0.29380  0.85230  0.98860  Biso   1.000  H
  C233     1.0000 0.12770  0.02460  0.08760  Biso   1.000  C
  C234     1.0000 0.95730  0.16600  0.00540  Biso   1.000  C
  H154     1.0000 0.97510  0.16260  0.04540  Biso   1.000  H
  C235     1.0000 0.19030  0.75690  0.65190  Biso   1.000  C
  C236     1.0000 0.25240  0.79310  0.68090  Biso   1.000  C
  H155     1.0000 0.27590  0.81200  0.66060  Biso   1.000  H
  C237     1.0000 0.15820  0.74820  0.58770  Biso   1.000  C
  C238     1.0000 0.16050  0.89630  0.88430  Biso   1.000  C
  H156     1.0000 0.13830  0.88920  0.84450  Biso   1.000  H
  C239     1.0000 0.98210  0.64210  0.41830  Biso   1.000  C
  H157     1.0000 0.00150  0.66490  0.39600  Biso   1.000  H
  C240     1.0000 0.98870  0.12740  0.97480  Biso   1.000  C
  C241     1.0000 0.01270  0.64980  0.47740  Biso   1.000  C
  C242     1.0000 0.21190  0.96240  0.17770  Biso   1.000  C
  H158     1.0000 0.22800  0.93200  0.15590  Biso   1.000  H
  C243     1.0000 0.18690  0.74290  0.74250  Biso   1.000  C
  H159     1.0000 0.16410  0.72520  0.76370  Biso   1.000  H
  C244     1.0000 0.89910  0.20930  0.97440  Biso   1.000  C
  H160     1.0000 0.87800  0.23360  0.99500  Biso   1.000  H
  C245     1.0000 0.27900  0.80080  0.74000  Biso   1.000  C
  H161     1.0000 0.32140  0.82380  0.75920  Biso   1.000  H
  C246     1.0000 0.92220  0.57120  0.47910  Biso   1.000  C
  H162     1.0000 0.90210  0.54620  0.50020  Biso   1.000  H
  C247     1.0000 0.15620  0.73210  0.68340  Biso   1.000  C
  H163     1.0000 0.11380  0.70870  0.66540  Biso   1.000  H
  C248     1.0000 0.15540  0.82470  0.40730  Biso   1.000  C
  H164     1.0000 0.11640  0.79570  0.38630  Biso   1.000  H
  C249     1.0000 0.13350  0.05470  0.18500  Biso   1.000  C
  H165     1.0000 0.09530  0.08670  0.16850  Biso   1.000  H
  C250     1.0000 0.24100  0.95640  0.23690  Biso   1.000  C
  H166     1.0000 0.27640  0.92050  0.25440  Biso   1.000  H
  C251     1.0000 0.16730  0.04610  0.24410  Biso   1.000  C
  H167     1.0000 0.15140  0.07480  0.26680  Biso   1.000  H
  C252     1.0000 0.18570  0.86860  0.37930  Biso   1.000  C
  H168     1.0000 0.16510  0.87020  0.33910  Biso   1.000  H
  N73      1.0000 0.87140  0.21870  0.91750  Biso   1.000  N
  N74      1.0000 0.22190  0.86520  0.91160  Biso   1.000  N
  N75      1.0000 0.22070  0.99990  0.27080  Biso   1.000  N
  N76      1.0000 0.07410  0.03900  0.97230  Biso   1.000  N
  N77      1.0000 0.15600  0.98250  0.05910  Biso   1.000  N
  N78      1.0000 0.07480  0.07270  0.06280  Biso   1.000  N
  N79      1.0000 0.24380  0.90940  0.40720  Biso   1.000  N
  N80      1.0000 0.24650  0.77660  0.77120  Biso   1.000  N
  N81      1.0000 0.89200  0.56490  0.42170  Biso   1.000  N
  N82      1.0000 0.18620  0.78710  0.55850  Biso   1.000  N
  N83      1.0000 0.10370  0.70100  0.56410  Biso   1.000  N
  N84      1.0000 0.09760  0.73940  0.47320  Biso   1.000  N
  Ag15     1.0000 0.27378  0.79099  0.86815  Biso   1.000  Ag
  Ag16     1.0000 0.79535  0.49779  0.36757  Biso   1.000  Ag
  C253     1.0000 0.65370  0.28000  0.50100  Biso   1.000  C
  C254     1.0000 0.62790  0.49280  0.00190  Biso   1.000  C
  C255     1.0000 0.42230  0.10020  0.39220  Biso   1.000  C
  H169     1.0000 0.40210  0.09640  0.35220  Biso   1.000  H
  C256     1.0000 0.62780  0.43830  0.91090  Biso   1.000  C
  H170     1.0000 0.58520  0.45960  0.88960  Biso   1.000  H
  C257     1.0000 0.40310  0.68340  0.88890  Biso   1.000  C
  H171     1.0000 0.38500  0.68970  0.84910  Biso   1.000  H
  C258     1.0000 0.48190  0.11300  0.50950  Biso   1.000  C
  H172     1.0000 0.50080  0.11660  0.54950  Biso   1.000  H
  C259     1.0000 0.57480  0.19860  0.50670  Biso   1.000  C
  C260     1.0000 0.65940  0.44800  0.96940  Biso   1.000  C
  C261     1.0000 0.65850  0.51410  0.15120  Biso   1.000  C
  C262     1.0000 0.74340  0.36650  0.49650  Biso   1.000  C
  H173     1.0000 0.76400  0.36740  0.53660  Biso   1.000  H
  C263     1.0000 0.77110  0.40680  0.46470  Biso   1.000  C
  H174     1.0000 0.81140  0.43400  0.48470  Biso   1.000  H
  C264     1.0000 0.72280  0.41420  0.99880  Biso   1.000  C
  H175     1.0000 0.74550  0.41870  0.03870  Biso   1.000  H
  C265     1.0000 0.54970  0.57730  0.00510  Biso   1.000  C
  C266     1.0000 0.68390  0.32460  0.46660  Biso   1.000  C
  C267     1.0000 0.46070  0.63840  0.91530  Biso   1.000  C
  H176     1.0000 0.48090  0.61560  0.89350  Biso   1.000  H
  C268     1.0000 0.75130  0.37430  0.96830  Biso   1.000  C
  H177     1.0000 0.79380  0.35230  0.98860  Biso   1.000  H
  C269     1.0000 0.62770  0.52460  0.08760  Biso   1.000  C
  C270     1.0000 0.45730  0.66600  0.00540  Biso   1.000  C
  H178     1.0000 0.47510  0.66260  0.04540  Biso   1.000  H
  C271     1.0000 0.69030  0.25690  0.65190  Biso   1.000  C
  C272     1.0000 0.75240  0.29310  0.68090  Biso   1.000  C
  H179     1.0000 0.77590  0.31200  0.66060  Biso   1.000  H
  C273     1.0000 0.65820  0.24820  0.58770  Biso   1.000  C
  C274     1.0000 0.66050  0.39630  0.88430  Biso   1.000  C
  H180     1.0000 0.63830  0.38920  0.84450  Biso   1.000  H
  C275     1.0000 0.48210  0.14210  0.41830  Biso   1.000  C
  H181     1.0000 0.50150  0.16490  0.39600  Biso   1.000  H
  C276     1.0000 0.48870  0.62740  0.97480  Biso   1.000  C
  C277     1.0000 0.51270  0.14980  0.47740  Biso   1.000  C
  C278     1.0000 0.71190  0.46240  0.17770  Biso   1.000  C
  H182     1.0000 0.72800  0.43200  0.15590  Biso   1.000  H
  C279     1.0000 0.68690  0.24290  0.74250  Biso   1.000  C
  H183     1.0000 0.66410  0.22520  0.76370  Biso   1.000  H
  C280     1.0000 0.39910  0.70930  0.97440  Biso   1.000  C
  H184     1.0000 0.37800  0.73360  0.99500  Biso   1.000  H
  C281     1.0000 0.77900  0.30080  0.74000  Biso   1.000  C
  H185     1.0000 0.82140  0.32380  0.75920  Biso   1.000  H
  C282     1.0000 0.42220  0.07120  0.47910  Biso   1.000  C
  H186     1.0000 0.40210  0.04620  0.50020  Biso   1.000  H
  C283     1.0000 0.65620  0.23210  0.68340  Biso   1.000  C
  H187     1.0000 0.61380  0.20870  0.66540  Biso   1.000  H
  C284     1.0000 0.65540  0.32470  0.40730  Biso   1.000  C
  H188     1.0000 0.61640  0.29570  0.38630  Biso   1.000  H
  C285     1.0000 0.63350  0.55470  0.18500  Biso   1.000  C
  H189     1.0000 0.59530  0.58670  0.16850  Biso   1.000  H
  C286     1.0000 0.74100  0.45640  0.23690  Biso   1.000  C
  H190     1.0000 0.77640  0.42050  0.25440  Biso   1.000  H
  C287     1.0000 0.66730  0.54610  0.24410  Biso   1.000  C
  H191     1.0000 0.65140  0.57480  0.26680  Biso   1.000  H
  C288     1.0000 0.68570  0.36860  0.37930  Biso   1.000  C
  H192     1.0000 0.66510  0.37020  0.33910  Biso   1.000  H
  N85      1.0000 0.37140  0.71870  0.91750  Biso   1.000  N
  N86      1.0000 0.72190  0.36520  0.91160  Biso   1.000  N
  N87      1.0000 0.72070  0.49990  0.27080  Biso   1.000  N
  N88      1.0000 0.57410  0.53900  0.97230  Biso   1.000  N
  N89      1.0000 0.65600  0.48250  0.05910  Biso   1.000  N
  N90      1.0000 0.57480  0.57270  0.06280  Biso   1.000  N
  N91      1.0000 0.74380  0.40940  0.40720  Biso   1.000  N
  N92      1.0000 0.74650  0.27660  0.77120  Biso   1.000  N
  N93      1.0000 0.39200  0.06490  0.42170  Biso   1.000  N
  N94      1.0000 0.68620  0.28710  0.55850  Biso   1.000  N
  N95      1.0000 0.60370  0.20100  0.56410  Biso   1.000  N
  N96      1.0000 0.59760  0.23940  0.47320  Biso   1.000  N
