data_image0
_cell_length_a       21.9848
_cell_length_b       16.5617
_cell_length_c       25.6443
_cell_angle_alpha    90
_cell_angle_beta     115.366
_cell_angle_gamma    90

_symmetry_space_group_name_H-M    "P 1"
_symmetry_int_tables_number       1

loop_
  _symmetry_equiv_pos_as_xyz
  'x, y, z'

loop_
  _atom_site_label
  _atom_site_occupancy
  _atom_site_fract_x
  _atom_site_fract_y
  _atom_site_fract_z
  _atom_site_thermal_displace_type
  _atom_site_B_iso_or_equiv
  _atom_site_type_symbol
  Ag1      1.0000 0.27390  0.20897  0.86825  Biso   1.000  Ag
  Ag2      1.0000 0.79500  0.50132  0.36769  Biso   1.000  Ag
  C1       1.0000 0.62780  0.47600  0.08782  Biso   1.000  C
  C2       1.0000 0.42270  0.90040  0.39260  Biso   1.000  C
  H1       1.0000 0.40290  0.90500  0.35260  Biso   1.000  H
  C3       1.0000 0.65380  0.71970  0.50129  Biso   1.000  C
  C4       1.0000 0.62800  0.56160  0.91130  Biso   1.000  C
  H2       1.0000 0.58550  0.53980  0.89000  Biso   1.000  H
  C5       1.0000 0.62800  0.50700  0.00244  Biso   1.000  C
  C6       1.0000 0.48210  0.88720  0.50940  Biso   1.000  C
  H3       1.0000 0.50140  0.88420  0.54950  Biso   1.000  H
  C7       1.0000 0.40310  0.31690  0.88920  Biso   1.000  C
  H4       1.0000 0.38460  0.31130  0.84930  Biso   1.000  H
  C8       1.0000 0.74340  0.63350  0.49629  Biso   1.000  C
  H5       1.0000 0.76390  0.63300  0.53640  Biso   1.000  H
  C9       1.0000 0.57530  0.80070  0.50720  Biso   1.000  C
  C10      1.0000 0.65990  0.55230  0.97032  Biso   1.000  C
  C11      1.0000 0.72290  0.58650  0.99940  Biso   1.000  C
  H6       1.0000 0.74550  0.58210  0.03940  Biso   1.000  H
  C12      1.0000 0.77190  0.59270  0.46560  Biso   1.000  C
  H7       1.0000 0.81220  0.56540  0.48580  Biso   1.000  H
  C13      1.0000 0.75170  0.62660  0.96920  Biso   1.000  C
  H8       1.0000 0.79420  0.64900  0.98960  Biso   1.000  H
  C14      1.0000 0.45730  0.33410  0.00560  Biso   1.000  C
  H9       1.0000 0.47500  0.33800  0.04560  Biso   1.000  H
  C15      1.0000 0.65830  0.48620  0.15180  Biso   1.000  C
  C16      1.0000 0.46090  0.36100  0.91560  Biso   1.000  C
  H10      1.0000 0.48130  0.38360  0.89390  Biso   1.000  H
  C17      1.0000 0.68370  0.67510  0.46686  Biso   1.000  C
  C18      1.0000 0.69020  0.74260  0.65190  Biso   1.000  C
  C19      1.0000 0.48230  0.85760  0.41865  Biso   1.000  C
  H11      1.0000 0.50160  0.83410  0.39640  Biso   1.000  H
  C20      1.0000 0.54980  0.42280  0.00565  Biso   1.000  C
  C21      1.0000 0.77930  0.69870  0.74030  Biso   1.000  C
  H12      1.0000 0.82150  0.67500  0.75940  Biso   1.000  H
  C22      1.0000 0.75270  0.70700  0.68110  Biso   1.000  C
  H13      1.0000 0.77670  0.68890  0.66100  Biso   1.000  H
  C23      1.0000 0.66100  0.60420  0.88440  Biso   1.000  C
  H14      1.0000 0.63880  0.61120  0.84460  Biso   1.000  H
  C24      1.0000 0.65650  0.76800  0.68410  Biso   1.000  C
  H15      1.0000 0.61420  0.79180  0.66620  Biso   1.000  H
  C25      1.0000 0.71220  0.53800  0.17830  Biso   1.000  C
  H16      1.0000 0.72840  0.56860  0.15660  Biso   1.000  H
  C26      1.0000 0.68690  0.75730  0.74290  Biso   1.000  C
  H17      1.0000 0.66400  0.77500  0.76400  Biso   1.000  H
  C27      1.0000 0.39890  0.29060  0.97470  Biso   1.000  C
  H18      1.0000 0.37760  0.26640  0.99510  Biso   1.000  H
  C28      1.0000 0.65830  0.75220  0.58790  Biso   1.000  C
  C29      1.0000 0.74140  0.54340  0.23770  Biso   1.000  C
  H19      1.0000 0.77730  0.57880  0.25530  Biso   1.000  H
  C30      1.0000 0.51270  0.85020  0.47797  Biso   1.000  C
  C31      1.0000 0.65560  0.67460  0.40750  Biso   1.000  C
  H20      1.0000 0.61630  0.70330  0.38640  Biso   1.000  H
  C32      1.0000 0.48910  0.37200  0.97511  Biso   1.000  C
  C33      1.0000 0.63350  0.44500  0.18530  Biso   1.000  C
  H21      1.0000 0.59530  0.41270  0.16870  Biso   1.000  H
  C34      1.0000 0.42230  0.92860  0.47970  Biso   1.000  C
  H22      1.0000 0.40210  0.95300  0.50100  Biso   1.000  H
  C35      1.0000 0.66750  0.45350  0.24450  Biso   1.000  C
  H23      1.0000 0.65180  0.42430  0.26710  Biso   1.000  H
  C36      1.0000 0.68640  0.63120  0.37990  Biso   1.000  C
  H24      1.0000 0.66600  0.62990  0.33980  Biso   1.000  H
  N1       1.0000 0.37154  0.28130  0.91767  Biso   1.000  N
  N2       1.0000 0.72209  0.63560  0.91184  Biso   1.000  N
  N3       1.0000 0.72090  0.50030  0.27143  Biso   1.000  N
  N4       1.0000 0.57474  0.46100  0.97288  Biso   1.000  N
  N5       1.0000 0.65628  0.51820  0.05968  Biso   1.000  N
  N6       1.0000 0.57504  0.42750  0.06315  Biso   1.000  N
  N7       1.0000 0.74411  0.59050  0.40749  Biso   1.000  N
  N8       1.0000 0.74680  0.72340  0.77159  Biso   1.000  N
  N9       1.0000 0.39200  0.93550  0.42218  Biso   1.000  N
  N10      1.0000 0.59761  0.76040  0.47329  Biso   1.000  N
  N11      1.0000 0.68682  0.71240  0.55894  Biso   1.000  N
  N12      1.0000 0.60415  0.79890  0.56459  Biso   1.000  N
  Ag3      1.0000 0.77390  0.70897  0.86825  Biso   1.000  Ag
  Ag4      1.0000 0.29500  0.00132  0.36769  Biso   1.000  Ag
  C37      1.0000 0.12780  0.97600  0.08782  Biso   1.000  C
  C38      1.0000 0.92270  0.40040  0.39260  Biso   1.000  C
  H25      1.0000 0.90290  0.40500  0.35260  Biso   1.000  H
  C39      1.0000 0.15380  0.21970  0.50129  Biso   1.000  C
  C40      1.0000 0.12800  0.06160  0.91130  Biso   1.000  C
  H26      1.0000 0.08550  0.03980  0.89000  Biso   1.000  H
  C41      1.0000 0.12800  0.00700  0.00244  Biso   1.000  C
  C42      1.0000 0.98210  0.38720  0.50940  Biso   1.000  C
  H27      1.0000 0.00140  0.38420  0.54950  Biso   1.000  H
  C43      1.0000 0.90310  0.81690  0.88920  Biso   1.000  C
  H28      1.0000 0.88460  0.81130  0.84930  Biso   1.000  H
  C44      1.0000 0.24340  0.13350  0.49629  Biso   1.000  C
  H29      1.0000 0.26390  0.13300  0.53640  Biso   1.000  H
  C45      1.0000 0.07530  0.30070  0.50720  Biso   1.000  C
  C46      1.0000 0.15990  0.05230  0.97032  Biso   1.000  C
  C47      1.0000 0.22290  0.08650  0.99940  Biso   1.000  C
  H30      1.0000 0.24550  0.08210  0.03940  Biso   1.000  H
  C48      1.0000 0.27190  0.09270  0.46560  Biso   1.000  C
  H31      1.0000 0.31220  0.06540  0.48580  Biso   1.000  H
  C49      1.0000 0.25170  0.12660  0.96920  Biso   1.000  C
  H32      1.0000 0.29420  0.14900  0.98960  Biso   1.000  H
  C50      1.0000 0.95730  0.83410  0.00560  Biso   1.000  C
  H33      1.0000 0.97500  0.83800  0.04560  Biso   1.000  H
  C51      1.0000 0.15830  0.98620  0.15180  Biso   1.000  C
  C52      1.0000 0.96090  0.86100  0.91560  Biso   1.000  C
  H34      1.0000 0.98130  0.88360  0.89390  Biso   1.000  H
  C53      1.0000 0.18370  0.17510  0.46686  Biso   1.000  C
  C54      1.0000 0.19020  0.24260  0.65190  Biso   1.000  C
  C55      1.0000 0.98230  0.35760  0.41865  Biso   1.000  C
  H35      1.0000 0.00160  0.33410  0.39640  Biso   1.000  H
  C56      1.0000 0.04980  0.92280  0.00565  Biso   1.000  C
  C57      1.0000 0.27930  0.19870  0.74030  Biso   1.000  C
  H36      1.0000 0.32150  0.17500  0.75940  Biso   1.000  H
  C58      1.0000 0.25270  0.20700  0.68110  Biso   1.000  C
  H37      1.0000 0.27670  0.18890  0.66100  Biso   1.000  H
  C59      1.0000 0.16100  0.10420  0.88440  Biso   1.000  C
  H38      1.0000 0.13880  0.11120  0.84460  Biso   1.000  H
  C60      1.0000 0.15650  0.26800  0.68410  Biso   1.000  C
  H39      1.0000 0.11420  0.29180  0.66620  Biso   1.000  H
  C61      1.0000 0.21220  0.03800  0.17830  Biso   1.000  C
  H40      1.0000 0.22840  0.06860  0.15660  Biso   1.000  H
  C62      1.0000 0.18690  0.25730  0.74290  Biso   1.000  C
  H41      1.0000 0.16400  0.27500  0.76400  Biso   1.000  H
  C63      1.0000 0.89890  0.79060  0.97470  Biso   1.000  C
  H42      1.0000 0.87760  0.76640  0.99510  Biso   1.000  H
  C64      1.0000 0.15830  0.25220  0.58790  Biso   1.000  C
  C65      1.0000 0.24140  0.04340  0.23770  Biso   1.000  C
  H43      1.0000 0.27730  0.07880  0.25530  Biso   1.000  H
  C66      1.0000 0.01270  0.35020  0.47797  Biso   1.000  C
  C67      1.0000 0.15560  0.17460  0.40750  Biso   1.000  C
  H44      1.0000 0.11630  0.20330  0.38640  Biso   1.000  H
  C68      1.0000 0.98910  0.87200  0.97511  Biso   1.000  C
  C69      1.0000 0.13350  0.94500  0.18530  Biso   1.000  C
  H45      1.0000 0.09530  0.91270  0.16870  Biso   1.000  H
  C70      1.0000 0.92230  0.42860  0.47970  Biso   1.000  C
  H46      1.0000 0.90210  0.45300  0.50100  Biso   1.000  H
  C71      1.0000 0.16750  0.95350  0.24450  Biso   1.000  C
  H47      1.0000 0.15180  0.92430  0.26710  Biso   1.000  H
  C72      1.0000 0.18640  0.13120  0.37990  Biso   1.000  C
  H48      1.0000 0.16600  0.12990  0.33980  Biso   1.000  H
  N13      1.0000 0.87154  0.78130  0.91767  Biso   1.000  N
  N14      1.0000 0.22209  0.13560  0.91184  Biso   1.000  N
  N15      1.0000 0.22090  0.00030  0.27143  Biso   1.000  N
  N16      1.0000 0.07474  0.96100  0.97288  Biso   1.000  N
  N17      1.0000 0.15628  0.01820  0.05968  Biso   1.000  N
  N18      1.0000 0.07504  0.92750  0.06315  Biso   1.000  N
  N19      1.0000 0.24411  0.09050  0.40749  Biso   1.000  N
  N20      1.0000 0.24680  0.22340  0.77159  Biso   1.000  N
  N21      1.0000 0.89200  0.43550  0.42218  Biso   1.000  N
  N22      1.0000 0.09761  0.26040  0.47329  Biso   1.000  N
  N23      1.0000 0.18682  0.21240  0.55894  Biso   1.000  N
  N24      1.0000 0.10415  0.29890  0.56459  Biso   1.000  N
  Ag5      1.0000 0.72610  0.20897  0.63175  Biso   1.000  Ag
  Ag6      1.0000 0.20500  0.50132  0.13231  Biso   1.000  Ag
  C73      1.0000 0.37220  0.47600  0.41218  Biso   1.000  C
  C74      1.0000 0.57730  0.90040  0.10740  Biso   1.000  C
  H49      1.0000 0.59710  0.90500  0.14740  Biso   1.000  H
  C75      1.0000 0.34620  0.71970  0.99871  Biso   1.000  C
  C76      1.0000 0.37200  0.56160  0.58870  Biso   1.000  C
  H50      1.0000 0.41450  0.53980  0.61000  Biso   1.000  H
  C77      1.0000 0.37200  0.50700  0.49756  Biso   1.000  C
  C78      1.0000 0.51790  0.88720  0.99060  Biso   1.000  C
  H51      1.0000 0.49860  0.88420  0.95050  Biso   1.000  H
  C79      1.0000 0.59690  0.31690  0.61080  Biso   1.000  C
  H52      1.0000 0.61540  0.31130  0.65070  Biso   1.000  H
  C80      1.0000 0.25660  0.63350  0.00371  Biso   1.000  C
  H53      1.0000 0.23610  0.63300  0.96360  Biso   1.000  H
  C81      1.0000 0.42470  0.80070  0.99280  Biso   1.000  C
  C82      1.0000 0.34010  0.55230  0.52968  Biso   1.000  C
  C83      1.0000 0.27710  0.58650  0.50060  Biso   1.000  C
  H54      1.0000 0.25450  0.58210  0.46060  Biso   1.000  H
  C84      1.0000 0.22810  0.59270  0.03440  Biso   1.000  C
  H55      1.0000 0.18780  0.56540  0.01420  Biso   1.000  H
  C85      1.0000 0.24830  0.62660  0.53080  Biso   1.000  C
  H56      1.0000 0.20580  0.64900  0.51040  Biso   1.000  H
  C86      1.0000 0.54270  0.33410  0.49440  Biso   1.000  C
  H57      1.0000 0.52500  0.33800  0.45440  Biso   1.000  H
  C87      1.0000 0.34170  0.48620  0.34820  Biso   1.000  C
  C88      1.0000 0.53910  0.36100  0.58440  Biso   1.000  C
  H58      1.0000 0.51870  0.38360  0.60610  Biso   1.000  H
  C89      1.0000 0.31630  0.67510  0.03314  Biso   1.000  C
  C90      1.0000 0.30980  0.74260  0.84810  Biso   1.000  C
  C91      1.0000 0.51770  0.85760  0.08135  Biso   1.000  C
  H59      1.0000 0.49840  0.83410  0.10360  Biso   1.000  H
  C92      1.0000 0.45020  0.42280  0.49435  Biso   1.000  C
  C93      1.0000 0.22070  0.69870  0.75970  Biso   1.000  C
  H60      1.0000 0.17850  0.67500  0.74060  Biso   1.000  H
  C94      1.0000 0.24730  0.70700  0.81890  Biso   1.000  C
  H61      1.0000 0.22330  0.68890  0.83900  Biso   1.000  H
  C95      1.0000 0.33900  0.60420  0.61560  Biso   1.000  C
  H62      1.0000 0.36120  0.61120  0.65540  Biso   1.000  H
  C96      1.0000 0.34350  0.76800  0.81590  Biso   1.000  C
  H63      1.0000 0.38580  0.79180  0.83380  Biso   1.000  H
  C97      1.0000 0.28780  0.53800  0.32170  Biso   1.000  C
  H64      1.0000 0.27160  0.56860  0.34340  Biso   1.000  H
  C98      1.0000 0.31310  0.75730  0.75710  Biso   1.000  C
  H65      1.0000 0.33600  0.77500  0.73600  Biso   1.000  H
  C99      1.0000 0.60110  0.29060  0.52530  Biso   1.000  C
  H66      1.0000 0.62240  0.26640  0.50490  Biso   1.000  H
  C100     1.0000 0.34170  0.75220  0.91210  Biso   1.000  C
  C101     1.0000 0.25860  0.54340  0.26230  Biso   1.000  C
  H67      1.0000 0.22270  0.57880  0.24470  Biso   1.000  H
  C102     1.0000 0.48730  0.85020  0.02203  Biso   1.000  C
  C103     1.0000 0.34440  0.67460  0.09250  Biso   1.000  C
  H68      1.0000 0.38370  0.70330  0.11360  Biso   1.000  H
  C104     1.0000 0.51090  0.37200  0.52489  Biso   1.000  C
  C105     1.0000 0.36650  0.44500  0.31470  Biso   1.000  C
  H69      1.0000 0.40470  0.41270  0.33130  Biso   1.000  H
  C106     1.0000 0.57770  0.92860  0.02030  Biso   1.000  C
  H70      1.0000 0.59790  0.95300  0.99900  Biso   1.000  H
  C107     1.0000 0.33250  0.45350  0.25550  Biso   1.000  C
  H71      1.0000 0.34820  0.42430  0.23290  Biso   1.000  H
  C108     1.0000 0.31360  0.63120  0.12010  Biso   1.000  C
  H72      1.0000 0.33400  0.62990  0.16020  Biso   1.000  H
  N25      1.0000 0.62846  0.28130  0.58233  Biso   1.000  N
  N26      1.0000 0.27791  0.63560  0.58816  Biso   1.000  N
  N27      1.0000 0.27910  0.50030  0.22857  Biso   1.000  N
  N28      1.0000 0.42526  0.46100  0.52712  Biso   1.000  N
  N29      1.0000 0.34372  0.51820  0.44032  Biso   1.000  N
  N30      1.0000 0.42496  0.42750  0.43685  Biso   1.000  N
  N31      1.0000 0.25589  0.59050  0.09251  Biso   1.000  N
  N32      1.0000 0.25320  0.72340  0.72841  Biso   1.000  N
  N33      1.0000 0.60800  0.93550  0.07782  Biso   1.000  N
  N34      1.0000 0.40239  0.76040  0.02671  Biso   1.000  N
  N35      1.0000 0.31318  0.71240  0.94106  Biso   1.000  N
  N36      1.0000 0.39585  0.79890  0.93541  Biso   1.000  N
  Ag7      1.0000 0.22610  0.70897  0.63175  Biso   1.000  Ag
  Ag8      1.0000 0.70500  0.00132  0.13231  Biso   1.000  Ag
  C109     1.0000 0.87220  0.97600  0.41218  Biso   1.000  C
  C110     1.0000 0.07730  0.40040  0.10740  Biso   1.000  C
  H73      1.0000 0.09710  0.40500  0.14740  Biso   1.000  H
  C111     1.0000 0.84620  0.21970  0.99871  Biso   1.000  C
  C112     1.0000 0.87200  0.06160  0.58870  Biso   1.000  C
  H74      1.0000 0.91450  0.03980  0.61000  Biso   1.000  H
  C113     1.0000 0.87200  0.00700  0.49756  Biso   1.000  C
  C114     1.0000 0.01790  0.38720  0.99060  Biso   1.000  C
  H75      1.0000 0.99860  0.38420  0.95050  Biso   1.000  H
  C115     1.0000 0.09690  0.81690  0.61080  Biso   1.000  C
  H76      1.0000 0.11540  0.81130  0.65070  Biso   1.000  H
  C116     1.0000 0.75660  0.13350  0.00371  Biso   1.000  C
  H77      1.0000 0.73610  0.13300  0.96360  Biso   1.000  H
  C117     1.0000 0.92470  0.30070  0.99280  Biso   1.000  C
  C118     1.0000 0.84010  0.05230  0.52968  Biso   1.000  C
  C119     1.0000 0.77710  0.08650  0.50060  Biso   1.000  C
  H78      1.0000 0.75450  0.08210  0.46060  Biso   1.000  H
  C120     1.0000 0.72810  0.09270  0.03440  Biso   1.000  C
  H79      1.0000 0.68780  0.06540  0.01420  Biso   1.000  H
  C121     1.0000 0.74830  0.12660  0.53080  Biso   1.000  C
  H80      1.0000 0.70580  0.14900  0.51040  Biso   1.000  H
  C122     1.0000 0.04270  0.83410  0.49440  Biso   1.000  C
  H81      1.0000 0.02500  0.83800  0.45440  Biso   1.000  H
  C123     1.0000 0.84170  0.98620  0.34820  Biso   1.000  C
  C124     1.0000 0.03910  0.86100  0.58440  Biso   1.000  C
  H82      1.0000 0.01870  0.88360  0.60610  Biso   1.000  H
  C125     1.0000 0.81630  0.17510  0.03314  Biso   1.000  C
  C126     1.0000 0.80980  0.24260  0.84810  Biso   1.000  C
  C127     1.0000 0.01770  0.35760  0.08135  Biso   1.000  C
  H83      1.0000 0.99840  0.33410  0.10360  Biso   1.000  H
  C128     1.0000 0.95020  0.92280  0.49435  Biso   1.000  C
  C129     1.0000 0.72070  0.19870  0.75970  Biso   1.000  C
  H84      1.0000 0.67850  0.17500  0.74060  Biso   1.000  H
  C130     1.0000 0.74730  0.20700  0.81890  Biso   1.000  C
  H85      1.0000 0.72330  0.18890  0.83900  Biso   1.000  H
  C131     1.0000 0.83900  0.10420  0.61560  Biso   1.000  C
  H86      1.0000 0.86120  0.11120  0.65540  Biso   1.000  H
  C132     1.0000 0.84350  0.26800  0.81590  Biso   1.000  C
  H87      1.0000 0.88580  0.29180  0.83380  Biso   1.000  H
  C133     1.0000 0.78780  0.03800  0.32170  Biso   1.000  C
  H88      1.0000 0.77160  0.06860  0.34340  Biso   1.000  H
  C134     1.0000 0.81310  0.25730  0.75710  Biso   1.000  C
  H89      1.0000 0.83600  0.27500  0.73600  Biso   1.000  H
  C135     1.0000 0.10110  0.79060  0.52530  Biso   1.000  C
  H90      1.0000 0.12240  0.76640  0.50490  Biso   1.000  H
  C136     1.0000 0.84170  0.25220  0.91210  Biso   1.000  C
  C137     1.0000 0.75860  0.04340  0.26230  Biso   1.000  C
  H91      1.0000 0.72270  0.07880  0.24470  Biso   1.000  H
  C138     1.0000 0.98730  0.35020  0.02203  Biso   1.000  C
  C139     1.0000 0.84440  0.17460  0.09250  Biso   1.000  C
  H92      1.0000 0.88370  0.20330  0.11360  Biso   1.000  H
  C140     1.0000 0.01090  0.87200  0.52489  Biso   1.000  C
  C141     1.0000 0.86650  0.94500  0.31470  Biso   1.000  C
  H93      1.0000 0.90470  0.91270  0.33130  Biso   1.000  H
  C142     1.0000 0.07770  0.42860  0.02030  Biso   1.000  C
  H94      1.0000 0.09790  0.45300  0.99900  Biso   1.000  H
  C143     1.0000 0.83250  0.95350  0.25550  Biso   1.000  C
  H95      1.0000 0.84820  0.92430  0.23290  Biso   1.000  H
  C144     1.0000 0.81360  0.13120  0.12010  Biso   1.000  C
  H96      1.0000 0.83400  0.12990  0.16020  Biso   1.000  H
  N37      1.0000 0.12846  0.78130  0.58233  Biso   1.000  N
  N38      1.0000 0.77791  0.13560  0.58816  Biso   1.000  N
  N39      1.0000 0.77910  0.00030  0.22857  Biso   1.000  N
  N40      1.0000 0.92526  0.96100  0.52712  Biso   1.000  N
  N41      1.0000 0.84372  0.01820  0.44032  Biso   1.000  N
  N42      1.0000 0.92496  0.92750  0.43685  Biso   1.000  N
  N43      1.0000 0.75589  0.09050  0.09251  Biso   1.000  N
  N44      1.0000 0.75320  0.22340  0.72841  Biso   1.000  N
  N45      1.0000 0.10800  0.43550  0.07782  Biso   1.000  N
  N46      1.0000 0.90239  0.26040  0.02671  Biso   1.000  N
  N47      1.0000 0.81318  0.21240  0.94106  Biso   1.000  N
  N48      1.0000 0.89585  0.29890  0.93541  Biso   1.000  N
  Ag9      1.0000 0.72610  0.79103  0.13175  Biso   1.000  Ag
  Ag10     1.0000 0.20500  0.49868  0.63231  Biso   1.000  Ag
  C145     1.0000 0.37220  0.52400  0.91218  Biso   1.000  C
  C146     1.0000 0.57730  0.09960  0.60740  Biso   1.000  C
  H97      1.0000 0.59710  0.09500  0.64740  Biso   1.000  H
  C147     1.0000 0.34620  0.28030  0.49871  Biso   1.000  C
  C148     1.0000 0.37200  0.43840  0.08870  Biso   1.000  C
  H98      1.0000 0.41450  0.46020  0.11000  Biso   1.000  H
  C149     1.0000 0.37200  0.49300  0.99756  Biso   1.000  C
  C150     1.0000 0.51790  0.11280  0.49060  Biso   1.000  C
  H99      1.0000 0.49860  0.11580  0.45050  Biso   1.000  H
  C151     1.0000 0.59690  0.68310  0.11080  Biso   1.000  C
  H100     1.0000 0.61540  0.68870  0.15070  Biso   1.000  H
  C152     1.0000 0.25660  0.36650  0.50371  Biso   1.000  C
  H101     1.0000 0.23610  0.36700  0.46360  Biso   1.000  H
  C153     1.0000 0.42470  0.19930  0.49280  Biso   1.000  C
  C154     1.0000 0.34010  0.44770  0.02968  Biso   1.000  C
  C155     1.0000 0.27710  0.41350  0.00060  Biso   1.000  C
  H102     1.0000 0.25450  0.41790  0.96060  Biso   1.000  H
  C156     1.0000 0.22810  0.40730  0.53440  Biso   1.000  C
  H103     1.0000 0.18780  0.43460  0.51420  Biso   1.000  H
  C157     1.0000 0.24830  0.37340  0.03080  Biso   1.000  C
  H104     1.0000 0.20580  0.35100  0.01040  Biso   1.000  H
  C158     1.0000 0.54270  0.66590  0.99440  Biso   1.000  C
  H105     1.0000 0.52500  0.66200  0.95440  Biso   1.000  H
  C159     1.0000 0.34170  0.51380  0.84820  Biso   1.000  C
  C160     1.0000 0.53910  0.63900  0.08440  Biso   1.000  C
  H106     1.0000 0.51870  0.61640  0.10610  Biso   1.000  H
  C161     1.0000 0.31630  0.32490  0.53314  Biso   1.000  C
  C162     1.0000 0.30980  0.25740  0.34810  Biso   1.000  C
  C163     1.0000 0.51770  0.14240  0.58135  Biso   1.000  C
  H107     1.0000 0.49840  0.16590  0.60360  Biso   1.000  H
  C164     1.0000 0.45020  0.57720  0.99435  Biso   1.000  C
  C165     1.0000 0.22070  0.30130  0.25970  Biso   1.000  C
  H108     1.0000 0.17850  0.32500  0.24060  Biso   1.000  H
  C166     1.0000 0.24730  0.29300  0.31890  Biso   1.000  C
  H109     1.0000 0.22330  0.31110  0.33900  Biso   1.000  H
  C167     1.0000 0.33900  0.39580  0.11560  Biso   1.000  C
  H110     1.0000 0.36120  0.38880  0.15540  Biso   1.000  H
  C168     1.0000 0.34350  0.23200  0.31590  Biso   1.000  C
  H111     1.0000 0.38580  0.20820  0.33380  Biso   1.000  H
  C169     1.0000 0.28780  0.46200  0.82170  Biso   1.000  C
  H112     1.0000 0.27160  0.43140  0.84340  Biso   1.000  H
  C170     1.0000 0.31310  0.24270  0.25710  Biso   1.000  C
  H113     1.0000 0.33600  0.22500  0.23600  Biso   1.000  H
  C171     1.0000 0.60110  0.70940  0.02530  Biso   1.000  C
  H114     1.0000 0.62240  0.73360  0.00490  Biso   1.000  H
  C172     1.0000 0.34170  0.24780  0.41210  Biso   1.000  C
  C173     1.0000 0.25860  0.45660  0.76230  Biso   1.000  C
  H115     1.0000 0.22270  0.42120  0.74470  Biso   1.000  H
  C174     1.0000 0.48730  0.14980  0.52203  Biso   1.000  C
  C175     1.0000 0.34440  0.32540  0.59250  Biso   1.000  C
  H116     1.0000 0.38370  0.29670  0.61360  Biso   1.000  H
  C176     1.0000 0.51090  0.62800  0.02489  Biso   1.000  C
  C177     1.0000 0.36650  0.55500  0.81470  Biso   1.000  C
  H117     1.0000 0.40470  0.58730  0.83130  Biso   1.000  H
  C178     1.0000 0.57770  0.07140  0.52030  Biso   1.000  C
  H118     1.0000 0.59790  0.04700  0.49900  Biso   1.000  H
  C179     1.0000 0.33250  0.54650  0.75550  Biso   1.000  C
  H119     1.0000 0.34820  0.57570  0.73290  Biso   1.000  H
  C180     1.0000 0.31360  0.36880  0.62010  Biso   1.000  C
  H120     1.0000 0.33400  0.37010  0.66020  Biso   1.000  H
  N49      1.0000 0.62846  0.71870  0.08233  Biso   1.000  N
  N50      1.0000 0.27791  0.36440  0.08816  Biso   1.000  N
  N51      1.0000 0.27910  0.49970  0.72857  Biso   1.000  N
  N52      1.0000 0.42526  0.53900  0.02712  Biso   1.000  N
  N53      1.0000 0.34372  0.48180  0.94032  Biso   1.000  N
  N54      1.0000 0.42496  0.57250  0.93685  Biso   1.000  N
  N55      1.0000 0.25589  0.40950  0.59251  Biso   1.000  N
  N56      1.0000 0.25320  0.27660  0.22841  Biso   1.000  N
  N57      1.0000 0.60800  0.06450  0.57782  Biso   1.000  N
  N58      1.0000 0.40239  0.23960  0.52671  Biso   1.000  N
  N59      1.0000 0.31318  0.28760  0.44106  Biso   1.000  N
  N60      1.0000 0.39585  0.20110  0.43541  Biso   1.000  N
  Ag11     1.0000 0.22610  0.29103  0.13175  Biso   1.000  Ag
  Ag12     1.0000 0.70500  0.99868  0.63231  Biso   1.000  Ag
  C181     1.0000 0.87220  0.02400  0.91218  Biso   1.000  C
  C182     1.0000 0.07730  0.59960  0.60740  Biso   1.000  C
  H121     1.0000 0.09710  0.59500  0.64740  Biso   1.000  H
  C183     1.0000 0.84620  0.78030  0.49871  Biso   1.000  C
  C184     1.0000 0.87200  0.93840  0.08870  Biso   1.000  C
  H122     1.0000 0.91450  0.96020  0.11000  Biso   1.000  H
  C185     1.0000 0.87200  0.99300  0.99756  Biso   1.000  C
  C186     1.0000 0.01790  0.61280  0.49060  Biso   1.000  C
  H123     1.0000 0.99860  0.61580  0.45050  Biso   1.000  H
  C187     1.0000 0.09690  0.18310  0.11080  Biso   1.000  C
  H124     1.0000 0.11540  0.18870  0.15070  Biso   1.000  H
  C188     1.0000 0.75660  0.86650  0.50371  Biso   1.000  C
  H125     1.0000 0.73610  0.86700  0.46360  Biso   1.000  H
  C189     1.0000 0.92470  0.69930  0.49280  Biso   1.000  C
  C190     1.0000 0.84010  0.94770  0.02968  Biso   1.000  C
  C191     1.0000 0.77710  0.91350  0.00060  Biso   1.000  C
  H126     1.0000 0.75450  0.91790  0.96060  Biso   1.000  H
  C192     1.0000 0.72810  0.90730  0.53440  Biso   1.000  C
  H127     1.0000 0.68780  0.93460  0.51420  Biso   1.000  H
  C193     1.0000 0.74830  0.87340  0.03080  Biso   1.000  C
  H128     1.0000 0.70580  0.85100  0.01040  Biso   1.000  H
  C194     1.0000 0.04270  0.16590  0.99440  Biso   1.000  C
  H129     1.0000 0.02500  0.16200  0.95440  Biso   1.000  H
  C195     1.0000 0.84170  0.01380  0.84820  Biso   1.000  C
  C196     1.0000 0.03910  0.13900  0.08440  Biso   1.000  C
  H130     1.0000 0.01870  0.11640  0.10610  Biso   1.000  H
  C197     1.0000 0.81630  0.82490  0.53314  Biso   1.000  C
  C198     1.0000 0.80980  0.75740  0.34810  Biso   1.000  C
  C199     1.0000 0.01770  0.64240  0.58135  Biso   1.000  C
  H131     1.0000 0.99840  0.66590  0.60360  Biso   1.000  H
  C200     1.0000 0.95020  0.07720  0.99435  Biso   1.000  C
  C201     1.0000 0.72070  0.80130  0.25970  Biso   1.000  C
  H132     1.0000 0.67850  0.82500  0.24060  Biso   1.000  H
  C202     1.0000 0.74730  0.79300  0.31890  Biso   1.000  C
  H133     1.0000 0.72330  0.81110  0.33900  Biso   1.000  H
  C203     1.0000 0.83900  0.89580  0.11560  Biso   1.000  C
  H134     1.0000 0.86120  0.88880  0.15540  Biso   1.000  H
  C204     1.0000 0.84350  0.73200  0.31590  Biso   1.000  C
  H135     1.0000 0.88580  0.70820  0.33380  Biso   1.000  H
  C205     1.0000 0.78780  0.96200  0.82170  Biso   1.000  C
  H136     1.0000 0.77160  0.93140  0.84340  Biso   1.000  H
  C206     1.0000 0.81310  0.74270  0.25710  Biso   1.000  C
  H137     1.0000 0.83600  0.72500  0.23600  Biso   1.000  H
  C207     1.0000 0.10110  0.20940  0.02530  Biso   1.000  C
  H138     1.0000 0.12240  0.23360  0.00490  Biso   1.000  H
  C208     1.0000 0.84170  0.74780  0.41210  Biso   1.000  C
  C209     1.0000 0.75860  0.95660  0.76230  Biso   1.000  C
  H139     1.0000 0.72270  0.92120  0.74470  Biso   1.000  H
  C210     1.0000 0.98730  0.64980  0.52203  Biso   1.000  C
  C211     1.0000 0.84440  0.82540  0.59250  Biso   1.000  C
  H140     1.0000 0.88370  0.79670  0.61360  Biso   1.000  H
  C212     1.0000 0.01090  0.12800  0.02489  Biso   1.000  C
  C213     1.0000 0.86650  0.05500  0.81470  Biso   1.000  C
  H141     1.0000 0.90470  0.08730  0.83130  Biso   1.000  H
  C214     1.0000 0.07770  0.57140  0.52030  Biso   1.000  C
  H142     1.0000 0.09790  0.54700  0.49900  Biso   1.000  H
  C215     1.0000 0.83250  0.04650  0.75550  Biso   1.000  C
  H143     1.0000 0.84820  0.07570  0.73290  Biso   1.000  H
  C216     1.0000 0.81360  0.86880  0.62010  Biso   1.000  C
  H144     1.0000 0.83400  0.87010  0.66020  Biso   1.000  H
  N61      1.0000 0.12846  0.21870  0.08233  Biso   1.000  N
  N62      1.0000 0.77791  0.86440  0.08816  Biso   1.000  N
  N63      1.0000 0.77910  0.99970  0.72857  Biso   1.000  N
  N64      1.0000 0.92526  0.03900  0.02712  Biso   1.000  N
  N65      1.0000 0.84372  0.98180  0.94032  Biso   1.000  N
  N66      1.0000 0.92496  0.07250  0.93685  Biso   1.000  N
  N67      1.0000 0.75589  0.90950  0.59251  Biso   1.000  N
  N68      1.0000 0.75320  0.77660  0.22841  Biso   1.000  N
  N69      1.0000 0.10800  0.56450  0.57782  Biso   1.000  N
  N70      1.0000 0.90239  0.73960  0.52671  Biso   1.000  N
  N71      1.0000 0.81318  0.78760  0.44106  Biso   1.000  N
  N72      1.0000 0.89585  0.70110  0.43541  Biso   1.000  N
  Ag13     1.0000 0.27390  0.79103  0.36825  Biso   1.000  Ag
  Ag14     1.0000 0.79500  0.49868  0.86769  Biso   1.000  Ag
  C217     1.0000 0.62780  0.52400  0.58782  Biso   1.000  C
  C218     1.0000 0.42270  0.09960  0.89260  Biso   1.000  C
  H145     1.0000 0.40290  0.09500  0.85260  Biso   1.000  H
  C219     1.0000 0.65380  0.28030  0.00129  Biso   1.000  C
  C220     1.0000 0.62800  0.43840  0.41130  Biso   1.000  C
  H146     1.0000 0.58550  0.46020  0.39000  Biso   1.000  H
  C221     1.0000 0.62800  0.49300  0.50244  Biso   1.000  C
  C222     1.0000 0.48210  0.11280  0.00940  Biso   1.000  C
  H147     1.0000 0.50140  0.11580  0.04950  Biso   1.000  H
  C223     1.0000 0.40310  0.68310  0.38920  Biso   1.000  C
  H148     1.0000 0.38460  0.68870  0.34930  Biso   1.000  H
  C224     1.0000 0.74340  0.36650  0.99629  Biso   1.000  C
  H149     1.0000 0.76390  0.36700  0.03640  Biso   1.000  H
  C225     1.0000 0.57530  0.19930  0.00720  Biso   1.000  C
  C226     1.0000 0.65990  0.44770  0.47032  Biso   1.000  C
  C227     1.0000 0.72290  0.41350  0.49940  Biso   1.000  C
  H150     1.0000 0.74550  0.41790  0.53940  Biso   1.000  H
  C228     1.0000 0.77190  0.40730  0.96560  Biso   1.000  C
  H151     1.0000 0.81220  0.43460  0.98580  Biso   1.000  H
  C229     1.0000 0.75170  0.37340  0.46920  Biso   1.000  C
  H152     1.0000 0.79420  0.35100  0.48960  Biso   1.000  H
  C230     1.0000 0.45730  0.66590  0.50560  Biso   1.000  C
  H153     1.0000 0.47500  0.66200  0.54560  Biso   1.000  H
  C231     1.0000 0.65830  0.51380  0.65180  Biso   1.000  C
  C232     1.0000 0.46090  0.63900  0.41560  Biso   1.000  C
  H154     1.0000 0.48130  0.61640  0.39390  Biso   1.000  H
  C233     1.0000 0.68370  0.32490  0.96686  Biso   1.000  C
  C234     1.0000 0.69020  0.25740  0.15190  Biso   1.000  C
  C235     1.0000 0.48230  0.14240  0.91865  Biso   1.000  C
  H155     1.0000 0.50160  0.16590  0.89640  Biso   1.000  H
  C236     1.0000 0.54980  0.57720  0.50565  Biso   1.000  C
  C237     1.0000 0.77930  0.30130  0.24030  Biso   1.000  C
  H156     1.0000 0.82150  0.32500  0.25940  Biso   1.000  H
  C238     1.0000 0.75270  0.29300  0.18110  Biso   1.000  C
  H157     1.0000 0.77670  0.31110  0.16100  Biso   1.000  H
  C239     1.0000 0.66100  0.39580  0.38440  Biso   1.000  C
  H158     1.0000 0.63880  0.38880  0.34460  Biso   1.000  H
  C240     1.0000 0.65650  0.23200  0.18410  Biso   1.000  C
  H159     1.0000 0.61420  0.20820  0.16620  Biso   1.000  H
  C241     1.0000 0.71220  0.46200  0.67830  Biso   1.000  C
  H160     1.0000 0.72840  0.43140  0.65660  Biso   1.000  H
  C242     1.0000 0.68690  0.24270  0.24290  Biso   1.000  C
  H161     1.0000 0.66400  0.22500  0.26400  Biso   1.000  H
  C243     1.0000 0.39890  0.70940  0.47470  Biso   1.000  C
  H162     1.0000 0.37760  0.73360  0.49510  Biso   1.000  H
  C244     1.0000 0.65830  0.24780  0.08790  Biso   1.000  C
  C245     1.0000 0.74140  0.45660  0.73770  Biso   1.000  C
  H163     1.0000 0.77730  0.42120  0.75530  Biso   1.000  H
  C246     1.0000 0.51270  0.14980  0.97797  Biso   1.000  C
  C247     1.0000 0.65560  0.32540  0.90750  Biso   1.000  C
  H164     1.0000 0.61630  0.29670  0.88640  Biso   1.000  H
  C248     1.0000 0.48910  0.62800  0.47511  Biso   1.000  C
  C249     1.0000 0.63350  0.55500  0.68530  Biso   1.000  C
  H165     1.0000 0.59530  0.58730  0.66870  Biso   1.000  H
  C250     1.0000 0.42230  0.07140  0.97970  Biso   1.000  C
  H166     1.0000 0.40210  0.04700  0.00100  Biso   1.000  H
  C251     1.0000 0.66750  0.54650  0.74450  Biso   1.000  C
  H167     1.0000 0.65180  0.57570  0.76710  Biso   1.000  H
  C252     1.0000 0.68640  0.36880  0.87990  Biso   1.000  C
  H168     1.0000 0.66600  0.37010  0.83980  Biso   1.000  H
  N73      1.0000 0.37154  0.71870  0.41767  Biso   1.000  N
  N74      1.0000 0.72209  0.36440  0.41184  Biso   1.000  N
  N75      1.0000 0.72090  0.49970  0.77143  Biso   1.000  N
  N76      1.0000 0.57474  0.53900  0.47288  Biso   1.000  N
  N77      1.0000 0.65628  0.48180  0.55968  Biso   1.000  N
  N78      1.0000 0.57504  0.57250  0.56315  Biso   1.000  N
  N79      1.0000 0.74411  0.40950  0.90749  Biso   1.000  N
  N80      1.0000 0.74680  0.27660  0.27159  Biso   1.000  N
  N81      1.0000 0.39200  0.06450  0.92218  Biso   1.000  N
  N82      1.0000 0.59761  0.23960  0.97329  Biso   1.000  N
  N83      1.0000 0.68682  0.28760  0.05894  Biso   1.000  N
  N84      1.0000 0.60415  0.20110  0.06459  Biso   1.000  N
  Ag15     1.0000 0.77390  0.29103  0.36825  Biso   1.000  Ag
  Ag16     1.0000 0.29500  0.99868  0.86769  Biso   1.000  Ag
  C253     1.0000 0.12780  0.02400  0.58782  Biso   1.000  C
  C254     1.0000 0.92270  0.59960  0.89260  Biso   1.000  C
  H169     1.0000 0.90290  0.59500  0.85260  Biso   1.000  H
  C255     1.0000 0.15380  0.78030  0.00129  Biso   1.000  C
  C256     1.0000 0.12800  0.93840  0.41130  Biso   1.000  C
  H170     1.0000 0.08550  0.96020  0.39000  Biso   1.000  H
  C257     1.0000 0.12800  0.99300  0.50244  Biso   1.000  C
  C258     1.0000 0.98210  0.61280  0.00940  Biso   1.000  C
  H171     1.0000 0.00140  0.61580  0.04950  Biso   1.000  H
  C259     1.0000 0.90310  0.18310  0.38920  Biso   1.000  C
  H172     1.0000 0.88460  0.18870  0.34930  Biso   1.000  H
  C260     1.0000 0.24340  0.86650  0.99629  Biso   1.000  C
  H173     1.0000 0.26390  0.86700  0.03640  Biso   1.000  H
  C261     1.0000 0.07530  0.69930  0.00720  Biso   1.000  C
  C262     1.0000 0.15990  0.94770  0.47032  Biso   1.000  C
  C263     1.0000 0.22290  0.91350  0.49940  Biso   1.000  C
  H174     1.0000 0.24550  0.91790  0.53940  Biso   1.000  H
  C264     1.0000 0.27190  0.90730  0.96560  Biso   1.000  C
  H175     1.0000 0.31220  0.93460  0.98580  Biso   1.000  H
  C265     1.0000 0.25170  0.87340  0.46920  Biso   1.000  C
  H176     1.0000 0.29420  0.85100  0.48960  Biso   1.000  H
  C266     1.0000 0.95730  0.16590  0.50560  Biso   1.000  C
  H177     1.0000 0.97500  0.16200  0.54560  Biso   1.000  H
  C267     1.0000 0.15830  0.01380  0.65180  Biso   1.000  C
  C268     1.0000 0.96090  0.13900  0.41560  Biso   1.000  C
  H178     1.0000 0.98130  0.11640  0.39390  Biso   1.000  H
  C269     1.0000 0.18370  0.82490  0.96686  Biso   1.000  C
  C270     1.0000 0.19020  0.75740  0.15190  Biso   1.000  C
  C271     1.0000 0.98230  0.64240  0.91865  Biso   1.000  C
  H179     1.0000 0.00160  0.66590  0.89640  Biso   1.000  H
  C272     1.0000 0.04980  0.07720  0.50565  Biso   1.000  C
  C273     1.0000 0.27930  0.80130  0.24030  Biso   1.000  C
  H180     1.0000 0.32150  0.82500  0.25940  Biso   1.000  H
  C274     1.0000 0.25270  0.79300  0.18110  Biso   1.000  C
  H181     1.0000 0.27670  0.81110  0.16100  Biso   1.000  H
  C275     1.0000 0.16100  0.89580  0.38440  Biso   1.000  C
  H182     1.0000 0.13880  0.88880  0.34460  Biso   1.000  H
  C276     1.0000 0.15650  0.73200  0.18410  Biso   1.000  C
  H183     1.0000 0.11420  0.70820  0.16620  Biso   1.000  H
  C277     1.0000 0.21220  0.96200  0.67830  Biso   1.000  C
  H184     1.0000 0.22840  0.93140  0.65660  Biso   1.000  H
  C278     1.0000 0.18690  0.74270  0.24290  Biso   1.000  C
  H185     1.0000 0.16400  0.72500  0.26400  Biso   1.000  H
  C279     1.0000 0.89890  0.20940  0.47470  Biso   1.000  C
  H186     1.0000 0.87760  0.23360  0.49510  Biso   1.000  H
  C280     1.0000 0.15830  0.74780  0.08790  Biso   1.000  C
  C281     1.0000 0.24140  0.95660  0.73770  Biso   1.000  C
  H187     1.0000 0.27730  0.92120  0.75530  Biso   1.000  H
  C282     1.0000 0.01270  0.64980  0.97797  Biso   1.000  C
  C283     1.0000 0.15560  0.82540  0.90750  Biso   1.000  C
  H188     1.0000 0.11630  0.79670  0.88640  Biso   1.000  H
  C284     1.0000 0.98910  0.12800  0.47511  Biso   1.000  C
  C285     1.0000 0.13350  0.05500  0.68530  Biso   1.000  C
  H189     1.0000 0.09530  0.08730  0.66870  Biso   1.000  H
  C286     1.0000 0.92230  0.57140  0.97970  Biso   1.000  C
  H190     1.0000 0.90210  0.54700  0.00100  Biso   1.000  H
  C287     1.0000 0.16750  0.04650  0.74450  Biso   1.000  C
  H191     1.0000 0.15180  0.07570  0.76710  Biso   1.000  H
  C288     1.0000 0.18640  0.86880  0.87990  Biso   1.000  C
  H192     1.0000 0.16600  0.87010  0.83980  Biso   1.000  H
  N85      1.0000 0.87154  0.21870  0.41767  Biso   1.000  N
  N86      1.0000 0.22209  0.86440  0.41184  Biso   1.000  N
  N87      1.0000 0.22090  0.99970  0.77143  Biso   1.000  N
  N88      1.0000 0.07474  0.03900  0.47288  Biso   1.000  N
  N89      1.0000 0.15628  0.98180  0.55968  Biso   1.000  N
  N90      1.0000 0.07504  0.07250  0.56315  Biso   1.000  N
  N91      1.0000 0.24411  0.90950  0.90749  Biso   1.000  N
  N92      1.0000 0.24680  0.77660  0.27159  Biso   1.000  N
  N93      1.0000 0.89200  0.56450  0.92218  Biso   1.000  N
  N94      1.0000 0.09761  0.73960  0.97329  Biso   1.000  N
  N95      1.0000 0.18682  0.78760  0.05894  Biso   1.000  N
  N96      1.0000 0.10415  0.70110  0.06459  Biso   1.000  N
