data_image0
_cell_length_a       21.9362
_cell_length_b       16.7329
_cell_length_c       25.5715
_cell_angle_alpha    90
_cell_angle_beta     115.324
_cell_angle_gamma    90

_symmetry_space_group_name_H-M    "P 1"
_symmetry_int_tables_number       1

loop_
  _symmetry_equiv_pos_as_xyz
  'x, y, z'

loop_
  _atom_site_label
  _atom_site_occupancy
  _atom_site_fract_x
  _atom_site_fract_y
  _atom_site_fract_z
  _atom_site_thermal_displace_type
  _atom_site_B_iso_or_equiv
  _atom_site_type_symbol
  Ag1      1.0000 0.34428  0.95836  0.36767  Biso   1.000  Ag
  Ag2      1.0000 0.32166  0.25405  0.86719  Biso   1.000  Ag
  C1       1.0000 0.59740  0.47050  0.00000  Biso   1.000  C
  C2       1.0000 0.12350  0.25630  0.50100  Biso   1.000  C
  C3       1.0000 0.03290  0.31090  0.41010  Biso   1.000  C
  H1       1.0000 0.05410  0.28970  0.38860  Biso   1.000  H
  C4       1.0000 0.72010  0.65030  0.89170  Biso   1.000  C
  H2       1.0000 0.70060  0.65400  0.85150  Biso   1.000  H
  C5       1.0000 0.06020  0.30140  0.46870  Biso   1.000  C
  C6       1.0000 0.50270  0.38440  0.99530  Biso   1.000  C
  H3       1.0000 0.52220  0.38370  0.03550  Biso   1.000  H
  C7       1.0000 0.53270  0.42610  0.96590  Biso   1.000  C
  C8       1.0000 0.29780  0.08390  0.50500  Biso   1.000  C
  H4       1.0000 0.31990  0.08750  0.54510  Biso   1.000  H
  C9       1.0000 0.44350  0.34380  0.96420  Biso   1.000  C
  H5       1.0000 0.42360  0.31630  0.98450  Biso   1.000  H
  C10      1.0000 0.68130  0.55150  0.00580  Biso   1.000  C
  C11      1.0000 0.20970  0.22530  0.58660  Biso   1.000  C
  C12      1.0000 0.77670  0.63760  0.00880  Biso   1.000  C
  H6       1.0000 0.79750  0.63480  0.04890  Biso   1.000  H
  C13      1.0000 0.23610  0.06580  0.38880  Biso   1.000  C
  H7       1.0000 0.21450  0.05910  0.34890  Biso   1.000  H
  C14      1.0000 0.71130  0.49290  0.15110  Biso   1.000  C
  C15      1.0000 0.24260  0.23590  0.65020  Biso   1.000  C
  C16      1.0000 0.02560  0.33470  0.49820  Biso   1.000  C
  H8       1.0000 0.04230  0.32950  0.53810  Biso   1.000  H
  C17      1.0000 0.96720  0.37450  0.46790  Biso   1.000  C
  H9       1.0000 0.94530  0.39700  0.48840  Biso   1.000  H
  C18      1.0000 0.67920  0.50170  0.08680  Biso   1.000  C
  C19      1.0000 0.71440  0.60060  0.97670  Biso   1.000  C
  C20      1.0000 0.20540  0.17250  0.50450  Biso   1.000  C
  C21      1.0000 0.67820  0.45720  0.17980  Biso   1.000  C
  H10      1.0000 0.63420  0.43920  0.15960  Biso   1.000  H
  C22      1.0000 0.23560  0.12190  0.47410  Biso   1.000  C
  C23      1.0000 0.32540  0.04100  0.47430  Biso   1.000  C
  H11      1.0000 0.36750  0.01770  0.49480  Biso   1.000  H
  C24      1.0000 0.68660  0.60840  0.91770  Biso   1.000  C
  H12      1.0000 0.64500  0.58540  0.89520  Biso   1.000  H
  C25      1.0000 0.97320  0.35240  0.38340  Biso   1.000  C
  H13      1.0000 0.95540  0.35920  0.34350  Biso   1.000  H
  C26      1.0000 0.20440  0.11120  0.41450  Biso   1.000  C
  H14      1.0000 0.16260  0.13440  0.39250  Biso   1.000  H
  C27      1.0000 0.50160  0.42540  0.90660  Biso   1.000  C
  H15      1.0000 0.51970  0.45390  0.88540  Biso   1.000  H
  C28      1.0000 0.80520  0.50620  0.24170  Biso   1.000  C
  H16      1.0000 0.84920  0.52380  0.26290  Biso   1.000  H
  C29      1.0000 0.80650  0.67900  0.97810  Biso   1.000  C
  H17      1.0000 0.84810  0.70320  0.99910  Biso   1.000  H
  C30      1.0000 0.71090  0.44820  0.23920  Biso   1.000  C
  H18      1.0000 0.68780  0.42440  0.25830  Biso   1.000  H
  C31      1.0000 0.77710  0.51760  0.18260  Biso   1.000  C
  H19      1.0000 0.80160  0.54110  0.16470  Biso   1.000  H
  C32      1.0000 0.44350  0.38190  0.87890  Biso   1.000  C
  H20      1.0000 0.42400  0.38010  0.83870  Biso   1.000  H
  C33      1.0000 0.21500  0.28680  0.67670  Biso   1.000  C
  H21      1.0000 0.17640  0.31610  0.65480  Biso   1.000  H
  C34      1.0000 0.30110  0.19650  0.68430  Biso   1.000  C
  H22      1.0000 0.32290  0.16430  0.66790  Biso   1.000  H
  C35      1.0000 0.32670  0.20570  0.74310  Biso   1.000  C
  H23      1.0000 0.36590  0.17790  0.76560  Biso   1.000  H
  C36      1.0000 0.24530  0.29350  0.73610  Biso   1.000  C
  H24      1.0000 0.22710  0.32910  0.75360  Biso   1.000  H
  N1       1.0000 0.29580  0.03080  0.41730  Biso   1.000  N
  N2       1.0000 0.93940  0.38340  0.41090  Biso   1.000  N
  N3       1.0000 0.30020  0.25090  0.77020  Biso   1.000  N
  N4       1.0000 0.14800  0.21100  0.47170  Biso   1.000  N
  N5       1.0000 0.15270  0.26690  0.55820  Biso   1.000  N
  N6       1.0000 0.23770  0.17710  0.56210  Biso   1.000  N
  N7       1.0000 0.77940  0.68570  0.92160  Biso   1.000  N
  N8       1.0000 0.41340  0.34200  0.90680  Biso   1.000  N
  N9       1.0000 0.77460  0.47250  0.27040  Biso   1.000  N
  N10      1.0000 0.62520  0.51160  0.97230  Biso   1.000  N
  N11      1.0000 0.62240  0.46260  0.05780  Biso   1.000  N
  N12      1.0000 0.71040  0.54920  0.06370  Biso   1.000  N
  Ag3      1.0000 0.84428  0.45836  0.36767  Biso   1.000  Ag
  Ag4      1.0000 0.82166  0.75405  0.86719  Biso   1.000  Ag
  C37      1.0000 0.09740  0.97050  0.00000  Biso   1.000  C
  C38      1.0000 0.62350  0.75630  0.50100  Biso   1.000  C
  C39      1.0000 0.53290  0.81090  0.41010  Biso   1.000  C
  H25      1.0000 0.55410  0.78970  0.38860  Biso   1.000  H
  C40      1.0000 0.22010  0.15030  0.89170  Biso   1.000  C
  H26      1.0000 0.20060  0.15400  0.85150  Biso   1.000  H
  C41      1.0000 0.56020  0.80140  0.46870  Biso   1.000  C
  C42      1.0000 0.00270  0.88440  0.99530  Biso   1.000  C
  H27      1.0000 0.02220  0.88370  0.03550  Biso   1.000  H
  C43      1.0000 0.03270  0.92610  0.96590  Biso   1.000  C
  C44      1.0000 0.79780  0.58390  0.50500  Biso   1.000  C
  H28      1.0000 0.81990  0.58750  0.54510  Biso   1.000  H
  C45      1.0000 0.94350  0.84380  0.96420  Biso   1.000  C
  H29      1.0000 0.92360  0.81630  0.98450  Biso   1.000  H
  C46      1.0000 0.18130  0.05150  0.00580  Biso   1.000  C
  C47      1.0000 0.70970  0.72530  0.58660  Biso   1.000  C
  C48      1.0000 0.27670  0.13760  0.00880  Biso   1.000  C
  H30      1.0000 0.29750  0.13480  0.04890  Biso   1.000  H
  C49      1.0000 0.73610  0.56580  0.38880  Biso   1.000  C
  H31      1.0000 0.71450  0.55910  0.34890  Biso   1.000  H
  C50      1.0000 0.21130  0.99290  0.15110  Biso   1.000  C
  C51      1.0000 0.74260  0.73590  0.65020  Biso   1.000  C
  C52      1.0000 0.52560  0.83470  0.49820  Biso   1.000  C
  H32      1.0000 0.54230  0.82950  0.53810  Biso   1.000  H
  C53      1.0000 0.46720  0.87450  0.46790  Biso   1.000  C
  H33      1.0000 0.44530  0.89700  0.48840  Biso   1.000  H
  C54      1.0000 0.17920  0.00170  0.08680  Biso   1.000  C
  C55      1.0000 0.21440  0.10060  0.97670  Biso   1.000  C
  C56      1.0000 0.70540  0.67250  0.50450  Biso   1.000  C
  C57      1.0000 0.17820  0.95720  0.17980  Biso   1.000  C
  H34      1.0000 0.13420  0.93920  0.15960  Biso   1.000  H
  C58      1.0000 0.73560  0.62190  0.47410  Biso   1.000  C
  C59      1.0000 0.82540  0.54100  0.47430  Biso   1.000  C
  H35      1.0000 0.86750  0.51770  0.49480  Biso   1.000  H
  C60      1.0000 0.18660  0.10840  0.91770  Biso   1.000  C
  H36      1.0000 0.14500  0.08540  0.89520  Biso   1.000  H
  C61      1.0000 0.47320  0.85240  0.38340  Biso   1.000  C
  H37      1.0000 0.45540  0.85920  0.34350  Biso   1.000  H
  C62      1.0000 0.70440  0.61120  0.41450  Biso   1.000  C
  H38      1.0000 0.66260  0.63440  0.39250  Biso   1.000  H
  C63      1.0000 0.00160  0.92540  0.90660  Biso   1.000  C
  H39      1.0000 0.01970  0.95390  0.88540  Biso   1.000  H
  C64      1.0000 0.30520  0.00620  0.24170  Biso   1.000  C
  H40      1.0000 0.34920  0.02380  0.26290  Biso   1.000  H
  C65      1.0000 0.30650  0.17900  0.97810  Biso   1.000  C
  H41      1.0000 0.34810  0.20320  0.99910  Biso   1.000  H
  C66      1.0000 0.21090  0.94820  0.23920  Biso   1.000  C
  H42      1.0000 0.18780  0.92440  0.25830  Biso   1.000  H
  C67      1.0000 0.27710  0.01760  0.18260  Biso   1.000  C
  H43      1.0000 0.30160  0.04110  0.16470  Biso   1.000  H
  C68      1.0000 0.94350  0.88190  0.87890  Biso   1.000  C
  H44      1.0000 0.92400  0.88010  0.83870  Biso   1.000  H
  C69      1.0000 0.71500  0.78680  0.67670  Biso   1.000  C
  H45      1.0000 0.67640  0.81610  0.65480  Biso   1.000  H
  C70      1.0000 0.80110  0.69650  0.68430  Biso   1.000  C
  H46      1.0000 0.82290  0.66430  0.66790  Biso   1.000  H
  C71      1.0000 0.82670  0.70570  0.74310  Biso   1.000  C
  H47      1.0000 0.86590  0.67790  0.76560  Biso   1.000  H
  C72      1.0000 0.74530  0.79350  0.73610  Biso   1.000  C
  H48      1.0000 0.72710  0.82910  0.75360  Biso   1.000  H
  N13      1.0000 0.79580  0.53080  0.41730  Biso   1.000  N
  N14      1.0000 0.43940  0.88340  0.41090  Biso   1.000  N
  N15      1.0000 0.80020  0.75090  0.77020  Biso   1.000  N
  N16      1.0000 0.64800  0.71100  0.47170  Biso   1.000  N
  N17      1.0000 0.65270  0.76690  0.55820  Biso   1.000  N
  N18      1.0000 0.73770  0.67710  0.56210  Biso   1.000  N
  N19      1.0000 0.27940  0.18570  0.92160  Biso   1.000  N
  N20      1.0000 0.91340  0.84200  0.90680  Biso   1.000  N
  N21      1.0000 0.27460  0.97250  0.27040  Biso   1.000  N
  N22      1.0000 0.12520  0.01160  0.97230  Biso   1.000  N
  N23      1.0000 0.12240  0.96260  0.05780  Biso   1.000  N
  N24      1.0000 0.21040  0.04920  0.06370  Biso   1.000  N
  Ag5      1.0000 0.65572  0.95836  0.13233  Biso   1.000  Ag
  Ag6      1.0000 0.67834  0.25405  0.63281  Biso   1.000  Ag
  C73      1.0000 0.40260  0.47050  0.50000  Biso   1.000  C
  C74      1.0000 0.87650  0.25630  0.99900  Biso   1.000  C
  C75      1.0000 0.96710  0.31090  0.08990  Biso   1.000  C
  H49      1.0000 0.94590  0.28970  0.11140  Biso   1.000  H
  C76      1.0000 0.27990  0.65030  0.60830  Biso   1.000  C
  H50      1.0000 0.29940  0.65400  0.64850  Biso   1.000  H
  C77      1.0000 0.93980  0.30140  0.03130  Biso   1.000  C
  C78      1.0000 0.49730  0.38440  0.50470  Biso   1.000  C
  H51      1.0000 0.47780  0.38370  0.46450  Biso   1.000  H
  C79      1.0000 0.46730  0.42610  0.53410  Biso   1.000  C
  C80      1.0000 0.70220  0.08390  0.99500  Biso   1.000  C
  H52      1.0000 0.68010  0.08750  0.95490  Biso   1.000  H
  C81      1.0000 0.55650  0.34380  0.53580  Biso   1.000  C
  H53      1.0000 0.57640  0.31630  0.51550  Biso   1.000  H
  C82      1.0000 0.31870  0.55150  0.49420  Biso   1.000  C
  C83      1.0000 0.79030  0.22530  0.91340  Biso   1.000  C
  C84      1.0000 0.22330  0.63760  0.49120  Biso   1.000  C
  H54      1.0000 0.20250  0.63480  0.45110  Biso   1.000  H
  C85      1.0000 0.76390  0.06580  0.11120  Biso   1.000  C
  H55      1.0000 0.78550  0.05910  0.15110  Biso   1.000  H
  C86      1.0000 0.28870  0.49290  0.34890  Biso   1.000  C
  C87      1.0000 0.75740  0.23590  0.84980  Biso   1.000  C
  C88      1.0000 0.97440  0.33470  0.00180  Biso   1.000  C
  H56      1.0000 0.95770  0.32950  0.96190  Biso   1.000  H
  C89      1.0000 0.03280  0.37450  0.03210  Biso   1.000  C
  H57      1.0000 0.05470  0.39700  0.01160  Biso   1.000  H
  C90      1.0000 0.32080  0.50170  0.41320  Biso   1.000  C
  C91      1.0000 0.28560  0.60060  0.52330  Biso   1.000  C
  C92      1.0000 0.79460  0.17250  0.99550  Biso   1.000  C
  C93      1.0000 0.32180  0.45720  0.32020  Biso   1.000  C
  H58      1.0000 0.36580  0.43920  0.34040  Biso   1.000  H
  C94      1.0000 0.76440  0.12190  0.02590  Biso   1.000  C
  C95      1.0000 0.67460  0.04100  0.02570  Biso   1.000  C
  H59      1.0000 0.63250  0.01770  0.00520  Biso   1.000  H
  C96      1.0000 0.31340  0.60840  0.58230  Biso   1.000  C
  H60      1.0000 0.35500  0.58540  0.60480  Biso   1.000  H
  C97      1.0000 0.02680  0.35240  0.11660  Biso   1.000  C
  H61      1.0000 0.04460  0.35920  0.15650  Biso   1.000  H
  C98      1.0000 0.79560  0.11120  0.08550  Biso   1.000  C
  H62      1.0000 0.83740  0.13440  0.10750  Biso   1.000  H
  C99      1.0000 0.49840  0.42540  0.59340  Biso   1.000  C
  H63      1.0000 0.48030  0.45390  0.61460  Biso   1.000  H
  C100     1.0000 0.19480  0.50620  0.25830  Biso   1.000  C
  H64      1.0000 0.15080  0.52380  0.23710  Biso   1.000  H
  C101     1.0000 0.19350  0.67900  0.52190  Biso   1.000  C
  H65      1.0000 0.15190  0.70320  0.50090  Biso   1.000  H
  C102     1.0000 0.28910  0.44820  0.26080  Biso   1.000  C
  H66      1.0000 0.31220  0.42440  0.24170  Biso   1.000  H
  C103     1.0000 0.22290  0.51760  0.31740  Biso   1.000  C
  H67      1.0000 0.19840  0.54110  0.33530  Biso   1.000  H
  C104     1.0000 0.55650  0.38190  0.62110  Biso   1.000  C
  H68      1.0000 0.57600  0.38010  0.66130  Biso   1.000  H
  C105     1.0000 0.78500  0.28680  0.82330  Biso   1.000  C
  H69      1.0000 0.82360  0.31610  0.84520  Biso   1.000  H
  C106     1.0000 0.69890  0.19650  0.81570  Biso   1.000  C
  H70      1.0000 0.67710  0.16430  0.83210  Biso   1.000  H
  C107     1.0000 0.67330  0.20570  0.75690  Biso   1.000  C
  H71      1.0000 0.63410  0.17790  0.73440  Biso   1.000  H
  C108     1.0000 0.75470  0.29350  0.76390  Biso   1.000  C
  H72      1.0000 0.77290  0.32910  0.74640  Biso   1.000  H
  N25      1.0000 0.70420  0.03080  0.08270  Biso   1.000  N
  N26      1.0000 0.06060  0.38340  0.08910  Biso   1.000  N
  N27      1.0000 0.69980  0.25090  0.72980  Biso   1.000  N
  N28      1.0000 0.85200  0.21100  0.02830  Biso   1.000  N
  N29      1.0000 0.84730  0.26690  0.94180  Biso   1.000  N
  N30      1.0000 0.76230  0.17710  0.93790  Biso   1.000  N
  N31      1.0000 0.22060  0.68570  0.57840  Biso   1.000  N
  N32      1.0000 0.58660  0.34200  0.59320  Biso   1.000  N
  N33      1.0000 0.22540  0.47250  0.22960  Biso   1.000  N
  N34      1.0000 0.37480  0.51160  0.52770  Biso   1.000  N
  N35      1.0000 0.37760  0.46260  0.44220  Biso   1.000  N
  N36      1.0000 0.28960  0.54920  0.43630  Biso   1.000  N
  Ag7      1.0000 0.15572  0.45836  0.13233  Biso   1.000  Ag
  Ag8      1.0000 0.17834  0.75405  0.63281  Biso   1.000  Ag
  C109     1.0000 0.90260  0.97050  0.50000  Biso   1.000  C
  C110     1.0000 0.37650  0.75630  0.99900  Biso   1.000  C
  C111     1.0000 0.46710  0.81090  0.08990  Biso   1.000  C
  H73      1.0000 0.44590  0.78970  0.11140  Biso   1.000  H
  C112     1.0000 0.77990  0.15030  0.60830  Biso   1.000  C
  H74      1.0000 0.79940  0.15400  0.64850  Biso   1.000  H
  C113     1.0000 0.43980  0.80140  0.03130  Biso   1.000  C
  C114     1.0000 0.99730  0.88440  0.50470  Biso   1.000  C
  H75      1.0000 0.97780  0.88370  0.46450  Biso   1.000  H
  C115     1.0000 0.96730  0.92610  0.53410  Biso   1.000  C
  C116     1.0000 0.20220  0.58390  0.99500  Biso   1.000  C
  H76      1.0000 0.18010  0.58750  0.95490  Biso   1.000  H
  C117     1.0000 0.05650  0.84380  0.53580  Biso   1.000  C
  H77      1.0000 0.07640  0.81630  0.51550  Biso   1.000  H
  C118     1.0000 0.81870  0.05150  0.49420  Biso   1.000  C
  C119     1.0000 0.29030  0.72530  0.91340  Biso   1.000  C
  C120     1.0000 0.72330  0.13760  0.49120  Biso   1.000  C
  H78      1.0000 0.70250  0.13480  0.45110  Biso   1.000  H
  C121     1.0000 0.26390  0.56580  0.11120  Biso   1.000  C
  H79      1.0000 0.28550  0.55910  0.15110  Biso   1.000  H
  C122     1.0000 0.78870  0.99290  0.34890  Biso   1.000  C
  C123     1.0000 0.25740  0.73590  0.84980  Biso   1.000  C
  C124     1.0000 0.47440  0.83470  0.00180  Biso   1.000  C
  H80      1.0000 0.45770  0.82950  0.96190  Biso   1.000  H
  C125     1.0000 0.53280  0.87450  0.03210  Biso   1.000  C
  H81      1.0000 0.55470  0.89700  0.01160  Biso   1.000  H
  C126     1.0000 0.82080  0.00170  0.41320  Biso   1.000  C
  C127     1.0000 0.78560  0.10060  0.52330  Biso   1.000  C
  C128     1.0000 0.29460  0.67250  0.99550  Biso   1.000  C
  C129     1.0000 0.82180  0.95720  0.32020  Biso   1.000  C
  H82      1.0000 0.86580  0.93920  0.34040  Biso   1.000  H
  C130     1.0000 0.26440  0.62190  0.02590  Biso   1.000  C
  C131     1.0000 0.17460  0.54100  0.02570  Biso   1.000  C
  H83      1.0000 0.13250  0.51770  0.00520  Biso   1.000  H
  C132     1.0000 0.81340  0.10840  0.58230  Biso   1.000  C
  H84      1.0000 0.85500  0.08540  0.60480  Biso   1.000  H
  C133     1.0000 0.52680  0.85240  0.11660  Biso   1.000  C
  H85      1.0000 0.54460  0.85920  0.15650  Biso   1.000  H
  C134     1.0000 0.29560  0.61120  0.08550  Biso   1.000  C
  H86      1.0000 0.33740  0.63440  0.10750  Biso   1.000  H
  C135     1.0000 0.99840  0.92540  0.59340  Biso   1.000  C
  H87      1.0000 0.98030  0.95390  0.61460  Biso   1.000  H
  C136     1.0000 0.69480  0.00620  0.25830  Biso   1.000  C
  H88      1.0000 0.65080  0.02380  0.23710  Biso   1.000  H
  C137     1.0000 0.69350  0.17900  0.52190  Biso   1.000  C
  H89      1.0000 0.65190  0.20320  0.50090  Biso   1.000  H
  C138     1.0000 0.78910  0.94820  0.26080  Biso   1.000  C
  H90      1.0000 0.81220  0.92440  0.24170  Biso   1.000  H
  C139     1.0000 0.72290  0.01760  0.31740  Biso   1.000  C
  H91      1.0000 0.69840  0.04110  0.33530  Biso   1.000  H
  C140     1.0000 0.05650  0.88190  0.62110  Biso   1.000  C
  H92      1.0000 0.07600  0.88010  0.66130  Biso   1.000  H
  C141     1.0000 0.28500  0.78680  0.82330  Biso   1.000  C
  H93      1.0000 0.32360  0.81610  0.84520  Biso   1.000  H
  C142     1.0000 0.19890  0.69650  0.81570  Biso   1.000  C
  H94      1.0000 0.17710  0.66430  0.83210  Biso   1.000  H
  C143     1.0000 0.17330  0.70570  0.75690  Biso   1.000  C
  H95      1.0000 0.13410  0.67790  0.73440  Biso   1.000  H
  C144     1.0000 0.25470  0.79350  0.76390  Biso   1.000  C
  H96      1.0000 0.27290  0.82910  0.74640  Biso   1.000  H
  N37      1.0000 0.20420  0.53080  0.08270  Biso   1.000  N
  N38      1.0000 0.56060  0.88340  0.08910  Biso   1.000  N
  N39      1.0000 0.19980  0.75090  0.72980  Biso   1.000  N
  N40      1.0000 0.35200  0.71100  0.02830  Biso   1.000  N
  N41      1.0000 0.34730  0.76690  0.94180  Biso   1.000  N
  N42      1.0000 0.26230  0.67710  0.93790  Biso   1.000  N
  N43      1.0000 0.72060  0.18570  0.57840  Biso   1.000  N
  N44      1.0000 0.08660  0.84200  0.59320  Biso   1.000  N
  N45      1.0000 0.72540  0.97250  0.22960  Biso   1.000  N
  N46      1.0000 0.87480  0.01160  0.52770  Biso   1.000  N
  N47      1.0000 0.87760  0.96260  0.44220  Biso   1.000  N
  N48      1.0000 0.78960  0.04920  0.43630  Biso   1.000  N
  Ag9      1.0000 0.65572  0.04164  0.63233  Biso   1.000  Ag
  Ag10     1.0000 0.67834  0.74595  0.13281  Biso   1.000  Ag
  C145     1.0000 0.40260  0.52950  0.00000  Biso   1.000  C
  C146     1.0000 0.87650  0.74370  0.49900  Biso   1.000  C
  C147     1.0000 0.96710  0.68910  0.58990  Biso   1.000  C
  H97      1.0000 0.94590  0.71030  0.61140  Biso   1.000  H
  C148     1.0000 0.27990  0.34970  0.10830  Biso   1.000  C
  H98      1.0000 0.29940  0.34600  0.14850  Biso   1.000  H
  C149     1.0000 0.93980  0.69860  0.53130  Biso   1.000  C
  C150     1.0000 0.49730  0.61560  0.00470  Biso   1.000  C
  H99      1.0000 0.47780  0.61630  0.96450  Biso   1.000  H
  C151     1.0000 0.46730  0.57390  0.03410  Biso   1.000  C
  C152     1.0000 0.70220  0.91610  0.49500  Biso   1.000  C
  H100     1.0000 0.68010  0.91250  0.45490  Biso   1.000  H
  C153     1.0000 0.55650  0.65620  0.03580  Biso   1.000  C
  H101     1.0000 0.57640  0.68370  0.01550  Biso   1.000  H
  C154     1.0000 0.31870  0.44850  0.99420  Biso   1.000  C
  C155     1.0000 0.79030  0.77470  0.41340  Biso   1.000  C
  C156     1.0000 0.22330  0.36240  0.99120  Biso   1.000  C
  H102     1.0000 0.20250  0.36520  0.95110  Biso   1.000  H
  C157     1.0000 0.76390  0.93420  0.61120  Biso   1.000  C
  H103     1.0000 0.78550  0.94090  0.65110  Biso   1.000  H
  C158     1.0000 0.28870  0.50710  0.84890  Biso   1.000  C
  C159     1.0000 0.75740  0.76410  0.34980  Biso   1.000  C
  C160     1.0000 0.97440  0.66530  0.50180  Biso   1.000  C
  H104     1.0000 0.95770  0.67050  0.46190  Biso   1.000  H
  C161     1.0000 0.03280  0.62550  0.53210  Biso   1.000  C
  H105     1.0000 0.05470  0.60300  0.51160  Biso   1.000  H
  C162     1.0000 0.32080  0.49830  0.91320  Biso   1.000  C
  C163     1.0000 0.28560  0.39940  0.02330  Biso   1.000  C
  C164     1.0000 0.79460  0.82750  0.49550  Biso   1.000  C
  C165     1.0000 0.32180  0.54280  0.82020  Biso   1.000  C
  H106     1.0000 0.36580  0.56080  0.84040  Biso   1.000  H
  C166     1.0000 0.76440  0.87810  0.52590  Biso   1.000  C
  C167     1.0000 0.67460  0.95900  0.52570  Biso   1.000  C
  H107     1.0000 0.63250  0.98230  0.50520  Biso   1.000  H
  C168     1.0000 0.31340  0.39160  0.08230  Biso   1.000  C
  H108     1.0000 0.35500  0.41460  0.10480  Biso   1.000  H
  C169     1.0000 0.02680  0.64760  0.61660  Biso   1.000  C
  H109     1.0000 0.04460  0.64080  0.65650  Biso   1.000  H
  C170     1.0000 0.79560  0.88880  0.58550  Biso   1.000  C
  H110     1.0000 0.83740  0.86560  0.60750  Biso   1.000  H
  C171     1.0000 0.49840  0.57460  0.09340  Biso   1.000  C
  H111     1.0000 0.48030  0.54610  0.11460  Biso   1.000  H
  C172     1.0000 0.19480  0.49380  0.75830  Biso   1.000  C
  H112     1.0000 0.15080  0.47620  0.73710  Biso   1.000  H
  C173     1.0000 0.19350  0.32100  0.02190  Biso   1.000  C
  H113     1.0000 0.15190  0.29680  0.00090  Biso   1.000  H
  C174     1.0000 0.28910  0.55180  0.76080  Biso   1.000  C
  H114     1.0000 0.31220  0.57560  0.74170  Biso   1.000  H
  C175     1.0000 0.22290  0.48240  0.81740  Biso   1.000  C
  H115     1.0000 0.19840  0.45890  0.83530  Biso   1.000  H
  C176     1.0000 0.55650  0.61810  0.12110  Biso   1.000  C
  H116     1.0000 0.57600  0.61990  0.16130  Biso   1.000  H
  C177     1.0000 0.78500  0.71320  0.32330  Biso   1.000  C
  H117     1.0000 0.82360  0.68390  0.34520  Biso   1.000  H
  C178     1.0000 0.69890  0.80350  0.31570  Biso   1.000  C
  H118     1.0000 0.67710  0.83570  0.33210  Biso   1.000  H
  C179     1.0000 0.67330  0.79430  0.25690  Biso   1.000  C
  H119     1.0000 0.63410  0.82210  0.23440  Biso   1.000  H
  C180     1.0000 0.75470  0.70650  0.26390  Biso   1.000  C
  H120     1.0000 0.77290  0.67090  0.24640  Biso   1.000  H
  N49      1.0000 0.70420  0.96920  0.58270  Biso   1.000  N
  N50      1.0000 0.06060  0.61660  0.58910  Biso   1.000  N
  N51      1.0000 0.69980  0.74910  0.22980  Biso   1.000  N
  N52      1.0000 0.85200  0.78900  0.52830  Biso   1.000  N
  N53      1.0000 0.84730  0.73310  0.44180  Biso   1.000  N
  N54      1.0000 0.76230  0.82290  0.43790  Biso   1.000  N
  N55      1.0000 0.22060  0.31430  0.07840  Biso   1.000  N
  N56      1.0000 0.58660  0.65800  0.09320  Biso   1.000  N
  N57      1.0000 0.22540  0.52750  0.72960  Biso   1.000  N
  N58      1.0000 0.37480  0.48840  0.02770  Biso   1.000  N
  N59      1.0000 0.37760  0.53740  0.94220  Biso   1.000  N
  N60      1.0000 0.28960  0.45080  0.93630  Biso   1.000  N
  Ag11     1.0000 0.15572  0.54164  0.63233  Biso   1.000  Ag
  Ag12     1.0000 0.17834  0.24595  0.13281  Biso   1.000  Ag
  C181     1.0000 0.90260  0.02950  0.00000  Biso   1.000  C
  C182     1.0000 0.37650  0.24370  0.49900  Biso   1.000  C
  C183     1.0000 0.46710  0.18910  0.58990  Biso   1.000  C
  H121     1.0000 0.44590  0.21030  0.61140  Biso   1.000  H
  C184     1.0000 0.77990  0.84970  0.10830  Biso   1.000  C
  H122     1.0000 0.79940  0.84600  0.14850  Biso   1.000  H
  C185     1.0000 0.43980  0.19860  0.53130  Biso   1.000  C
  C186     1.0000 0.99730  0.11560  0.00470  Biso   1.000  C
  H123     1.0000 0.97780  0.11630  0.96450  Biso   1.000  H
  C187     1.0000 0.96730  0.07390  0.03410  Biso   1.000  C
  C188     1.0000 0.20220  0.41610  0.49500  Biso   1.000  C
  H124     1.0000 0.18010  0.41250  0.45490  Biso   1.000  H
  C189     1.0000 0.05650  0.15620  0.03580  Biso   1.000  C
  H125     1.0000 0.07640  0.18370  0.01550  Biso   1.000  H
  C190     1.0000 0.81870  0.94850  0.99420  Biso   1.000  C
  C191     1.0000 0.29030  0.27470  0.41340  Biso   1.000  C
  C192     1.0000 0.72330  0.86240  0.99120  Biso   1.000  C
  H126     1.0000 0.70250  0.86520  0.95110  Biso   1.000  H
  C193     1.0000 0.26390  0.43420  0.61120  Biso   1.000  C
  H127     1.0000 0.28550  0.44090  0.65110  Biso   1.000  H
  C194     1.0000 0.78870  0.00710  0.84890  Biso   1.000  C
  C195     1.0000 0.25740  0.26410  0.34980  Biso   1.000  C
  C196     1.0000 0.47440  0.16530  0.50180  Biso   1.000  C
  H128     1.0000 0.45770  0.17050  0.46190  Biso   1.000  H
  C197     1.0000 0.53280  0.12550  0.53210  Biso   1.000  C
  H129     1.0000 0.55470  0.10300  0.51160  Biso   1.000  H
  C198     1.0000 0.82080  0.99830  0.91320  Biso   1.000  C
  C199     1.0000 0.78560  0.89940  0.02330  Biso   1.000  C
  C200     1.0000 0.29460  0.32750  0.49550  Biso   1.000  C
  C201     1.0000 0.82180  0.04280  0.82020  Biso   1.000  C
  H130     1.0000 0.86580  0.06080  0.84040  Biso   1.000  H
  C202     1.0000 0.26440  0.37810  0.52590  Biso   1.000  C
  C203     1.0000 0.17460  0.45900  0.52570  Biso   1.000  C
  H131     1.0000 0.13250  0.48230  0.50520  Biso   1.000  H
  C204     1.0000 0.81340  0.89160  0.08230  Biso   1.000  C
  H132     1.0000 0.85500  0.91460  0.10480  Biso   1.000  H
  C205     1.0000 0.52680  0.14760  0.61660  Biso   1.000  C
  H133     1.0000 0.54460  0.14080  0.65650  Biso   1.000  H
  C206     1.0000 0.29560  0.38880  0.58550  Biso   1.000  C
  H134     1.0000 0.33740  0.36560  0.60750  Biso   1.000  H
  C207     1.0000 0.99840  0.07460  0.09340  Biso   1.000  C
  H135     1.0000 0.98030  0.04610  0.11460  Biso   1.000  H
  C208     1.0000 0.69480  0.99380  0.75830  Biso   1.000  C
  H136     1.0000 0.65080  0.97620  0.73710  Biso   1.000  H
  C209     1.0000 0.69350  0.82100  0.02190  Biso   1.000  C
  H137     1.0000 0.65190  0.79680  0.00090  Biso   1.000  H
  C210     1.0000 0.78910  0.05180  0.76080  Biso   1.000  C
  H138     1.0000 0.81220  0.07560  0.74170  Biso   1.000  H
  C211     1.0000 0.72290  0.98240  0.81740  Biso   1.000  C
  H139     1.0000 0.69840  0.95890  0.83530  Biso   1.000  H
  C212     1.0000 0.05650  0.11810  0.12110  Biso   1.000  C
  H140     1.0000 0.07600  0.11990  0.16130  Biso   1.000  H
  C213     1.0000 0.28500  0.21320  0.32330  Biso   1.000  C
  H141     1.0000 0.32360  0.18390  0.34520  Biso   1.000  H
  C214     1.0000 0.19890  0.30350  0.31570  Biso   1.000  C
  H142     1.0000 0.17710  0.33570  0.33210  Biso   1.000  H
  C215     1.0000 0.17330  0.29430  0.25690  Biso   1.000  C
  H143     1.0000 0.13410  0.32210  0.23440  Biso   1.000  H
  C216     1.0000 0.25470  0.20650  0.26390  Biso   1.000  C
  H144     1.0000 0.27290  0.17090  0.24640  Biso   1.000  H
  N61      1.0000 0.20420  0.46920  0.58270  Biso   1.000  N
  N62      1.0000 0.56060  0.11660  0.58910  Biso   1.000  N
  N63      1.0000 0.19980  0.24910  0.22980  Biso   1.000  N
  N64      1.0000 0.35200  0.28900  0.52830  Biso   1.000  N
  N65      1.0000 0.34730  0.23310  0.44180  Biso   1.000  N
  N66      1.0000 0.26230  0.32290  0.43790  Biso   1.000  N
  N67      1.0000 0.72060  0.81430  0.07840  Biso   1.000  N
  N68      1.0000 0.08660  0.15800  0.09320  Biso   1.000  N
  N69      1.0000 0.72540  0.02750  0.72960  Biso   1.000  N
  N70      1.0000 0.87480  0.98840  0.02770  Biso   1.000  N
  N71      1.0000 0.87760  0.03740  0.94220  Biso   1.000  N
  N72      1.0000 0.78960  0.95080  0.93630  Biso   1.000  N
  Ag13     1.0000 0.34428  0.04164  0.86767  Biso   1.000  Ag
  Ag14     1.0000 0.32166  0.74595  0.36719  Biso   1.000  Ag
  C217     1.0000 0.59740  0.52950  0.50000  Biso   1.000  C
  C218     1.0000 0.12350  0.74370  0.00100  Biso   1.000  C
  C219     1.0000 0.03290  0.68910  0.91010  Biso   1.000  C
  H145     1.0000 0.05410  0.71030  0.88860  Biso   1.000  H
  C220     1.0000 0.72010  0.34970  0.39170  Biso   1.000  C
  H146     1.0000 0.70060  0.34600  0.35150  Biso   1.000  H
  C221     1.0000 0.06020  0.69860  0.96870  Biso   1.000  C
  C222     1.0000 0.50270  0.61560  0.49530  Biso   1.000  C
  H147     1.0000 0.52220  0.61630  0.53550  Biso   1.000  H
  C223     1.0000 0.53270  0.57390  0.46590  Biso   1.000  C
  C224     1.0000 0.29780  0.91610  0.00500  Biso   1.000  C
  H148     1.0000 0.31990  0.91250  0.04510  Biso   1.000  H
  C225     1.0000 0.44350  0.65620  0.46420  Biso   1.000  C
  H149     1.0000 0.42360  0.68370  0.48450  Biso   1.000  H
  C226     1.0000 0.68130  0.44850  0.50580  Biso   1.000  C
  C227     1.0000 0.20970  0.77470  0.08660  Biso   1.000  C
  C228     1.0000 0.77670  0.36240  0.50880  Biso   1.000  C
  H150     1.0000 0.79750  0.36520  0.54890  Biso   1.000  H
  C229     1.0000 0.23610  0.93420  0.88880  Biso   1.000  C
  H151     1.0000 0.21450  0.94090  0.84890  Biso   1.000  H
  C230     1.0000 0.71130  0.50710  0.65110  Biso   1.000  C
  C231     1.0000 0.24260  0.76410  0.15020  Biso   1.000  C
  C232     1.0000 0.02560  0.66530  0.99820  Biso   1.000  C
  H152     1.0000 0.04230  0.67050  0.03810  Biso   1.000  H
  C233     1.0000 0.96720  0.62550  0.96790  Biso   1.000  C
  H153     1.0000 0.94530  0.60300  0.98840  Biso   1.000  H
  C234     1.0000 0.67920  0.49830  0.58680  Biso   1.000  C
  C235     1.0000 0.71440  0.39940  0.47670  Biso   1.000  C
  C236     1.0000 0.20540  0.82750  0.00450  Biso   1.000  C
  C237     1.0000 0.67820  0.54280  0.67980  Biso   1.000  C
  H154     1.0000 0.63420  0.56080  0.65960  Biso   1.000  H
  C238     1.0000 0.23560  0.87810  0.97410  Biso   1.000  C
  C239     1.0000 0.32540  0.95900  0.97430  Biso   1.000  C
  H155     1.0000 0.36750  0.98230  0.99480  Biso   1.000  H
  C240     1.0000 0.68660  0.39160  0.41770  Biso   1.000  C
  H156     1.0000 0.64500  0.41460  0.39520  Biso   1.000  H
  C241     1.0000 0.97320  0.64760  0.88340  Biso   1.000  C
  H157     1.0000 0.95540  0.64080  0.84350  Biso   1.000  H
  C242     1.0000 0.20440  0.88880  0.91450  Biso   1.000  C
  H158     1.0000 0.16260  0.86560  0.89250  Biso   1.000  H
  C243     1.0000 0.50160  0.57460  0.40660  Biso   1.000  C
  H159     1.0000 0.51970  0.54610  0.38540  Biso   1.000  H
  C244     1.0000 0.80520  0.49380  0.74170  Biso   1.000  C
  H160     1.0000 0.84920  0.47620  0.76290  Biso   1.000  H
  C245     1.0000 0.80650  0.32100  0.47810  Biso   1.000  C
  H161     1.0000 0.84810  0.29680  0.49910  Biso   1.000  H
  C246     1.0000 0.71090  0.55180  0.73920  Biso   1.000  C
  H162     1.0000 0.68780  0.57560  0.75830  Biso   1.000  H
  C247     1.0000 0.77710  0.48240  0.68260  Biso   1.000  C
  H163     1.0000 0.80160  0.45890  0.66470  Biso   1.000  H
  C248     1.0000 0.44350  0.61810  0.37890  Biso   1.000  C
  H164     1.0000 0.42400  0.61990  0.33870  Biso   1.000  H
  C249     1.0000 0.21500  0.71320  0.17670  Biso   1.000  C
  H165     1.0000 0.17640  0.68390  0.15480  Biso   1.000  H
  C250     1.0000 0.30110  0.80350  0.18430  Biso   1.000  C
  H166     1.0000 0.32290  0.83570  0.16790  Biso   1.000  H
  C251     1.0000 0.32670  0.79430  0.24310  Biso   1.000  C
  H167     1.0000 0.36590  0.82210  0.26560  Biso   1.000  H
  C252     1.0000 0.24530  0.70650  0.23610  Biso   1.000  C
  H168     1.0000 0.22710  0.67090  0.25360  Biso   1.000  H
  N73      1.0000 0.29580  0.96920  0.91730  Biso   1.000  N
  N74      1.0000 0.93940  0.61660  0.91090  Biso   1.000  N
  N75      1.0000 0.30020  0.74910  0.27020  Biso   1.000  N
  N76      1.0000 0.14800  0.78900  0.97170  Biso   1.000  N
  N77      1.0000 0.15270  0.73310  0.05820  Biso   1.000  N
  N78      1.0000 0.23770  0.82290  0.06210  Biso   1.000  N
  N79      1.0000 0.77940  0.31430  0.42160  Biso   1.000  N
  N80      1.0000 0.41340  0.65800  0.40680  Biso   1.000  N
  N81      1.0000 0.77460  0.52750  0.77040  Biso   1.000  N
  N82      1.0000 0.62520  0.48840  0.47230  Biso   1.000  N
  N83      1.0000 0.62240  0.53740  0.55780  Biso   1.000  N
  N84      1.0000 0.71040  0.45080  0.56370  Biso   1.000  N
  Ag15     1.0000 0.84428  0.54164  0.86767  Biso   1.000  Ag
  Ag16     1.0000 0.82166  0.24595  0.36719  Biso   1.000  Ag
  C253     1.0000 0.09740  0.02950  0.50000  Biso   1.000  C
  C254     1.0000 0.62350  0.24370  0.00100  Biso   1.000  C
  C255     1.0000 0.53290  0.18910  0.91010  Biso   1.000  C
  H169     1.0000 0.55410  0.21030  0.88860  Biso   1.000  H
  C256     1.0000 0.22010  0.84970  0.39170  Biso   1.000  C
  H170     1.0000 0.20060  0.84600  0.35150  Biso   1.000  H
  C257     1.0000 0.56020  0.19860  0.96870  Biso   1.000  C
  C258     1.0000 0.00270  0.11560  0.49530  Biso   1.000  C
  H171     1.0000 0.02220  0.11630  0.53550  Biso   1.000  H
  C259     1.0000 0.03270  0.07390  0.46590  Biso   1.000  C
  C260     1.0000 0.79780  0.41610  0.00500  Biso   1.000  C
  H172     1.0000 0.81990  0.41250  0.04510  Biso   1.000  H
  C261     1.0000 0.94350  0.15620  0.46420  Biso   1.000  C
  H173     1.0000 0.92360  0.18370  0.48450  Biso   1.000  H
  C262     1.0000 0.18130  0.94850  0.50580  Biso   1.000  C
  C263     1.0000 0.70970  0.27470  0.08660  Biso   1.000  C
  C264     1.0000 0.27670  0.86240  0.50880  Biso   1.000  C
  H174     1.0000 0.29750  0.86520  0.54890  Biso   1.000  H
  C265     1.0000 0.73610  0.43420  0.88880  Biso   1.000  C
  H175     1.0000 0.71450  0.44090  0.84890  Biso   1.000  H
  C266     1.0000 0.21130  0.00710  0.65110  Biso   1.000  C
  C267     1.0000 0.74260  0.26410  0.15020  Biso   1.000  C
  C268     1.0000 0.52560  0.16530  0.99820  Biso   1.000  C
  H176     1.0000 0.54230  0.17050  0.03810  Biso   1.000  H
  C269     1.0000 0.46720  0.12550  0.96790  Biso   1.000  C
  H177     1.0000 0.44530  0.10300  0.98840  Biso   1.000  H
  C270     1.0000 0.17920  0.99830  0.58680  Biso   1.000  C
  C271     1.0000 0.21440  0.89940  0.47670  Biso   1.000  C
  C272     1.0000 0.70540  0.32750  0.00450  Biso   1.000  C
  C273     1.0000 0.17820  0.04280  0.67980  Biso   1.000  C
  H178     1.0000 0.13420  0.06080  0.65960  Biso   1.000  H
  C274     1.0000 0.73560  0.37810  0.97410  Biso   1.000  C
  C275     1.0000 0.82540  0.45900  0.97430  Biso   1.000  C
  H179     1.0000 0.86750  0.48230  0.99480  Biso   1.000  H
  C276     1.0000 0.18660  0.89160  0.41770  Biso   1.000  C
  H180     1.0000 0.14500  0.91460  0.39520  Biso   1.000  H
  C277     1.0000 0.47320  0.14760  0.88340  Biso   1.000  C
  H181     1.0000 0.45540  0.14080  0.84350  Biso   1.000  H
  C278     1.0000 0.70440  0.38880  0.91450  Biso   1.000  C
  H182     1.0000 0.66260  0.36560  0.89250  Biso   1.000  H
  C279     1.0000 0.00160  0.07460  0.40660  Biso   1.000  C
  H183     1.0000 0.01970  0.04610  0.38540  Biso   1.000  H
  C280     1.0000 0.30520  0.99380  0.74170  Biso   1.000  C
  H184     1.0000 0.34920  0.97620  0.76290  Biso   1.000  H
  C281     1.0000 0.30650  0.82100  0.47810  Biso   1.000  C
  H185     1.0000 0.34810  0.79680  0.49910  Biso   1.000  H
  C282     1.0000 0.21090  0.05180  0.73920  Biso   1.000  C
  H186     1.0000 0.18780  0.07560  0.75830  Biso   1.000  H
  C283     1.0000 0.27710  0.98240  0.68260  Biso   1.000  C
  H187     1.0000 0.30160  0.95890  0.66470  Biso   1.000  H
  C284     1.0000 0.94350  0.11810  0.37890  Biso   1.000  C
  H188     1.0000 0.92400  0.11990  0.33870  Biso   1.000  H
  C285     1.0000 0.71500  0.21320  0.17670  Biso   1.000  C
  H189     1.0000 0.67640  0.18390  0.15480  Biso   1.000  H
  C286     1.0000 0.80110  0.30350  0.18430  Biso   1.000  C
  H190     1.0000 0.82290  0.33570  0.16790  Biso   1.000  H
  C287     1.0000 0.82670  0.29430  0.24310  Biso   1.000  C
  H191     1.0000 0.86590  0.32210  0.26560  Biso   1.000  H
  C288     1.0000 0.74530  0.20650  0.23610  Biso   1.000  C
  H192     1.0000 0.72710  0.17090  0.25360  Biso   1.000  H
  N85      1.0000 0.79580  0.46920  0.91730  Biso   1.000  N
  N86      1.0000 0.43940  0.11660  0.91090  Biso   1.000  N
  N87      1.0000 0.80020  0.24910  0.27020  Biso   1.000  N
  N88      1.0000 0.64800  0.28900  0.97170  Biso   1.000  N
  N89      1.0000 0.65270  0.23310  0.05820  Biso   1.000  N
  N90      1.0000 0.73770  0.32290  0.06210  Biso   1.000  N
  N91      1.0000 0.27940  0.81430  0.42160  Biso   1.000  N
  N92      1.0000 0.91340  0.15800  0.40680  Biso   1.000  N
  N93      1.0000 0.27460  0.02750  0.77040  Biso   1.000  N
  N94      1.0000 0.12520  0.98840  0.47230  Biso   1.000  N
  N95      1.0000 0.12240  0.03740  0.55780  Biso   1.000  N
  N96      1.0000 0.21040  0.95080  0.56370  Biso   1.000  N
