data_image0
_cell_length_a       21.9943
_cell_length_b       16.5773
_cell_length_c       25.558
_cell_angle_alpha    90
_cell_angle_beta     115.203
_cell_angle_gamma    90

_symmetry_space_group_name_H-M    "P 1"
_symmetry_int_tables_number       1

loop_
  _symmetry_equiv_pos_as_xyz
  'x, y, z'

loop_
  _atom_site_label
  _atom_site_occupancy
  _atom_site_fract_x
  _atom_site_fract_y
  _atom_site_fract_z
  _atom_site_thermal_displace_type
  _atom_site_B_iso_or_equiv
  _atom_site_type_symbol
  Ag1      1.0000 0.84427  0.45714  0.36730  Biso   1.000  Ag
  Ag2      1.0000 0.82228  0.75492  0.86677  Biso   1.000  Ag
  C1       1.0000 0.09780  0.97080  0.99960  Biso   1.000  C
  C2       1.0000 0.79750  0.58410  0.50420  Biso   1.000  C
  H1       1.0000 0.81970  0.58820  0.54420  Biso   1.000  H
  C3       1.0000 0.00340  0.88460  0.99520  Biso   1.000  C
  H2       1.0000 0.02290  0.88340  0.03540  Biso   1.000  H
  C4       1.0000 0.27730  0.13780  0.00860  Biso   1.000  C
  H3       1.0000 0.29830  0.13380  0.04870  Biso   1.000  H
  C5       1.0000 0.18170  0.05220  0.00570  Biso   1.000  C
  C6       1.0000 0.70980  0.72640  0.58640  Biso   1.000  C
  C7       1.0000 0.55980  0.80140  0.46830  Biso   1.000  C
  C8       1.0000 0.53300  0.81120  0.41020  Biso   1.000  C
  H4       1.0000 0.55460  0.79010  0.38900  Biso   1.000  H
  C9       1.0000 0.62330  0.75630  0.50090  Biso   1.000  C
  C10      1.0000 0.94400  0.84410  0.96350  Biso   1.000  C
  H5       1.0000 0.92420  0.81550  0.98350  Biso   1.000  H
  C11      1.0000 0.03310  0.92720  0.96540  Biso   1.000  C
  C12      1.0000 0.21990  0.15320  0.89110  Biso   1.000  C
  H6       1.0000 0.20020  0.15810  0.85110  Biso   1.000  H
  C13      1.0000 0.17910  0.95630  0.18000  Biso   1.000  C
  H7       1.0000 0.13500  0.93880  0.15990  Biso   1.000  H
  C14      1.0000 0.73540  0.56440  0.38770  Biso   1.000  C
  H8       1.0000 0.71380  0.55750  0.34780  Biso   1.000  H
  C15      1.0000 0.74320  0.73690  0.65050  Biso   1.000  C
  C16      1.0000 0.18010  0.00200  0.08660  Biso   1.000  C
  C17      1.0000 0.21490  0.10130  0.97680  Biso   1.000  C
  C18      1.0000 0.73570  0.62100  0.47370  Biso   1.000  C
  C19      1.0000 0.52560  0.83560  0.49800  Biso   1.000  C
  H9       1.0000 0.54310  0.83190  0.53810  Biso   1.000  H
  C20      1.0000 0.21220  0.99200  0.15110  Biso   1.000  C
  C21      1.0000 0.18590  0.11070  0.91730  Biso   1.000  C
  H10      1.0000 0.14390  0.08860  0.89500  Biso   1.000  H
  C22      1.0000 0.70400  0.60930  0.41420  Biso   1.000  C
  H11      1.0000 0.66190  0.63160  0.39250  Biso   1.000  H
  C23      1.0000 0.30730  0.18050  0.97850  Biso   1.000  C
  H12      1.0000 0.34850  0.20540  0.99960  Biso   1.000  H
  C24      1.0000 0.70500  0.67210  0.50380  Biso   1.000  C
  C25      1.0000 0.47320  0.85290  0.38270  Biso   1.000  C
  H13      1.0000 0.45590  0.86040  0.34290  Biso   1.000  H
  C26      1.0000 0.82510  0.54110  0.47340  Biso   1.000  C
  H14      1.0000 0.86720  0.51810  0.49390  Biso   1.000  H
  C27      1.0000 0.46680  0.87420  0.46780  Biso   1.000  C
  H15      1.0000 0.44440  0.89600  0.48820  Biso   1.000  H
  C28      1.0000 0.00200  0.92760  0.90590  Biso   1.000  C
  H16      1.0000 0.01980  0.95700  0.88470  Biso   1.000  H
  C29      1.0000 0.30670  0.00530  0.24140  Biso   1.000  C
  H17      1.0000 0.35080  0.02250  0.26220  Biso   1.000  H
  C30      1.0000 0.94400  0.88370  0.87860  Biso   1.000  C
  H18      1.0000 0.92470  0.88190  0.83840  Biso   1.000  H
  C31      1.0000 0.21170  0.94660  0.23920  Biso   1.000  C
  H19      1.0000 0.18880  0.92190  0.25830  Biso   1.000  H
  C32      1.0000 0.71490  0.78820  0.67710  Biso   1.000  C
  H20      1.0000 0.67630  0.81750  0.65530  Biso   1.000  H
  C33      1.0000 0.74540  0.79460  0.73640  Biso   1.000  C
  H21      1.0000 0.72630  0.82880  0.75410  Biso   1.000  H
  C34      1.0000 0.27760  0.01630  0.18180  Biso   1.000  C
  H22      1.0000 0.30160  0.03950  0.16330  Biso   1.000  H
  C35      1.0000 0.82830  0.70890  0.74330  Biso   1.000  C
  H23      1.0000 0.86780  0.68170  0.76590  Biso   1.000  H
  C36      1.0000 0.80220  0.69940  0.68410  Biso   1.000  C
  H24      1.0000 0.82430  0.66810  0.66740  Biso   1.000  H
  N1       1.0000 0.79560  0.53040  0.41670  Biso   1.000  N
  N2       1.0000 0.43940  0.88270  0.41100  Biso   1.000  N
  N3       1.0000 0.80080  0.75430  0.76970  Biso   1.000  N
  N4       1.0000 0.73780  0.67730  0.56180  Biso   1.000  N
  N5       1.0000 0.64780  0.71000  0.47120  Biso   1.000  N
  N6       1.0000 0.65250  0.76660  0.55800  Biso   1.000  N
  N7       1.0000 0.91350  0.84360  0.90590  Biso   1.000  N
  N8       1.0000 0.27530  0.97150  0.27030  Biso   1.000  N
  N9       1.0000 0.27970  0.18710  0.92130  Biso   1.000  N
  N10      1.0000 0.12570  0.01270  0.97180  Biso   1.000  N
  N11      1.0000 0.12290  0.96320  0.05770  Biso   1.000  N
  N12      1.0000 0.21110  0.04980  0.06360  Biso   1.000  N
  Ag3      1.0000 0.34427  0.95714  0.36730  Biso   1.000  Ag
  Ag4      1.0000 0.32228  0.25492  0.86677  Biso   1.000  Ag
  C37      1.0000 0.59780  0.47080  0.99960  Biso   1.000  C
  C38      1.0000 0.29750  0.08410  0.50420  Biso   1.000  C
  H25      1.0000 0.31970  0.08820  0.54420  Biso   1.000  H
  C39      1.0000 0.50340  0.38460  0.99520  Biso   1.000  C
  H26      1.0000 0.52290  0.38340  0.03540  Biso   1.000  H
  C40      1.0000 0.77730  0.63780  0.00860  Biso   1.000  C
  H27      1.0000 0.79830  0.63380  0.04870  Biso   1.000  H
  C41      1.0000 0.68170  0.55220  0.00570  Biso   1.000  C
  C42      1.0000 0.20980  0.22640  0.58640  Biso   1.000  C
  C43      1.0000 0.05980  0.30140  0.46830  Biso   1.000  C
  C44      1.0000 0.03300  0.31120  0.41020  Biso   1.000  C
  H28      1.0000 0.05460  0.29010  0.38900  Biso   1.000  H
  C45      1.0000 0.12330  0.25630  0.50090  Biso   1.000  C
  C46      1.0000 0.44400  0.34410  0.96350  Biso   1.000  C
  H29      1.0000 0.42420  0.31550  0.98350  Biso   1.000  H
  C47      1.0000 0.53310  0.42720  0.96540  Biso   1.000  C
  C48      1.0000 0.71990  0.65320  0.89110  Biso   1.000  C
  H30      1.0000 0.70020  0.65810  0.85110  Biso   1.000  H
  C49      1.0000 0.67910  0.45630  0.18000  Biso   1.000  C
  H31      1.0000 0.63500  0.43880  0.15990  Biso   1.000  H
  C50      1.0000 0.23540  0.06440  0.38770  Biso   1.000  C
  H32      1.0000 0.21380  0.05750  0.34780  Biso   1.000  H
  C51      1.0000 0.24320  0.23690  0.65050  Biso   1.000  C
  C52      1.0000 0.68010  0.50200  0.08660  Biso   1.000  C
  C53      1.0000 0.71490  0.60130  0.97680  Biso   1.000  C
  C54      1.0000 0.23570  0.12100  0.47370  Biso   1.000  C
  C55      1.0000 0.02560  0.33560  0.49800  Biso   1.000  C
  H33      1.0000 0.04310  0.33190  0.53810  Biso   1.000  H
  C56      1.0000 0.71220  0.49200  0.15110  Biso   1.000  C
  C57      1.0000 0.68590  0.61070  0.91730  Biso   1.000  C
  H34      1.0000 0.64390  0.58860  0.89500  Biso   1.000  H
  C58      1.0000 0.20400  0.10930  0.41420  Biso   1.000  C
  H35      1.0000 0.16190  0.13160  0.39250  Biso   1.000  H
  C59      1.0000 0.80730  0.68050  0.97850  Biso   1.000  C
  H36      1.0000 0.84850  0.70540  0.99960  Biso   1.000  H
  C60      1.0000 0.20500  0.17210  0.50380  Biso   1.000  C
  C61      1.0000 0.97320  0.35290  0.38270  Biso   1.000  C
  H37      1.0000 0.95590  0.36040  0.34290  Biso   1.000  H
  C62      1.0000 0.32510  0.04110  0.47340  Biso   1.000  C
  H38      1.0000 0.36720  0.01810  0.49390  Biso   1.000  H
  C63      1.0000 0.96680  0.37420  0.46780  Biso   1.000  C
  H39      1.0000 0.94440  0.39600  0.48820  Biso   1.000  H
  C64      1.0000 0.50200  0.42760  0.90590  Biso   1.000  C
  H40      1.0000 0.51980  0.45700  0.88470  Biso   1.000  H
  C65      1.0000 0.80670  0.50530  0.24140  Biso   1.000  C
  H41      1.0000 0.85080  0.52250  0.26220  Biso   1.000  H
  C66      1.0000 0.44400  0.38370  0.87860  Biso   1.000  C
  H42      1.0000 0.42470  0.38190  0.83840  Biso   1.000  H
  C67      1.0000 0.71170  0.44660  0.23920  Biso   1.000  C
  H43      1.0000 0.68880  0.42190  0.25830  Biso   1.000  H
  C68      1.0000 0.21490  0.28820  0.67710  Biso   1.000  C
  H44      1.0000 0.17630  0.31750  0.65530  Biso   1.000  H
  C69      1.0000 0.24540  0.29460  0.73640  Biso   1.000  C
  H45      1.0000 0.22630  0.32880  0.75410  Biso   1.000  H
  C70      1.0000 0.77760  0.51630  0.18180  Biso   1.000  C
  H46      1.0000 0.80160  0.53950  0.16330  Biso   1.000  H
  C71      1.0000 0.32830  0.20890  0.74330  Biso   1.000  C
  H47      1.0000 0.36780  0.18170  0.76590  Biso   1.000  H
  C72      1.0000 0.30220  0.19940  0.68410  Biso   1.000  C
  H48      1.0000 0.32430  0.16810  0.66740  Biso   1.000  H
  N13      1.0000 0.29560  0.03040  0.41670  Biso   1.000  N
  N14      1.0000 0.93940  0.38270  0.41100  Biso   1.000  N
  N15      1.0000 0.30080  0.25430  0.76970  Biso   1.000  N
  N16      1.0000 0.23780  0.17730  0.56180  Biso   1.000  N
  N17      1.0000 0.14780  0.21000  0.47120  Biso   1.000  N
  N18      1.0000 0.15250  0.26660  0.55800  Biso   1.000  N
  N19      1.0000 0.41350  0.34360  0.90590  Biso   1.000  N
  N20      1.0000 0.77530  0.47150  0.27030  Biso   1.000  N
  N21      1.0000 0.77970  0.68710  0.92130  Biso   1.000  N
  N22      1.0000 0.62570  0.51270  0.97180  Biso   1.000  N
  N23      1.0000 0.62290  0.46320  0.05770  Biso   1.000  N
  N24      1.0000 0.71110  0.54980  0.06360  Biso   1.000  N
  Ag5      1.0000 0.15573  0.45714  0.13270  Biso   1.000  Ag
  Ag6      1.0000 0.17772  0.75492  0.63323  Biso   1.000  Ag
  C73      1.0000 0.90220  0.97080  0.50040  Biso   1.000  C
  C74      1.0000 0.20250  0.58410  0.99580  Biso   1.000  C
  H49      1.0000 0.18030  0.58820  0.95580  Biso   1.000  H
  C75      1.0000 0.99660  0.88460  0.50480  Biso   1.000  C
  H50      1.0000 0.97710  0.88340  0.46460  Biso   1.000  H
  C76      1.0000 0.72270  0.13780  0.49140  Biso   1.000  C
  H51      1.0000 0.70170  0.13380  0.45130  Biso   1.000  H
  C77      1.0000 0.81830  0.05220  0.49430  Biso   1.000  C
  C78      1.0000 0.29020  0.72640  0.91360  Biso   1.000  C
  C79      1.0000 0.44020  0.80140  0.03170  Biso   1.000  C
  C80      1.0000 0.46700  0.81120  0.08980  Biso   1.000  C
  H52      1.0000 0.44540  0.79010  0.11100  Biso   1.000  H
  C81      1.0000 0.37670  0.75630  0.99910  Biso   1.000  C
  C82      1.0000 0.05600  0.84410  0.53650  Biso   1.000  C
  H53      1.0000 0.07580  0.81550  0.51650  Biso   1.000  H
  C83      1.0000 0.96690  0.92720  0.53460  Biso   1.000  C
  C84      1.0000 0.78010  0.15320  0.60890  Biso   1.000  C
  H54      1.0000 0.79980  0.15810  0.64890  Biso   1.000  H
  C85      1.0000 0.82090  0.95630  0.32000  Biso   1.000  C
  H55      1.0000 0.86500  0.93880  0.34010  Biso   1.000  H
  C86      1.0000 0.26460  0.56440  0.11230  Biso   1.000  C
  H56      1.0000 0.28620  0.55750  0.15220  Biso   1.000  H
  C87      1.0000 0.25680  0.73690  0.84950  Biso   1.000  C
  C88      1.0000 0.81990  0.00200  0.41340  Biso   1.000  C
  C89      1.0000 0.78510  0.10130  0.52320  Biso   1.000  C
  C90      1.0000 0.26430  0.62100  0.02630  Biso   1.000  C
  C91      1.0000 0.47440  0.83560  0.00200  Biso   1.000  C
  H57      1.0000 0.45690  0.83190  0.96190  Biso   1.000  H
  C92      1.0000 0.78780  0.99200  0.34890  Biso   1.000  C
  C93      1.0000 0.81410  0.11070  0.58270  Biso   1.000  C
  H58      1.0000 0.85610  0.08860  0.60500  Biso   1.000  H
  C94      1.0000 0.29600  0.60930  0.08580  Biso   1.000  C
  H59      1.0000 0.33810  0.63160  0.10750  Biso   1.000  H
  C95      1.0000 0.69270  0.18050  0.52150  Biso   1.000  C
  H60      1.0000 0.65150  0.20540  0.50040  Biso   1.000  H
  C96      1.0000 0.29500  0.67210  0.99620  Biso   1.000  C
  C97      1.0000 0.52680  0.85290  0.11730  Biso   1.000  C
  H61      1.0000 0.54410  0.86040  0.15710  Biso   1.000  H
  C98      1.0000 0.17490  0.54110  0.02660  Biso   1.000  C
  H62      1.0000 0.13280  0.51810  0.00610  Biso   1.000  H
  C99      1.0000 0.53320  0.87420  0.03220  Biso   1.000  C
  H63      1.0000 0.55560  0.89600  0.01180  Biso   1.000  H
  C100     1.0000 0.99800  0.92760  0.59410  Biso   1.000  C
  H64      1.0000 0.98020  0.95700  0.61530  Biso   1.000  H
  C101     1.0000 0.69330  0.00530  0.25860  Biso   1.000  C
  H65      1.0000 0.64920  0.02250  0.23780  Biso   1.000  H
  C102     1.0000 0.05600  0.88370  0.62140  Biso   1.000  C
  H66      1.0000 0.07530  0.88190  0.66160  Biso   1.000  H
  C103     1.0000 0.78830  0.94660  0.26080  Biso   1.000  C
  H67      1.0000 0.81120  0.92190  0.24170  Biso   1.000  H
  C104     1.0000 0.28510  0.78820  0.82290  Biso   1.000  C
  H68      1.0000 0.32370  0.81750  0.84470  Biso   1.000  H
  C105     1.0000 0.25460  0.79460  0.76360  Biso   1.000  C
  H69      1.0000 0.27370  0.82880  0.74590  Biso   1.000  H
  C106     1.0000 0.72240  0.01630  0.31820  Biso   1.000  C
  H70      1.0000 0.69840  0.03950  0.33670  Biso   1.000  H
  C107     1.0000 0.17170  0.70890  0.75670  Biso   1.000  C
  H71      1.0000 0.13220  0.68170  0.73410  Biso   1.000  H
  C108     1.0000 0.19780  0.69940  0.81590  Biso   1.000  C
  H72      1.0000 0.17570  0.66810  0.83260  Biso   1.000  H
  N25      1.0000 0.20440  0.53040  0.08330  Biso   1.000  N
  N26      1.0000 0.56060  0.88270  0.08900  Biso   1.000  N
  N27      1.0000 0.19920  0.75430  0.73030  Biso   1.000  N
  N28      1.0000 0.26220  0.67730  0.93820  Biso   1.000  N
  N29      1.0000 0.35220  0.71000  0.02880  Biso   1.000  N
  N30      1.0000 0.34750  0.76660  0.94200  Biso   1.000  N
  N31      1.0000 0.08650  0.84360  0.59410  Biso   1.000  N
  N32      1.0000 0.72470  0.97150  0.22970  Biso   1.000  N
  N33      1.0000 0.72030  0.18710  0.57870  Biso   1.000  N
  N34      1.0000 0.87430  0.01270  0.52820  Biso   1.000  N
  N35      1.0000 0.87710  0.96320  0.44230  Biso   1.000  N
  N36      1.0000 0.78890  0.04980  0.43640  Biso   1.000  N
  Ag7      1.0000 0.65573  0.95714  0.13270  Biso   1.000  Ag
  Ag8      1.0000 0.67772  0.25492  0.63323  Biso   1.000  Ag
  C109     1.0000 0.40220  0.47080  0.50040  Biso   1.000  C
  C110     1.0000 0.70250  0.08410  0.99580  Biso   1.000  C
  H73      1.0000 0.68030  0.08820  0.95580  Biso   1.000  H
  C111     1.0000 0.49660  0.38460  0.50480  Biso   1.000  C
  H74      1.0000 0.47710  0.38340  0.46460  Biso   1.000  H
  C112     1.0000 0.22270  0.63780  0.49140  Biso   1.000  C
  H75      1.0000 0.20170  0.63380  0.45130  Biso   1.000  H
  C113     1.0000 0.31830  0.55220  0.49430  Biso   1.000  C
  C114     1.0000 0.79020  0.22640  0.91360  Biso   1.000  C
  C115     1.0000 0.94020  0.30140  0.03170  Biso   1.000  C
  C116     1.0000 0.96700  0.31120  0.08980  Biso   1.000  C
  H76      1.0000 0.94540  0.29010  0.11100  Biso   1.000  H
  C117     1.0000 0.87670  0.25630  0.99910  Biso   1.000  C
  C118     1.0000 0.55600  0.34410  0.53650  Biso   1.000  C
  H77      1.0000 0.57580  0.31550  0.51650  Biso   1.000  H
  C119     1.0000 0.46690  0.42720  0.53460  Biso   1.000  C
  C120     1.0000 0.28010  0.65320  0.60890  Biso   1.000  C
  H78      1.0000 0.29980  0.65810  0.64890  Biso   1.000  H
  C121     1.0000 0.32090  0.45630  0.32000  Biso   1.000  C
  H79      1.0000 0.36500  0.43880  0.34010  Biso   1.000  H
  C122     1.0000 0.76460  0.06440  0.11230  Biso   1.000  C
  H80      1.0000 0.78620  0.05750  0.15220  Biso   1.000  H
  C123     1.0000 0.75680  0.23690  0.84950  Biso   1.000  C
  C124     1.0000 0.31990  0.50200  0.41340  Biso   1.000  C
  C125     1.0000 0.28510  0.60130  0.52320  Biso   1.000  C
  C126     1.0000 0.76430  0.12100  0.02630  Biso   1.000  C
  C127     1.0000 0.97440  0.33560  0.00200  Biso   1.000  C
  H81      1.0000 0.95690  0.33190  0.96190  Biso   1.000  H
  C128     1.0000 0.28780  0.49200  0.34890  Biso   1.000  C
  C129     1.0000 0.31410  0.61070  0.58270  Biso   1.000  C
  H82      1.0000 0.35610  0.58860  0.60500  Biso   1.000  H
  C130     1.0000 0.79600  0.10930  0.08580  Biso   1.000  C
  H83      1.0000 0.83810  0.13160  0.10750  Biso   1.000  H
  C131     1.0000 0.19270  0.68050  0.52150  Biso   1.000  C
  H84      1.0000 0.15150  0.70540  0.50040  Biso   1.000  H
  C132     1.0000 0.79500  0.17210  0.99620  Biso   1.000  C
  C133     1.0000 0.02680  0.35290  0.11730  Biso   1.000  C
  H85      1.0000 0.04410  0.36040  0.15710  Biso   1.000  H
  C134     1.0000 0.67490  0.04110  0.02660  Biso   1.000  C
  H86      1.0000 0.63280  0.01810  0.00610  Biso   1.000  H
  C135     1.0000 0.03320  0.37420  0.03220  Biso   1.000  C
  H87      1.0000 0.05560  0.39600  0.01180  Biso   1.000  H
  C136     1.0000 0.49800  0.42760  0.59410  Biso   1.000  C
  H88      1.0000 0.48020  0.45700  0.61530  Biso   1.000  H
  C137     1.0000 0.19330  0.50530  0.25860  Biso   1.000  C
  H89      1.0000 0.14920  0.52250  0.23780  Biso   1.000  H
  C138     1.0000 0.55600  0.38370  0.62140  Biso   1.000  C
  H90      1.0000 0.57530  0.38190  0.66160  Biso   1.000  H
  C139     1.0000 0.28830  0.44660  0.26080  Biso   1.000  C
  H91      1.0000 0.31120  0.42190  0.24170  Biso   1.000  H
  C140     1.0000 0.78510  0.28820  0.82290  Biso   1.000  C
  H92      1.0000 0.82370  0.31750  0.84470  Biso   1.000  H
  C141     1.0000 0.75460  0.29460  0.76360  Biso   1.000  C
  H93      1.0000 0.77370  0.32880  0.74590  Biso   1.000  H
  C142     1.0000 0.22240  0.51630  0.31820  Biso   1.000  C
  H94      1.0000 0.19840  0.53950  0.33670  Biso   1.000  H
  C143     1.0000 0.67170  0.20890  0.75670  Biso   1.000  C
  H95      1.0000 0.63220  0.18170  0.73410  Biso   1.000  H
  C144     1.0000 0.69780  0.19940  0.81590  Biso   1.000  C
  H96      1.0000 0.67570  0.16810  0.83260  Biso   1.000  H
  N37      1.0000 0.70440  0.03040  0.08330  Biso   1.000  N
  N38      1.0000 0.06060  0.38270  0.08900  Biso   1.000  N
  N39      1.0000 0.69920  0.25430  0.73030  Biso   1.000  N
  N40      1.0000 0.76220  0.17730  0.93820  Biso   1.000  N
  N41      1.0000 0.85220  0.21000  0.02880  Biso   1.000  N
  N42      1.0000 0.84750  0.26660  0.94200  Biso   1.000  N
  N43      1.0000 0.58650  0.34360  0.59410  Biso   1.000  N
  N44      1.0000 0.22470  0.47150  0.22970  Biso   1.000  N
  N45      1.0000 0.22030  0.68710  0.57870  Biso   1.000  N
  N46      1.0000 0.37430  0.51270  0.52820  Biso   1.000  N
  N47      1.0000 0.37710  0.46320  0.44230  Biso   1.000  N
  N48      1.0000 0.28890  0.54980  0.43640  Biso   1.000  N
  Ag9      1.0000 0.15573  0.54286  0.63270  Biso   1.000  Ag
  Ag10     1.0000 0.17772  0.24508  0.13323  Biso   1.000  Ag
  C145     1.0000 0.90220  0.02920  0.00040  Biso   1.000  C
  C146     1.0000 0.20250  0.41590  0.49580  Biso   1.000  C
  H97      1.0000 0.18030  0.41180  0.45580  Biso   1.000  H
  C147     1.0000 0.99660  0.11540  0.00480  Biso   1.000  C
  H98      1.0000 0.97710  0.11660  0.96460  Biso   1.000  H
  C148     1.0000 0.72270  0.86220  0.99140  Biso   1.000  C
  H99      1.0000 0.70170  0.86620  0.95130  Biso   1.000  H
  C149     1.0000 0.81830  0.94780  0.99430  Biso   1.000  C
  C150     1.0000 0.29020  0.27360  0.41360  Biso   1.000  C
  C151     1.0000 0.44020  0.19860  0.53170  Biso   1.000  C
  C152     1.0000 0.46700  0.18880  0.58980  Biso   1.000  C
  H100     1.0000 0.44540  0.20990  0.61100  Biso   1.000  H
  C153     1.0000 0.37670  0.24370  0.49910  Biso   1.000  C
  C154     1.0000 0.05600  0.15590  0.03650  Biso   1.000  C
  H101     1.0000 0.07580  0.18450  0.01650  Biso   1.000  H
  C155     1.0000 0.96690  0.07280  0.03460  Biso   1.000  C
  C156     1.0000 0.78010  0.84680  0.10890  Biso   1.000  C
  H102     1.0000 0.79980  0.84190  0.14890  Biso   1.000  H
  C157     1.0000 0.82090  0.04370  0.82000  Biso   1.000  C
  H103     1.0000 0.86500  0.06120  0.84010  Biso   1.000  H
  C158     1.0000 0.26460  0.43560  0.61230  Biso   1.000  C
  H104     1.0000 0.28620  0.44250  0.65220  Biso   1.000  H
  C159     1.0000 0.25680  0.26310  0.34950  Biso   1.000  C
  C160     1.0000 0.81990  0.99800  0.91340  Biso   1.000  C
  C161     1.0000 0.78510  0.89870  0.02320  Biso   1.000  C
  C162     1.0000 0.26430  0.37900  0.52630  Biso   1.000  C
  C163     1.0000 0.47440  0.16440  0.50200  Biso   1.000  C
  H105     1.0000 0.45690  0.16810  0.46190  Biso   1.000  H
  C164     1.0000 0.78780  0.00800  0.84890  Biso   1.000  C
  C165     1.0000 0.81410  0.88930  0.08270  Biso   1.000  C
  H106     1.0000 0.85610  0.91140  0.10500  Biso   1.000  H
  C166     1.0000 0.29600  0.39070  0.58580  Biso   1.000  C
  H107     1.0000 0.33810  0.36840  0.60750  Biso   1.000  H
  C167     1.0000 0.69270  0.81950  0.02150  Biso   1.000  C
  H108     1.0000 0.65150  0.79460  0.00040  Biso   1.000  H
  C168     1.0000 0.29500  0.32790  0.49620  Biso   1.000  C
  C169     1.0000 0.52680  0.14710  0.61730  Biso   1.000  C
  H109     1.0000 0.54410  0.13960  0.65710  Biso   1.000  H
  C170     1.0000 0.17490  0.45890  0.52660  Biso   1.000  C
  H110     1.0000 0.13280  0.48190  0.50610  Biso   1.000  H
  C171     1.0000 0.53320  0.12580  0.53220  Biso   1.000  C
  H111     1.0000 0.55560  0.10400  0.51180  Biso   1.000  H
  C172     1.0000 0.99800  0.07240  0.09410  Biso   1.000  C
  H112     1.0000 0.98020  0.04300  0.11530  Biso   1.000  H
  C173     1.0000 0.69330  0.99470  0.75860  Biso   1.000  C
  H113     1.0000 0.64920  0.97750  0.73780  Biso   1.000  H
  C174     1.0000 0.05600  0.11630  0.12140  Biso   1.000  C
  H114     1.0000 0.07530  0.11810  0.16160  Biso   1.000  H
  C175     1.0000 0.78830  0.05340  0.76080  Biso   1.000  C
  H115     1.0000 0.81120  0.07810  0.74170  Biso   1.000  H
  C176     1.0000 0.28510  0.21180  0.32290  Biso   1.000  C
  H116     1.0000 0.32370  0.18250  0.34470  Biso   1.000  H
  C177     1.0000 0.25460  0.20540  0.26360  Biso   1.000  C
  H117     1.0000 0.27370  0.17120  0.24590  Biso   1.000  H
  C178     1.0000 0.72240  0.98370  0.81820  Biso   1.000  C
  H118     1.0000 0.69840  0.96050  0.83670  Biso   1.000  H
  C179     1.0000 0.17170  0.29110  0.25670  Biso   1.000  C
  H119     1.0000 0.13220  0.31830  0.23410  Biso   1.000  H
  C180     1.0000 0.19780  0.30060  0.31590  Biso   1.000  C
  H120     1.0000 0.17570  0.33190  0.33260  Biso   1.000  H
  N49      1.0000 0.20440  0.46960  0.58330  Biso   1.000  N
  N50      1.0000 0.56060  0.11730  0.58900  Biso   1.000  N
  N51      1.0000 0.19920  0.24570  0.23030  Biso   1.000  N
  N52      1.0000 0.26220  0.32270  0.43820  Biso   1.000  N
  N53      1.0000 0.35220  0.29000  0.52880  Biso   1.000  N
  N54      1.0000 0.34750  0.23340  0.44200  Biso   1.000  N
  N55      1.0000 0.08650  0.15640  0.09410  Biso   1.000  N
  N56      1.0000 0.72470  0.02850  0.72970  Biso   1.000  N
  N57      1.0000 0.72030  0.81290  0.07870  Biso   1.000  N
  N58      1.0000 0.87430  0.98730  0.02820  Biso   1.000  N
  N59      1.0000 0.87710  0.03680  0.94230  Biso   1.000  N
  N60      1.0000 0.78890  0.95020  0.93640  Biso   1.000  N
  Ag11     1.0000 0.65573  0.04286  0.63270  Biso   1.000  Ag
  Ag12     1.0000 0.67772  0.74508  0.13323  Biso   1.000  Ag
  C181     1.0000 0.40220  0.52920  0.00040  Biso   1.000  C
  C182     1.0000 0.70250  0.91590  0.49580  Biso   1.000  C
  H121     1.0000 0.68030  0.91180  0.45580  Biso   1.000  H
  C183     1.0000 0.49660  0.61540  0.00480  Biso   1.000  C
  H122     1.0000 0.47710  0.61660  0.96460  Biso   1.000  H
  C184     1.0000 0.22270  0.36220  0.99140  Biso   1.000  C
  H123     1.0000 0.20170  0.36620  0.95130  Biso   1.000  H
  C185     1.0000 0.31830  0.44780  0.99430  Biso   1.000  C
  C186     1.0000 0.79020  0.77360  0.41360  Biso   1.000  C
  C187     1.0000 0.94020  0.69860  0.53170  Biso   1.000  C
  C188     1.0000 0.96700  0.68880  0.58980  Biso   1.000  C
  H124     1.0000 0.94540  0.70990  0.61100  Biso   1.000  H
  C189     1.0000 0.87670  0.74370  0.49910  Biso   1.000  C
  C190     1.0000 0.55600  0.65590  0.03650  Biso   1.000  C
  H125     1.0000 0.57580  0.68450  0.01650  Biso   1.000  H
  C191     1.0000 0.46690  0.57280  0.03460  Biso   1.000  C
  C192     1.0000 0.28010  0.34680  0.10890  Biso   1.000  C
  H126     1.0000 0.29980  0.34190  0.14890  Biso   1.000  H
  C193     1.0000 0.32090  0.54370  0.82000  Biso   1.000  C
  H127     1.0000 0.36500  0.56120  0.84010  Biso   1.000  H
  C194     1.0000 0.76460  0.93560  0.61230  Biso   1.000  C
  H128     1.0000 0.78620  0.94250  0.65220  Biso   1.000  H
  C195     1.0000 0.75680  0.76310  0.34950  Biso   1.000  C
  C196     1.0000 0.31990  0.49800  0.91340  Biso   1.000  C
  C197     1.0000 0.28510  0.39870  0.02320  Biso   1.000  C
  C198     1.0000 0.76430  0.87900  0.52630  Biso   1.000  C
  C199     1.0000 0.97440  0.66440  0.50200  Biso   1.000  C
  H129     1.0000 0.95690  0.66810  0.46190  Biso   1.000  H
  C200     1.0000 0.28780  0.50800  0.84890  Biso   1.000  C
  C201     1.0000 0.31410  0.38930  0.08270  Biso   1.000  C
  H130     1.0000 0.35610  0.41140  0.10500  Biso   1.000  H
  C202     1.0000 0.79600  0.89070  0.58580  Biso   1.000  C
  H131     1.0000 0.83810  0.86840  0.60750  Biso   1.000  H
  C203     1.0000 0.19270  0.31950  0.02150  Biso   1.000  C
  H132     1.0000 0.15150  0.29460  0.00040  Biso   1.000  H
  C204     1.0000 0.79500  0.82790  0.49620  Biso   1.000  C
  C205     1.0000 0.02680  0.64710  0.61730  Biso   1.000  C
  H133     1.0000 0.04410  0.63960  0.65710  Biso   1.000  H
  C206     1.0000 0.67490  0.95890  0.52660  Biso   1.000  C
  H134     1.0000 0.63280  0.98190  0.50610  Biso   1.000  H
  C207     1.0000 0.03320  0.62580  0.53220  Biso   1.000  C
  H135     1.0000 0.05560  0.60400  0.51180  Biso   1.000  H
  C208     1.0000 0.49800  0.57240  0.09410  Biso   1.000  C
  H136     1.0000 0.48020  0.54300  0.11530  Biso   1.000  H
  C209     1.0000 0.19330  0.49470  0.75860  Biso   1.000  C
  H137     1.0000 0.14920  0.47750  0.73780  Biso   1.000  H
  C210     1.0000 0.55600  0.61630  0.12140  Biso   1.000  C
  H138     1.0000 0.57530  0.61810  0.16160  Biso   1.000  H
  C211     1.0000 0.28830  0.55340  0.76080  Biso   1.000  C
  H139     1.0000 0.31120  0.57810  0.74170  Biso   1.000  H
  C212     1.0000 0.78510  0.71180  0.32290  Biso   1.000  C
  H140     1.0000 0.82370  0.68250  0.34470  Biso   1.000  H
  C213     1.0000 0.75460  0.70540  0.26360  Biso   1.000  C
  H141     1.0000 0.77370  0.67120  0.24590  Biso   1.000  H
  C214     1.0000 0.22240  0.48370  0.81820  Biso   1.000  C
  H142     1.0000 0.19840  0.46050  0.83670  Biso   1.000  H
  C215     1.0000 0.67170  0.79110  0.25670  Biso   1.000  C
  H143     1.0000 0.63220  0.81830  0.23410  Biso   1.000  H
  C216     1.0000 0.69780  0.80060  0.31590  Biso   1.000  C
  H144     1.0000 0.67570  0.83190  0.33260  Biso   1.000  H
  N61      1.0000 0.70440  0.96960  0.58330  Biso   1.000  N
  N62      1.0000 0.06060  0.61730  0.58900  Biso   1.000  N
  N63      1.0000 0.69920  0.74570  0.23030  Biso   1.000  N
  N64      1.0000 0.76220  0.82270  0.43820  Biso   1.000  N
  N65      1.0000 0.85220  0.79000  0.52880  Biso   1.000  N
  N66      1.0000 0.84750  0.73340  0.44200  Biso   1.000  N
  N67      1.0000 0.58650  0.65640  0.09410  Biso   1.000  N
  N68      1.0000 0.22470  0.52850  0.72970  Biso   1.000  N
  N69      1.0000 0.22030  0.31290  0.07870  Biso   1.000  N
  N70      1.0000 0.37430  0.48730  0.02820  Biso   1.000  N
  N71      1.0000 0.37710  0.53680  0.94230  Biso   1.000  N
  N72      1.0000 0.28890  0.45020  0.93640  Biso   1.000  N
  Ag13     1.0000 0.84427  0.54286  0.86730  Biso   1.000  Ag
  Ag14     1.0000 0.82228  0.24508  0.36677  Biso   1.000  Ag
  C217     1.0000 0.09780  0.02920  0.49960  Biso   1.000  C
  C218     1.0000 0.79750  0.41590  0.00420  Biso   1.000  C
  H145     1.0000 0.81970  0.41180  0.04420  Biso   1.000  H
  C219     1.0000 0.00340  0.11540  0.49520  Biso   1.000  C
  H146     1.0000 0.02290  0.11660  0.53540  Biso   1.000  H
  C220     1.0000 0.27730  0.86220  0.50860  Biso   1.000  C
  H147     1.0000 0.29830  0.86620  0.54870  Biso   1.000  H
  C221     1.0000 0.18170  0.94780  0.50570  Biso   1.000  C
  C222     1.0000 0.70980  0.27360  0.08640  Biso   1.000  C
  C223     1.0000 0.55980  0.19860  0.96830  Biso   1.000  C
  C224     1.0000 0.53300  0.18880  0.91020  Biso   1.000  C
  H148     1.0000 0.55460  0.20990  0.88900  Biso   1.000  H
  C225     1.0000 0.62330  0.24370  0.00090  Biso   1.000  C
  C226     1.0000 0.94400  0.15590  0.46350  Biso   1.000  C
  H149     1.0000 0.92420  0.18450  0.48350  Biso   1.000  H
  C227     1.0000 0.03310  0.07280  0.46540  Biso   1.000  C
  C228     1.0000 0.21990  0.84680  0.39110  Biso   1.000  C
  H150     1.0000 0.20020  0.84190  0.35110  Biso   1.000  H
  C229     1.0000 0.17910  0.04370  0.68000  Biso   1.000  C
  H151     1.0000 0.13500  0.06120  0.65990  Biso   1.000  H
  C230     1.0000 0.73540  0.43560  0.88770  Biso   1.000  C
  H152     1.0000 0.71380  0.44250  0.84780  Biso   1.000  H
  C231     1.0000 0.74320  0.26310  0.15050  Biso   1.000  C
  C232     1.0000 0.18010  0.99800  0.58660  Biso   1.000  C
  C233     1.0000 0.21490  0.89870  0.47680  Biso   1.000  C
  C234     1.0000 0.73570  0.37900  0.97370  Biso   1.000  C
  C235     1.0000 0.52560  0.16440  0.99800  Biso   1.000  C
  H153     1.0000 0.54310  0.16810  0.03810  Biso   1.000  H
  C236     1.0000 0.21220  0.00800  0.65110  Biso   1.000  C
  C237     1.0000 0.18590  0.88930  0.41730  Biso   1.000  C
  H154     1.0000 0.14390  0.91140  0.39500  Biso   1.000  H
  C238     1.0000 0.70400  0.39070  0.91420  Biso   1.000  C
  H155     1.0000 0.66190  0.36840  0.89250  Biso   1.000  H
  C239     1.0000 0.30730  0.81950  0.47850  Biso   1.000  C
  H156     1.0000 0.34850  0.79460  0.49960  Biso   1.000  H
  C240     1.0000 0.70500  0.32790  0.00380  Biso   1.000  C
  C241     1.0000 0.47320  0.14710  0.88270  Biso   1.000  C
  H157     1.0000 0.45590  0.13960  0.84290  Biso   1.000  H
  C242     1.0000 0.82510  0.45890  0.97340  Biso   1.000  C
  H158     1.0000 0.86720  0.48190  0.99390  Biso   1.000  H
  C243     1.0000 0.46680  0.12580  0.96780  Biso   1.000  C
  H159     1.0000 0.44440  0.10400  0.98820  Biso   1.000  H
  C244     1.0000 0.00200  0.07240  0.40590  Biso   1.000  C
  H160     1.0000 0.01980  0.04300  0.38470  Biso   1.000  H
  C245     1.0000 0.30670  0.99470  0.74140  Biso   1.000  C
  H161     1.0000 0.35080  0.97750  0.76220  Biso   1.000  H
  C246     1.0000 0.94400  0.11630  0.37860  Biso   1.000  C
  H162     1.0000 0.92470  0.11810  0.33840  Biso   1.000  H
  C247     1.0000 0.21170  0.05340  0.73920  Biso   1.000  C
  H163     1.0000 0.18880  0.07810  0.75830  Biso   1.000  H
  C248     1.0000 0.71490  0.21180  0.17710  Biso   1.000  C
  H164     1.0000 0.67630  0.18250  0.15530  Biso   1.000  H
  C249     1.0000 0.74540  0.20540  0.23640  Biso   1.000  C
  H165     1.0000 0.72630  0.17120  0.25410  Biso   1.000  H
  C250     1.0000 0.27760  0.98370  0.68180  Biso   1.000  C
  H166     1.0000 0.30160  0.96050  0.66330  Biso   1.000  H
  C251     1.0000 0.82830  0.29110  0.24330  Biso   1.000  C
  H167     1.0000 0.86780  0.31830  0.26590  Biso   1.000  H
  C252     1.0000 0.80220  0.30060  0.18410  Biso   1.000  C
  H168     1.0000 0.82430  0.33190  0.16740  Biso   1.000  H
  N73      1.0000 0.79560  0.46960  0.91670  Biso   1.000  N
  N74      1.0000 0.43940  0.11730  0.91100  Biso   1.000  N
  N75      1.0000 0.80080  0.24570  0.26970  Biso   1.000  N
  N76      1.0000 0.73780  0.32270  0.06180  Biso   1.000  N
  N77      1.0000 0.64780  0.29000  0.97120  Biso   1.000  N
  N78      1.0000 0.65250  0.23340  0.05800  Biso   1.000  N
  N79      1.0000 0.91350  0.15640  0.40590  Biso   1.000  N
  N80      1.0000 0.27530  0.02850  0.77030  Biso   1.000  N
  N81      1.0000 0.27970  0.81290  0.42130  Biso   1.000  N
  N82      1.0000 0.12570  0.98730  0.47180  Biso   1.000  N
  N83      1.0000 0.12290  0.03680  0.55770  Biso   1.000  N
  N84      1.0000 0.21110  0.95020  0.56360  Biso   1.000  N
  Ag15     1.0000 0.34427  0.04286  0.86730  Biso   1.000  Ag
  Ag16     1.0000 0.32228  0.74508  0.36677  Biso   1.000  Ag
  C253     1.0000 0.59780  0.52920  0.49960  Biso   1.000  C
  C254     1.0000 0.29750  0.91590  0.00420  Biso   1.000  C
  H169     1.0000 0.31970  0.91180  0.04420  Biso   1.000  H
  C255     1.0000 0.50340  0.61540  0.49520  Biso   1.000  C
  H170     1.0000 0.52290  0.61660  0.53540  Biso   1.000  H
  C256     1.0000 0.77730  0.36220  0.50860  Biso   1.000  C
  H171     1.0000 0.79830  0.36620  0.54870  Biso   1.000  H
  C257     1.0000 0.68170  0.44780  0.50570  Biso   1.000  C
  C258     1.0000 0.20980  0.77360  0.08640  Biso   1.000  C
  C259     1.0000 0.05980  0.69860  0.96830  Biso   1.000  C
  C260     1.0000 0.03300  0.68880  0.91020  Biso   1.000  C
  H172     1.0000 0.05460  0.70990  0.88900  Biso   1.000  H
  C261     1.0000 0.12330  0.74370  0.00090  Biso   1.000  C
  C262     1.0000 0.44400  0.65590  0.46350  Biso   1.000  C
  H173     1.0000 0.42420  0.68450  0.48350  Biso   1.000  H
  C263     1.0000 0.53310  0.57280  0.46540  Biso   1.000  C
  C264     1.0000 0.71990  0.34680  0.39110  Biso   1.000  C
  H174     1.0000 0.70020  0.34190  0.35110  Biso   1.000  H
  C265     1.0000 0.67910  0.54370  0.68000  Biso   1.000  C
  H175     1.0000 0.63500  0.56120  0.65990  Biso   1.000  H
  C266     1.0000 0.23540  0.93560  0.88770  Biso   1.000  C
  H176     1.0000 0.21380  0.94250  0.84780  Biso   1.000  H
  C267     1.0000 0.24320  0.76310  0.15050  Biso   1.000  C
  C268     1.0000 0.68010  0.49800  0.58660  Biso   1.000  C
  C269     1.0000 0.71490  0.39870  0.47680  Biso   1.000  C
  C270     1.0000 0.23570  0.87900  0.97370  Biso   1.000  C
  C271     1.0000 0.02560  0.66440  0.99800  Biso   1.000  C
  H177     1.0000 0.04310  0.66810  0.03810  Biso   1.000  H
  C272     1.0000 0.71220  0.50800  0.65110  Biso   1.000  C
  C273     1.0000 0.68590  0.38930  0.41730  Biso   1.000  C
  H178     1.0000 0.64390  0.41140  0.39500  Biso   1.000  H
  C274     1.0000 0.20400  0.89070  0.91420  Biso   1.000  C
  H179     1.0000 0.16190  0.86840  0.89250  Biso   1.000  H
  C275     1.0000 0.80730  0.31950  0.47850  Biso   1.000  C
  H180     1.0000 0.84850  0.29460  0.49960  Biso   1.000  H
  C276     1.0000 0.20500  0.82790  0.00380  Biso   1.000  C
  C277     1.0000 0.97320  0.64710  0.88270  Biso   1.000  C
  H181     1.0000 0.95590  0.63960  0.84290  Biso   1.000  H
  C278     1.0000 0.32510  0.95890  0.97340  Biso   1.000  C
  H182     1.0000 0.36720  0.98190  0.99390  Biso   1.000  H
  C279     1.0000 0.96680  0.62580  0.96780  Biso   1.000  C
  H183     1.0000 0.94440  0.60400  0.98820  Biso   1.000  H
  C280     1.0000 0.50200  0.57240  0.40590  Biso   1.000  C
  H184     1.0000 0.51980  0.54300  0.38470  Biso   1.000  H
  C281     1.0000 0.80670  0.49470  0.74140  Biso   1.000  C
  H185     1.0000 0.85080  0.47750  0.76220  Biso   1.000  H
  C282     1.0000 0.44400  0.61630  0.37860  Biso   1.000  C
  H186     1.0000 0.42470  0.61810  0.33840  Biso   1.000  H
  C283     1.0000 0.71170  0.55340  0.73920  Biso   1.000  C
  H187     1.0000 0.68880  0.57810  0.75830  Biso   1.000  H
  C284     1.0000 0.21490  0.71180  0.17710  Biso   1.000  C
  H188     1.0000 0.17630  0.68250  0.15530  Biso   1.000  H
  C285     1.0000 0.24540  0.70540  0.23640  Biso   1.000  C
  H189     1.0000 0.22630  0.67120  0.25410  Biso   1.000  H
  C286     1.0000 0.77760  0.48370  0.68180  Biso   1.000  C
  H190     1.0000 0.80160  0.46050  0.66330  Biso   1.000  H
  C287     1.0000 0.32830  0.79110  0.24330  Biso   1.000  C
  H191     1.0000 0.36780  0.81830  0.26590  Biso   1.000  H
  C288     1.0000 0.30220  0.80060  0.18410  Biso   1.000  C
  H192     1.0000 0.32430  0.83190  0.16740  Biso   1.000  H
  N85      1.0000 0.29560  0.96960  0.91670  Biso   1.000  N
  N86      1.0000 0.93940  0.61730  0.91100  Biso   1.000  N
  N87      1.0000 0.30080  0.74570  0.26970  Biso   1.000  N
  N88      1.0000 0.23780  0.82270  0.06180  Biso   1.000  N
  N89      1.0000 0.14780  0.79000  0.97120  Biso   1.000  N
  N90      1.0000 0.15250  0.73340  0.05800  Biso   1.000  N
  N91      1.0000 0.41350  0.65640  0.40590  Biso   1.000  N
  N92      1.0000 0.77530  0.52850  0.77030  Biso   1.000  N
  N93      1.0000 0.77970  0.31290  0.42130  Biso   1.000  N
  N94      1.0000 0.62570  0.48730  0.47180  Biso   1.000  N
  N95      1.0000 0.62290  0.53680  0.55770  Biso   1.000  N
  N96      1.0000 0.71110  0.45020  0.56360  Biso   1.000  N
