data_image0
_cell_length_a       21.9777
_cell_length_b       16.6111
_cell_length_c       25.6344
_cell_angle_alpha    90
_cell_angle_beta     115.351
_cell_angle_gamma    90

_symmetry_space_group_name_H-M    "P 1"
_symmetry_int_tables_number       1

loop_
  _symmetry_equiv_pos_as_xyz
  'x, y, z'

loop_
  _atom_site_label
  _atom_site_occupancy
  _atom_site_fract_x
  _atom_site_fract_y
  _atom_site_fract_z
  _atom_site_thermal_displace_type
  _atom_site_B_iso_or_equiv
  _atom_site_type_symbol
  Ag1      1.0000 0.77386  0.20904  0.36821  Biso   1.000  Ag
  Ag2      1.0000 0.29517  0.50170  0.86765  Biso   1.000  Ag
  C1       1.0000 0.15340  0.71990  0.00110  Biso   1.000  C
  C2       1.0000 0.92300  0.90020  0.89250  Biso   1.000  C
  H1       1.0000 0.90330  0.90500  0.85250  Biso   1.000  H
  C3       1.0000 0.12810  0.50710  0.50240  Biso   1.000  C
  C4       1.0000 0.12790  0.56170  0.41110  Biso   1.000  C
  H2       1.0000 0.08540  0.53970  0.38990  Biso   1.000  H
  C5       1.0000 0.90310  0.31690  0.38910  Biso   1.000  C
  H3       1.0000 0.88470  0.31110  0.34910  Biso   1.000  H
  C6       1.0000 0.07530  0.80140  0.00700  Biso   1.000  C
  C7       1.0000 0.98230  0.88750  0.00950  Biso   1.000  C
  H4       1.0000 0.00160  0.88480  0.04950  Biso   1.000  H
  C8       1.0000 0.15980  0.55270  0.47020  Biso   1.000  C
  C9       1.0000 0.24310  0.63370  0.99630  Biso   1.000  C
  H5       1.0000 0.26370  0.63320  0.03650  Biso   1.000  H
  C10      1.0000 0.22290  0.58610  0.49930  Biso   1.000  C
  H6       1.0000 0.24570  0.58130  0.53920  Biso   1.000  H
  C11      1.0000 0.15810  0.48570  0.65140  Biso   1.000  C
  C12      1.0000 0.12760  0.47600  0.58780  Biso   1.000  C
  C13      1.0000 0.27160  0.59280  0.96530  Biso   1.000  C
  H7       1.0000 0.31180  0.56540  0.98560  Biso   1.000  H
  C14      1.0000 0.96090  0.36130  0.41550  Biso   1.000  C
  H8       1.0000 0.98120  0.38390  0.39380  Biso   1.000  H
  C15      1.0000 0.18380  0.67550  0.96681  Biso   1.000  C
  C16      1.0000 0.19040  0.74260  0.15200  Biso   1.000  C
  C17      1.0000 0.95720  0.33410  0.50540  Biso   1.000  C
  H9       1.0000 0.97500  0.33750  0.54540  Biso   1.000  H
  C18      1.0000 0.25270  0.70740  0.18100  Biso   1.000  C
  H10      1.0000 0.27670  0.68970  0.16080  Biso   1.000  H
  C19      1.0000 0.25140  0.62660  0.46880  Biso   1.000  C
  H11      1.0000 0.29370  0.64930  0.48910  Biso   1.000  H
  C20      1.0000 0.05010  0.42290  0.50540  Biso   1.000  C
  C21      1.0000 0.98240  0.85770  0.91860  Biso   1.000  C
  H12      1.0000 0.00190  0.83440  0.89640  Biso   1.000  H
  C22      1.0000 0.15840  0.75220  0.08800  Biso   1.000  C
  C23      1.0000 0.27950  0.69850  0.24040  Biso   1.000  C
  H13      1.0000 0.32150  0.67440  0.25950  Biso   1.000  H
  C24      1.0000 0.18670  0.75750  0.24280  Biso   1.000  C
  H14      1.0000 0.16380  0.77540  0.26380  Biso   1.000  H
  C25      1.0000 0.15630  0.76750  0.18370  Biso   1.000  C
  H15      1.0000 0.11380  0.79070  0.16550  Biso   1.000  H
  C26      1.0000 0.16050  0.60430  0.38400  Biso   1.000  C
  H16      1.0000 0.13830  0.61170  0.34430  Biso   1.000  H
  C27      1.0000 0.21180  0.53730  0.67800  Biso   1.000  C
  H17      1.0000 0.22780  0.56770  0.65610  Biso   1.000  H
  C28      1.0000 0.89900  0.29100  0.47460  Biso   1.000  C
  H18      1.0000 0.87760  0.26730  0.49510  Biso   1.000  H
  C29      1.0000 0.24130  0.54340  0.73720  Biso   1.000  C
  H19      1.0000 0.27720  0.57880  0.75450  Biso   1.000  H
  C30      1.0000 0.01270  0.85000  0.97790  Biso   1.000  C
  C31      1.0000 0.98900  0.37240  0.47510  Biso   1.000  C
  C32      1.0000 0.15540  0.67490  0.90740  Biso   1.000  C
  H20      1.0000 0.11610  0.70350  0.88620  Biso   1.000  H
  C33      1.0000 0.92220  0.92910  0.97940  Biso   1.000  C
  H21      1.0000 0.90210  0.95410  0.00050  Biso   1.000  H
  C34      1.0000 0.13370  0.44520  0.68530  Biso   1.000  C
  H22      1.0000 0.09560  0.41300  0.66870  Biso   1.000  H
  C35      1.0000 0.16720  0.45360  0.74430  Biso   1.000  C
  H23      1.0000 0.15110  0.42460  0.76680  Biso   1.000  H
  C36      1.0000 0.18630  0.63100  0.87980  Biso   1.000  C
  H24      1.0000 0.16570  0.62930  0.83970  Biso   1.000  H
  N1       1.0000 0.87162  0.28130  0.41768  Biso   1.000  N
  N2       1.0000 0.22200  0.63510  0.41183  Biso   1.000  N
  N3       1.0000 0.22080  0.50030  0.77132  Biso   1.000  N
  N4       1.0000 0.07450  0.46070  0.47287  Biso   1.000  N
  N5       1.0000 0.15623  0.51750  0.55929  Biso   1.000  N
  N6       1.0000 0.07486  0.42710  0.56287  Biso   1.000  N
  N7       1.0000 0.24420  0.59050  0.90745  Biso   1.000  N
  N8       1.0000 0.24680  0.72340  0.27139  Biso   1.000  N
  N9       1.0000 0.89220  0.93500  0.92209  Biso   1.000  N
  N10      1.0000 0.09769  0.76070  0.97311  Biso   1.000  N
  N11      1.0000 0.18629  0.71260  0.05876  Biso   1.000  N
  N12      1.0000 0.10390  0.79890  0.06457  Biso   1.000  N
  Ag3      1.0000 0.27386  0.70904  0.36821  Biso   1.000  Ag
  Ag4      1.0000 0.79517  0.00170  0.86765  Biso   1.000  Ag
  C37      1.0000 0.65340  0.21990  0.00110  Biso   1.000  C
  C38      1.0000 0.42300  0.40020  0.89250  Biso   1.000  C
  H25      1.0000 0.40330  0.40500  0.85250  Biso   1.000  H
  C39      1.0000 0.62810  0.00710  0.50240  Biso   1.000  C
  C40      1.0000 0.62790  0.06170  0.41110  Biso   1.000  C
  H26      1.0000 0.58540  0.03970  0.38990  Biso   1.000  H
  C41      1.0000 0.40310  0.81690  0.38910  Biso   1.000  C
  H27      1.0000 0.38470  0.81110  0.34910  Biso   1.000  H
  C42      1.0000 0.57530  0.30140  0.00700  Biso   1.000  C
  C43      1.0000 0.48230  0.38750  0.00950  Biso   1.000  C
  H28      1.0000 0.50160  0.38480  0.04950  Biso   1.000  H
  C44      1.0000 0.65980  0.05270  0.47020  Biso   1.000  C
  C45      1.0000 0.74310  0.13370  0.99630  Biso   1.000  C
  H29      1.0000 0.76370  0.13320  0.03650  Biso   1.000  H
  C46      1.0000 0.72290  0.08610  0.49930  Biso   1.000  C
  H30      1.0000 0.74570  0.08130  0.53920  Biso   1.000  H
  C47      1.0000 0.65810  0.98570  0.65140  Biso   1.000  C
  C48      1.0000 0.62760  0.97600  0.58780  Biso   1.000  C
  C49      1.0000 0.77160  0.09280  0.96530  Biso   1.000  C
  H31      1.0000 0.81180  0.06540  0.98560  Biso   1.000  H
  C50      1.0000 0.46090  0.86130  0.41550  Biso   1.000  C
  H32      1.0000 0.48120  0.88390  0.39380  Biso   1.000  H
  C51      1.0000 0.68380  0.17550  0.96681  Biso   1.000  C
  C52      1.0000 0.69040  0.24260  0.15200  Biso   1.000  C
  C53      1.0000 0.45720  0.83410  0.50540  Biso   1.000  C
  H33      1.0000 0.47500  0.83750  0.54540  Biso   1.000  H
  C54      1.0000 0.75270  0.20740  0.18100  Biso   1.000  C
  H34      1.0000 0.77670  0.18970  0.16080  Biso   1.000  H
  C55      1.0000 0.75140  0.12660  0.46880  Biso   1.000  C
  H35      1.0000 0.79370  0.14930  0.48910  Biso   1.000  H
  C56      1.0000 0.55010  0.92290  0.50540  Biso   1.000  C
  C57      1.0000 0.48240  0.35770  0.91860  Biso   1.000  C
  H36      1.0000 0.50190  0.33440  0.89640  Biso   1.000  H
  C58      1.0000 0.65840  0.25220  0.08800  Biso   1.000  C
  C59      1.0000 0.77950  0.19850  0.24040  Biso   1.000  C
  H37      1.0000 0.82150  0.17440  0.25950  Biso   1.000  H
  C60      1.0000 0.68670  0.25750  0.24280  Biso   1.000  C
  H38      1.0000 0.66380  0.27540  0.26380  Biso   1.000  H
  C61      1.0000 0.65630  0.26750  0.18370  Biso   1.000  C
  H39      1.0000 0.61380  0.29070  0.16550  Biso   1.000  H
  C62      1.0000 0.66050  0.10430  0.38400  Biso   1.000  C
  H40      1.0000 0.63830  0.11170  0.34430  Biso   1.000  H
  C63      1.0000 0.71180  0.03730  0.67800  Biso   1.000  C
  H41      1.0000 0.72780  0.06770  0.65610  Biso   1.000  H
  C64      1.0000 0.39900  0.79100  0.47460  Biso   1.000  C
  H42      1.0000 0.37760  0.76730  0.49510  Biso   1.000  H
  C65      1.0000 0.74130  0.04340  0.73720  Biso   1.000  C
  H43      1.0000 0.77720  0.07880  0.75450  Biso   1.000  H
  C66      1.0000 0.51270  0.35000  0.97790  Biso   1.000  C
  C67      1.0000 0.48900  0.87240  0.47510  Biso   1.000  C
  C68      1.0000 0.65540  0.17490  0.90740  Biso   1.000  C
  H44      1.0000 0.61610  0.20350  0.88620  Biso   1.000  H
  C69      1.0000 0.42220  0.42910  0.97940  Biso   1.000  C
  H45      1.0000 0.40210  0.45410  0.00050  Biso   1.000  H
  C70      1.0000 0.63370  0.94520  0.68530  Biso   1.000  C
  H46      1.0000 0.59560  0.91300  0.66870  Biso   1.000  H
  C71      1.0000 0.66720  0.95360  0.74430  Biso   1.000  C
  H47      1.0000 0.65110  0.92460  0.76680  Biso   1.000  H
  C72      1.0000 0.68630  0.13100  0.87980  Biso   1.000  C
  H48      1.0000 0.66570  0.12930  0.83970  Biso   1.000  H
  N13      1.0000 0.37162  0.78130  0.41768  Biso   1.000  N
  N14      1.0000 0.72200  0.13510  0.41183  Biso   1.000  N
  N15      1.0000 0.72080  0.00030  0.77132  Biso   1.000  N
  N16      1.0000 0.57450  0.96070  0.47287  Biso   1.000  N
  N17      1.0000 0.65623  0.01750  0.55929  Biso   1.000  N
  N18      1.0000 0.57486  0.92710  0.56287  Biso   1.000  N
  N19      1.0000 0.74420  0.09050  0.90745  Biso   1.000  N
  N20      1.0000 0.74680  0.22340  0.27139  Biso   1.000  N
  N21      1.0000 0.39220  0.43500  0.92209  Biso   1.000  N
  N22      1.0000 0.59769  0.26070  0.97311  Biso   1.000  N
  N23      1.0000 0.68629  0.21260  0.05876  Biso   1.000  N
  N24      1.0000 0.60390  0.29890  0.06457  Biso   1.000  N
  Ag5      1.0000 0.22614  0.20904  0.13179  Biso   1.000  Ag
  Ag6      1.0000 0.70483  0.50170  0.63235  Biso   1.000  Ag
  C73      1.0000 0.84660  0.71990  0.49890  Biso   1.000  C
  C74      1.0000 0.07700  0.90020  0.60750  Biso   1.000  C
  H49      1.0000 0.09670  0.90500  0.64750  Biso   1.000  H
  C75      1.0000 0.87190  0.50710  0.99760  Biso   1.000  C
  C76      1.0000 0.87210  0.56170  0.08890  Biso   1.000  C
  H50      1.0000 0.91460  0.53970  0.11010  Biso   1.000  H
  C77      1.0000 0.09690  0.31690  0.11090  Biso   1.000  C
  H51      1.0000 0.11530  0.31110  0.15090  Biso   1.000  H
  C78      1.0000 0.92470  0.80140  0.49300  Biso   1.000  C
  C79      1.0000 0.01770  0.88750  0.49050  Biso   1.000  C
  H52      1.0000 0.99840  0.88480  0.45050  Biso   1.000  H
  C80      1.0000 0.84020  0.55270  0.02980  Biso   1.000  C
  C81      1.0000 0.75690  0.63370  0.50370  Biso   1.000  C
  H53      1.0000 0.73630  0.63320  0.46350  Biso   1.000  H
  C82      1.0000 0.77710  0.58610  0.00070  Biso   1.000  C
  H54      1.0000 0.75430  0.58130  0.96080  Biso   1.000  H
  C83      1.0000 0.84190  0.48570  0.84860  Biso   1.000  C
  C84      1.0000 0.87240  0.47600  0.91220  Biso   1.000  C
  C85      1.0000 0.72840  0.59280  0.53470  Biso   1.000  C
  H55      1.0000 0.68820  0.56540  0.51440  Biso   1.000  H
  C86      1.0000 0.03910  0.36130  0.08450  Biso   1.000  C
  H56      1.0000 0.01880  0.38390  0.10620  Biso   1.000  H
  C87      1.0000 0.81620  0.67550  0.53319  Biso   1.000  C
  C88      1.0000 0.80960  0.74260  0.34800  Biso   1.000  C
  C89      1.0000 0.04280  0.33410  0.99460  Biso   1.000  C
  H57      1.0000 0.02500  0.33750  0.95460  Biso   1.000  H
  C90      1.0000 0.74730  0.70740  0.31900  Biso   1.000  C
  H58      1.0000 0.72330  0.68970  0.33920  Biso   1.000  H
  C91      1.0000 0.74860  0.62660  0.03120  Biso   1.000  C
  H59      1.0000 0.70630  0.64930  0.01090  Biso   1.000  H
  C92      1.0000 0.94990  0.42290  0.99460  Biso   1.000  C
  C93      1.0000 0.01760  0.85770  0.58140  Biso   1.000  C
  H60      1.0000 0.99810  0.83440  0.60360  Biso   1.000  H
  C94      1.0000 0.84160  0.75220  0.41200  Biso   1.000  C
  C95      1.0000 0.72050  0.69850  0.25960  Biso   1.000  C
  H61      1.0000 0.67850  0.67440  0.24050  Biso   1.000  H
  C96      1.0000 0.81330  0.75750  0.25720  Biso   1.000  C
  H62      1.0000 0.83620  0.77540  0.23620  Biso   1.000  H
  C97      1.0000 0.84370  0.76750  0.31630  Biso   1.000  C
  H63      1.0000 0.88620  0.79070  0.33450  Biso   1.000  H
  C98      1.0000 0.83950  0.60430  0.11600  Biso   1.000  C
  H64      1.0000 0.86170  0.61170  0.15570  Biso   1.000  H
  C99      1.0000 0.78820  0.53730  0.82200  Biso   1.000  C
  H65      1.0000 0.77220  0.56770  0.84390  Biso   1.000  H
  C100     1.0000 0.10100  0.29100  0.02540  Biso   1.000  C
  H66      1.0000 0.12240  0.26730  0.00490  Biso   1.000  H
  C101     1.0000 0.75870  0.54340  0.76280  Biso   1.000  C
  H67      1.0000 0.72280  0.57880  0.74550  Biso   1.000  H
  C102     1.0000 0.98730  0.85000  0.52210  Biso   1.000  C
  C103     1.0000 0.01100  0.37240  0.02490  Biso   1.000  C
  C104     1.0000 0.84460  0.67490  0.59260  Biso   1.000  C
  H68      1.0000 0.88390  0.70350  0.61380  Biso   1.000  H
  C105     1.0000 0.07780  0.92910  0.52060  Biso   1.000  C
  H69      1.0000 0.09790  0.95410  0.49950  Biso   1.000  H
  C106     1.0000 0.86630  0.44520  0.81470  Biso   1.000  C
  H70      1.0000 0.90440  0.41300  0.83130  Biso   1.000  H
  C107     1.0000 0.83280  0.45360  0.75570  Biso   1.000  C
  H71      1.0000 0.84890  0.42460  0.73320  Biso   1.000  H
  C108     1.0000 0.81370  0.63100  0.62020  Biso   1.000  C
  H72      1.0000 0.83430  0.62930  0.66030  Biso   1.000  H
  N25      1.0000 0.12838  0.28130  0.08232  Biso   1.000  N
  N26      1.0000 0.77800  0.63510  0.08817  Biso   1.000  N
  N27      1.0000 0.77920  0.50030  0.72868  Biso   1.000  N
  N28      1.0000 0.92550  0.46070  0.02713  Biso   1.000  N
  N29      1.0000 0.84377  0.51750  0.94071  Biso   1.000  N
  N30      1.0000 0.92514  0.42710  0.93713  Biso   1.000  N
  N31      1.0000 0.75580  0.59050  0.59255  Biso   1.000  N
  N32      1.0000 0.75320  0.72340  0.22861  Biso   1.000  N
  N33      1.0000 0.10780  0.93500  0.57791  Biso   1.000  N
  N34      1.0000 0.90231  0.76070  0.52689  Biso   1.000  N
  N35      1.0000 0.81371  0.71260  0.44124  Biso   1.000  N
  N36      1.0000 0.89610  0.79890  0.43543  Biso   1.000  N
  Ag7      1.0000 0.72614  0.70904  0.13179  Biso   1.000  Ag
  Ag8      1.0000 0.20483  0.00170  0.63235  Biso   1.000  Ag
  C109     1.0000 0.34660  0.21990  0.49890  Biso   1.000  C
  C110     1.0000 0.57700  0.40020  0.60750  Biso   1.000  C
  H73      1.0000 0.59670  0.40500  0.64750  Biso   1.000  H
  C111     1.0000 0.37190  0.00710  0.99760  Biso   1.000  C
  C112     1.0000 0.37210  0.06170  0.08890  Biso   1.000  C
  H74      1.0000 0.41460  0.03970  0.11010  Biso   1.000  H
  C113     1.0000 0.59690  0.81690  0.11090  Biso   1.000  C
  H75      1.0000 0.61530  0.81110  0.15090  Biso   1.000  H
  C114     1.0000 0.42470  0.30140  0.49300  Biso   1.000  C
  C115     1.0000 0.51770  0.38750  0.49050  Biso   1.000  C
  H76      1.0000 0.49840  0.38480  0.45050  Biso   1.000  H
  C116     1.0000 0.34020  0.05270  0.02980  Biso   1.000  C
  C117     1.0000 0.25690  0.13370  0.50370  Biso   1.000  C
  H77      1.0000 0.23630  0.13320  0.46350  Biso   1.000  H
  C118     1.0000 0.27710  0.08610  0.00070  Biso   1.000  C
  H78      1.0000 0.25430  0.08130  0.96080  Biso   1.000  H
  C119     1.0000 0.34190  0.98570  0.84860  Biso   1.000  C
  C120     1.0000 0.37240  0.97600  0.91220  Biso   1.000  C
  C121     1.0000 0.22840  0.09280  0.53470  Biso   1.000  C
  H79      1.0000 0.18820  0.06540  0.51440  Biso   1.000  H
  C122     1.0000 0.53910  0.86130  0.08450  Biso   1.000  C
  H80      1.0000 0.51880  0.88390  0.10620  Biso   1.000  H
  C123     1.0000 0.31620  0.17550  0.53319  Biso   1.000  C
  C124     1.0000 0.30960  0.24260  0.34800  Biso   1.000  C
  C125     1.0000 0.54280  0.83410  0.99460  Biso   1.000  C
  H81      1.0000 0.52500  0.83750  0.95460  Biso   1.000  H
  C126     1.0000 0.24730  0.20740  0.31900  Biso   1.000  C
  H82      1.0000 0.22330  0.18970  0.33920  Biso   1.000  H
  C127     1.0000 0.24860  0.12660  0.03120  Biso   1.000  C
  H83      1.0000 0.20630  0.14930  0.01090  Biso   1.000  H
  C128     1.0000 0.44990  0.92290  0.99460  Biso   1.000  C
  C129     1.0000 0.51760  0.35770  0.58140  Biso   1.000  C
  H84      1.0000 0.49810  0.33440  0.60360  Biso   1.000  H
  C130     1.0000 0.34160  0.25220  0.41200  Biso   1.000  C
  C131     1.0000 0.22050  0.19850  0.25960  Biso   1.000  C
  H85      1.0000 0.17850  0.17440  0.24050  Biso   1.000  H
  C132     1.0000 0.31330  0.25750  0.25720  Biso   1.000  C
  H86      1.0000 0.33620  0.27540  0.23620  Biso   1.000  H
  C133     1.0000 0.34370  0.26750  0.31630  Biso   1.000  C
  H87      1.0000 0.38620  0.29070  0.33450  Biso   1.000  H
  C134     1.0000 0.33950  0.10430  0.11600  Biso   1.000  C
  H88      1.0000 0.36170  0.11170  0.15570  Biso   1.000  H
  C135     1.0000 0.28820  0.03730  0.82200  Biso   1.000  C
  H89      1.0000 0.27220  0.06770  0.84390  Biso   1.000  H
  C136     1.0000 0.60100  0.79100  0.02540  Biso   1.000  C
  H90      1.0000 0.62240  0.76730  0.00490  Biso   1.000  H
  C137     1.0000 0.25870  0.04340  0.76280  Biso   1.000  C
  H91      1.0000 0.22280  0.07880  0.74550  Biso   1.000  H
  C138     1.0000 0.48730  0.35000  0.52210  Biso   1.000  C
  C139     1.0000 0.51100  0.87240  0.02490  Biso   1.000  C
  C140     1.0000 0.34460  0.17490  0.59260  Biso   1.000  C
  H92      1.0000 0.38390  0.20350  0.61380  Biso   1.000  H
  C141     1.0000 0.57780  0.42910  0.52060  Biso   1.000  C
  H93      1.0000 0.59790  0.45410  0.49950  Biso   1.000  H
  C142     1.0000 0.36630  0.94520  0.81470  Biso   1.000  C
  H94      1.0000 0.40440  0.91300  0.83130  Biso   1.000  H
  C143     1.0000 0.33280  0.95360  0.75570  Biso   1.000  C
  H95      1.0000 0.34890  0.92460  0.73320  Biso   1.000  H
  C144     1.0000 0.31370  0.13100  0.62020  Biso   1.000  C
  H96      1.0000 0.33430  0.12930  0.66030  Biso   1.000  H
  N37      1.0000 0.62838  0.78130  0.08232  Biso   1.000  N
  N38      1.0000 0.27800  0.13510  0.08817  Biso   1.000  N
  N39      1.0000 0.27920  0.00030  0.72868  Biso   1.000  N
  N40      1.0000 0.42550  0.96070  0.02713  Biso   1.000  N
  N41      1.0000 0.34377  0.01750  0.94071  Biso   1.000  N
  N42      1.0000 0.42514  0.92710  0.93713  Biso   1.000  N
  N43      1.0000 0.25580  0.09050  0.59255  Biso   1.000  N
  N44      1.0000 0.25320  0.22340  0.22861  Biso   1.000  N
  N45      1.0000 0.60780  0.43500  0.57791  Biso   1.000  N
  N46      1.0000 0.40231  0.26070  0.52689  Biso   1.000  N
  N47      1.0000 0.31371  0.21260  0.44124  Biso   1.000  N
  N48      1.0000 0.39610  0.29890  0.43543  Biso   1.000  N
  Ag9      1.0000 0.22614  0.79096  0.63179  Biso   1.000  Ag
  Ag10     1.0000 0.70483  0.49830  0.13235  Biso   1.000  Ag
  C145     1.0000 0.84660  0.28010  0.99890  Biso   1.000  C
  C146     1.0000 0.07700  0.09980  0.10750  Biso   1.000  C
  H97      1.0000 0.09670  0.09500  0.14750  Biso   1.000  H
  C147     1.0000 0.87190  0.49290  0.49760  Biso   1.000  C
  C148     1.0000 0.87210  0.43830  0.58890  Biso   1.000  C
  H98      1.0000 0.91460  0.46030  0.61010  Biso   1.000  H
  C149     1.0000 0.09690  0.68310  0.61090  Biso   1.000  C
  H99      1.0000 0.11530  0.68890  0.65090  Biso   1.000  H
  C150     1.0000 0.92470  0.19860  0.99300  Biso   1.000  C
  C151     1.0000 0.01770  0.11250  0.99050  Biso   1.000  C
  H100     1.0000 0.99840  0.11520  0.95050  Biso   1.000  H
  C152     1.0000 0.84020  0.44730  0.52980  Biso   1.000  C
  C153     1.0000 0.75690  0.36630  0.00370  Biso   1.000  C
  H101     1.0000 0.73630  0.36680  0.96350  Biso   1.000  H
  C154     1.0000 0.77710  0.41390  0.50070  Biso   1.000  C
  H102     1.0000 0.75430  0.41870  0.46080  Biso   1.000  H
  C155     1.0000 0.84190  0.51430  0.34860  Biso   1.000  C
  C156     1.0000 0.87240  0.52400  0.41220  Biso   1.000  C
  C157     1.0000 0.72840  0.40720  0.03470  Biso   1.000  C
  H103     1.0000 0.68820  0.43460  0.01440  Biso   1.000  H
  C158     1.0000 0.03910  0.63870  0.58450  Biso   1.000  C
  H104     1.0000 0.01880  0.61610  0.60620  Biso   1.000  H
  C159     1.0000 0.81620  0.32450  0.03319  Biso   1.000  C
  C160     1.0000 0.80960  0.25740  0.84800  Biso   1.000  C
  C161     1.0000 0.04280  0.66590  0.49460  Biso   1.000  C
  H105     1.0000 0.02500  0.66250  0.45460  Biso   1.000  H
  C162     1.0000 0.74730  0.29260  0.81900  Biso   1.000  C
  H106     1.0000 0.72330  0.31030  0.83920  Biso   1.000  H
  C163     1.0000 0.74860  0.37340  0.53120  Biso   1.000  C
  H107     1.0000 0.70630  0.35070  0.51090  Biso   1.000  H
  C164     1.0000 0.94990  0.57710  0.49460  Biso   1.000  C
  C165     1.0000 0.01760  0.14230  0.08140  Biso   1.000  C
  H108     1.0000 0.99810  0.16560  0.10360  Biso   1.000  H
  C166     1.0000 0.84160  0.24780  0.91200  Biso   1.000  C
  C167     1.0000 0.72050  0.30150  0.75960  Biso   1.000  C
  H109     1.0000 0.67850  0.32560  0.74050  Biso   1.000  H
  C168     1.0000 0.81330  0.24250  0.75720  Biso   1.000  C
  H110     1.0000 0.83620  0.22460  0.73620  Biso   1.000  H
  C169     1.0000 0.84370  0.23250  0.81630  Biso   1.000  C
  H111     1.0000 0.88620  0.20930  0.83450  Biso   1.000  H
  C170     1.0000 0.83950  0.39570  0.61600  Biso   1.000  C
  H112     1.0000 0.86170  0.38830  0.65570  Biso   1.000  H
  C171     1.0000 0.78820  0.46270  0.32200  Biso   1.000  C
  H113     1.0000 0.77220  0.43230  0.34390  Biso   1.000  H
  C172     1.0000 0.10100  0.70900  0.52540  Biso   1.000  C
  H114     1.0000 0.12240  0.73270  0.50490  Biso   1.000  H
  C173     1.0000 0.75870  0.45660  0.26280  Biso   1.000  C
  H115     1.0000 0.72280  0.42120  0.24550  Biso   1.000  H
  C174     1.0000 0.98730  0.15000  0.02210  Biso   1.000  C
  C175     1.0000 0.01100  0.62760  0.52490  Biso   1.000  C
  C176     1.0000 0.84460  0.32510  0.09260  Biso   1.000  C
  H116     1.0000 0.88390  0.29650  0.11380  Biso   1.000  H
  C177     1.0000 0.07780  0.07090  0.02060  Biso   1.000  C
  H117     1.0000 0.09790  0.04590  0.99950  Biso   1.000  H
  C178     1.0000 0.86630  0.55480  0.31470  Biso   1.000  C
  H118     1.0000 0.90440  0.58700  0.33130  Biso   1.000  H
  C179     1.0000 0.83280  0.54640  0.25570  Biso   1.000  C
  H119     1.0000 0.84890  0.57540  0.23320  Biso   1.000  H
  C180     1.0000 0.81370  0.36900  0.12020  Biso   1.000  C
  H120     1.0000 0.83430  0.37070  0.16030  Biso   1.000  H
  N49      1.0000 0.12838  0.71870  0.58232  Biso   1.000  N
  N50      1.0000 0.77800  0.36490  0.58817  Biso   1.000  N
  N51      1.0000 0.77920  0.49970  0.22868  Biso   1.000  N
  N52      1.0000 0.92550  0.53930  0.52713  Biso   1.000  N
  N53      1.0000 0.84377  0.48250  0.44071  Biso   1.000  N
  N54      1.0000 0.92514  0.57290  0.43713  Biso   1.000  N
  N55      1.0000 0.75580  0.40950  0.09255  Biso   1.000  N
  N56      1.0000 0.75320  0.27660  0.72861  Biso   1.000  N
  N57      1.0000 0.10780  0.06500  0.07791  Biso   1.000  N
  N58      1.0000 0.90231  0.23930  0.02689  Biso   1.000  N
  N59      1.0000 0.81371  0.28740  0.94124  Biso   1.000  N
  N60      1.0000 0.89610  0.20110  0.93543  Biso   1.000  N
  Ag11     1.0000 0.72614  0.29096  0.63179  Biso   1.000  Ag
  Ag12     1.0000 0.20483  0.99830  0.13235  Biso   1.000  Ag
  C181     1.0000 0.34660  0.78010  0.99890  Biso   1.000  C
  C182     1.0000 0.57700  0.59980  0.10750  Biso   1.000  C
  H121     1.0000 0.59670  0.59500  0.14750  Biso   1.000  H
  C183     1.0000 0.37190  0.99290  0.49760  Biso   1.000  C
  C184     1.0000 0.37210  0.93830  0.58890  Biso   1.000  C
  H122     1.0000 0.41460  0.96030  0.61010  Biso   1.000  H
  C185     1.0000 0.59690  0.18310  0.61090  Biso   1.000  C
  H123     1.0000 0.61530  0.18890  0.65090  Biso   1.000  H
  C186     1.0000 0.42470  0.69860  0.99300  Biso   1.000  C
  C187     1.0000 0.51770  0.61250  0.99050  Biso   1.000  C
  H124     1.0000 0.49840  0.61520  0.95050  Biso   1.000  H
  C188     1.0000 0.34020  0.94730  0.52980  Biso   1.000  C
  C189     1.0000 0.25690  0.86630  0.00370  Biso   1.000  C
  H125     1.0000 0.23630  0.86680  0.96350  Biso   1.000  H
  C190     1.0000 0.27710  0.91390  0.50070  Biso   1.000  C
  H126     1.0000 0.25430  0.91870  0.46080  Biso   1.000  H
  C191     1.0000 0.34190  0.01430  0.34860  Biso   1.000  C
  C192     1.0000 0.37240  0.02400  0.41220  Biso   1.000  C
  C193     1.0000 0.22840  0.90720  0.03470  Biso   1.000  C
  H127     1.0000 0.18820  0.93460  0.01440  Biso   1.000  H
  C194     1.0000 0.53910  0.13870  0.58450  Biso   1.000  C
  H128     1.0000 0.51880  0.11610  0.60620  Biso   1.000  H
  C195     1.0000 0.31620  0.82450  0.03319  Biso   1.000  C
  C196     1.0000 0.30960  0.75740  0.84800  Biso   1.000  C
  C197     1.0000 0.54280  0.16590  0.49460  Biso   1.000  C
  H129     1.0000 0.52500  0.16250  0.45460  Biso   1.000  H
  C198     1.0000 0.24730  0.79260  0.81900  Biso   1.000  C
  H130     1.0000 0.22330  0.81030  0.83920  Biso   1.000  H
  C199     1.0000 0.24860  0.87340  0.53120  Biso   1.000  C
  H131     1.0000 0.20630  0.85070  0.51090  Biso   1.000  H
  C200     1.0000 0.44990  0.07710  0.49460  Biso   1.000  C
  C201     1.0000 0.51760  0.64230  0.08140  Biso   1.000  C
  H132     1.0000 0.49810  0.66560  0.10360  Biso   1.000  H
  C202     1.0000 0.34160  0.74780  0.91200  Biso   1.000  C
  C203     1.0000 0.22050  0.80150  0.75960  Biso   1.000  C
  H133     1.0000 0.17850  0.82560  0.74050  Biso   1.000  H
  C204     1.0000 0.31330  0.74250  0.75720  Biso   1.000  C
  H134     1.0000 0.33620  0.72460  0.73620  Biso   1.000  H
  C205     1.0000 0.34370  0.73250  0.81630  Biso   1.000  C
  H135     1.0000 0.38620  0.70930  0.83450  Biso   1.000  H
  C206     1.0000 0.33950  0.89570  0.61600  Biso   1.000  C
  H136     1.0000 0.36170  0.88830  0.65570  Biso   1.000  H
  C207     1.0000 0.28820  0.96270  0.32200  Biso   1.000  C
  H137     1.0000 0.27220  0.93230  0.34390  Biso   1.000  H
  C208     1.0000 0.60100  0.20900  0.52540  Biso   1.000  C
  H138     1.0000 0.62240  0.23270  0.50490  Biso   1.000  H
  C209     1.0000 0.25870  0.95660  0.26280  Biso   1.000  C
  H139     1.0000 0.22280  0.92120  0.24550  Biso   1.000  H
  C210     1.0000 0.48730  0.65000  0.02210  Biso   1.000  C
  C211     1.0000 0.51100  0.12760  0.52490  Biso   1.000  C
  C212     1.0000 0.34460  0.82510  0.09260  Biso   1.000  C
  H140     1.0000 0.38390  0.79650  0.11380  Biso   1.000  H
  C213     1.0000 0.57780  0.57090  0.02060  Biso   1.000  C
  H141     1.0000 0.59790  0.54590  0.99950  Biso   1.000  H
  C214     1.0000 0.36630  0.05480  0.31470  Biso   1.000  C
  H142     1.0000 0.40440  0.08700  0.33130  Biso   1.000  H
  C215     1.0000 0.33280  0.04640  0.25570  Biso   1.000  C
  H143     1.0000 0.34890  0.07540  0.23320  Biso   1.000  H
  C216     1.0000 0.31370  0.86900  0.12020  Biso   1.000  C
  H144     1.0000 0.33430  0.87070  0.16030  Biso   1.000  H
  N61      1.0000 0.62838  0.21870  0.58232  Biso   1.000  N
  N62      1.0000 0.27800  0.86490  0.58817  Biso   1.000  N
  N63      1.0000 0.27920  0.99970  0.22868  Biso   1.000  N
  N64      1.0000 0.42550  0.03930  0.52713  Biso   1.000  N
  N65      1.0000 0.34377  0.98250  0.44071  Biso   1.000  N
  N66      1.0000 0.42514  0.07290  0.43713  Biso   1.000  N
  N67      1.0000 0.25580  0.90950  0.09255  Biso   1.000  N
  N68      1.0000 0.25320  0.77660  0.72861  Biso   1.000  N
  N69      1.0000 0.60780  0.56500  0.07791  Biso   1.000  N
  N70      1.0000 0.40231  0.73930  0.02689  Biso   1.000  N
  N71      1.0000 0.31371  0.78740  0.94124  Biso   1.000  N
  N72      1.0000 0.39610  0.70110  0.93543  Biso   1.000  N
  Ag13     1.0000 0.77386  0.79096  0.86821  Biso   1.000  Ag
  Ag14     1.0000 0.29517  0.49830  0.36765  Biso   1.000  Ag
  C217     1.0000 0.15340  0.28010  0.50110  Biso   1.000  C
  C218     1.0000 0.92300  0.09980  0.39250  Biso   1.000  C
  H145     1.0000 0.90330  0.09500  0.35250  Biso   1.000  H
  C219     1.0000 0.12810  0.49290  0.00240  Biso   1.000  C
  C220     1.0000 0.12790  0.43830  0.91110  Biso   1.000  C
  H146     1.0000 0.08540  0.46030  0.88990  Biso   1.000  H
  C221     1.0000 0.90310  0.68310  0.88910  Biso   1.000  C
  H147     1.0000 0.88470  0.68890  0.84910  Biso   1.000  H
  C222     1.0000 0.07530  0.19860  0.50700  Biso   1.000  C
  C223     1.0000 0.98230  0.11250  0.50950  Biso   1.000  C
  H148     1.0000 0.00160  0.11520  0.54950  Biso   1.000  H
  C224     1.0000 0.15980  0.44730  0.97020  Biso   1.000  C
  C225     1.0000 0.24310  0.36630  0.49630  Biso   1.000  C
  H149     1.0000 0.26370  0.36680  0.53650  Biso   1.000  H
  C226     1.0000 0.22290  0.41390  0.99930  Biso   1.000  C
  H150     1.0000 0.24570  0.41870  0.03920  Biso   1.000  H
  C227     1.0000 0.15810  0.51430  0.15140  Biso   1.000  C
  C228     1.0000 0.12760  0.52400  0.08780  Biso   1.000  C
  C229     1.0000 0.27160  0.40720  0.46530  Biso   1.000  C
  H151     1.0000 0.31180  0.43460  0.48560  Biso   1.000  H
  C230     1.0000 0.96090  0.63870  0.91550  Biso   1.000  C
  H152     1.0000 0.98120  0.61610  0.89380  Biso   1.000  H
  C231     1.0000 0.18380  0.32450  0.46681  Biso   1.000  C
  C232     1.0000 0.19040  0.25740  0.65200  Biso   1.000  C
  C233     1.0000 0.95720  0.66590  0.00540  Biso   1.000  C
  H153     1.0000 0.97500  0.66250  0.04540  Biso   1.000  H
  C234     1.0000 0.25270  0.29260  0.68100  Biso   1.000  C
  H154     1.0000 0.27670  0.31030  0.66080  Biso   1.000  H
  C235     1.0000 0.25140  0.37340  0.96880  Biso   1.000  C
  H155     1.0000 0.29370  0.35070  0.98910  Biso   1.000  H
  C236     1.0000 0.05010  0.57710  0.00540  Biso   1.000  C
  C237     1.0000 0.98240  0.14230  0.41860  Biso   1.000  C
  H156     1.0000 0.00190  0.16560  0.39640  Biso   1.000  H
  C238     1.0000 0.15840  0.24780  0.58800  Biso   1.000  C
  C239     1.0000 0.27950  0.30150  0.74040  Biso   1.000  C
  H157     1.0000 0.32150  0.32560  0.75950  Biso   1.000  H
  C240     1.0000 0.18670  0.24250  0.74280  Biso   1.000  C
  H158     1.0000 0.16380  0.22460  0.76380  Biso   1.000  H
  C241     1.0000 0.15630  0.23250  0.68370  Biso   1.000  C
  H159     1.0000 0.11380  0.20930  0.66550  Biso   1.000  H
  C242     1.0000 0.16050  0.39570  0.88400  Biso   1.000  C
  H160     1.0000 0.13830  0.38830  0.84430  Biso   1.000  H
  C243     1.0000 0.21180  0.46270  0.17800  Biso   1.000  C
  H161     1.0000 0.22780  0.43230  0.15610  Biso   1.000  H
  C244     1.0000 0.89900  0.70900  0.97460  Biso   1.000  C
  H162     1.0000 0.87760  0.73270  0.99510  Biso   1.000  H
  C245     1.0000 0.24130  0.45660  0.23720  Biso   1.000  C
  H163     1.0000 0.27720  0.42120  0.25450  Biso   1.000  H
  C246     1.0000 0.01270  0.15000  0.47790  Biso   1.000  C
  C247     1.0000 0.98900  0.62760  0.97510  Biso   1.000  C
  C248     1.0000 0.15540  0.32510  0.40740  Biso   1.000  C
  H164     1.0000 0.11610  0.29650  0.38620  Biso   1.000  H
  C249     1.0000 0.92220  0.07090  0.47940  Biso   1.000  C
  H165     1.0000 0.90210  0.04590  0.50050  Biso   1.000  H
  C250     1.0000 0.13370  0.55480  0.18530  Biso   1.000  C
  H166     1.0000 0.09560  0.58700  0.16870  Biso   1.000  H
  C251     1.0000 0.16720  0.54640  0.24430  Biso   1.000  C
  H167     1.0000 0.15110  0.57540  0.26680  Biso   1.000  H
  C252     1.0000 0.18630  0.36900  0.37980  Biso   1.000  C
  H168     1.0000 0.16570  0.37070  0.33970  Biso   1.000  H
  N73      1.0000 0.87162  0.71870  0.91768  Biso   1.000  N
  N74      1.0000 0.22200  0.36490  0.91183  Biso   1.000  N
  N75      1.0000 0.22080  0.49970  0.27132  Biso   1.000  N
  N76      1.0000 0.07450  0.53930  0.97287  Biso   1.000  N
  N77      1.0000 0.15623  0.48250  0.05929  Biso   1.000  N
  N78      1.0000 0.07486  0.57290  0.06287  Biso   1.000  N
  N79      1.0000 0.24420  0.40950  0.40745  Biso   1.000  N
  N80      1.0000 0.24680  0.27660  0.77139  Biso   1.000  N
  N81      1.0000 0.89220  0.06500  0.42209  Biso   1.000  N
  N82      1.0000 0.09769  0.23930  0.47311  Biso   1.000  N
  N83      1.0000 0.18629  0.28740  0.55876  Biso   1.000  N
  N84      1.0000 0.10390  0.20110  0.56457  Biso   1.000  N
  Ag15     1.0000 0.27386  0.29096  0.86821  Biso   1.000  Ag
  Ag16     1.0000 0.79517  0.99830  0.36765  Biso   1.000  Ag
  C253     1.0000 0.65340  0.78010  0.50110  Biso   1.000  C
  C254     1.0000 0.42300  0.59980  0.39250  Biso   1.000  C
  H169     1.0000 0.40330  0.59500  0.35250  Biso   1.000  H
  C255     1.0000 0.62810  0.99290  0.00240  Biso   1.000  C
  C256     1.0000 0.62790  0.93830  0.91110  Biso   1.000  C
  H170     1.0000 0.58540  0.96030  0.88990  Biso   1.000  H
  C257     1.0000 0.40310  0.18310  0.88910  Biso   1.000  C
  H171     1.0000 0.38470  0.18890  0.84910  Biso   1.000  H
  C258     1.0000 0.57530  0.69860  0.50700  Biso   1.000  C
  C259     1.0000 0.48230  0.61250  0.50950  Biso   1.000  C
  H172     1.0000 0.50160  0.61520  0.54950  Biso   1.000  H
  C260     1.0000 0.65980  0.94730  0.97020  Biso   1.000  C
  C261     1.0000 0.74310  0.86630  0.49630  Biso   1.000  C
  H173     1.0000 0.76370  0.86680  0.53650  Biso   1.000  H
  C262     1.0000 0.72290  0.91390  0.99930  Biso   1.000  C
  H174     1.0000 0.74570  0.91870  0.03920  Biso   1.000  H
  C263     1.0000 0.65810  0.01430  0.15140  Biso   1.000  C
  C264     1.0000 0.62760  0.02400  0.08780  Biso   1.000  C
  C265     1.0000 0.77160  0.90720  0.46530  Biso   1.000  C
  H175     1.0000 0.81180  0.93460  0.48560  Biso   1.000  H
  C266     1.0000 0.46090  0.13870  0.91550  Biso   1.000  C
  H176     1.0000 0.48120  0.11610  0.89380  Biso   1.000  H
  C267     1.0000 0.68380  0.82450  0.46681  Biso   1.000  C
  C268     1.0000 0.69040  0.75740  0.65200  Biso   1.000  C
  C269     1.0000 0.45720  0.16590  0.00540  Biso   1.000  C
  H177     1.0000 0.47500  0.16250  0.04540  Biso   1.000  H
  C270     1.0000 0.75270  0.79260  0.68100  Biso   1.000  C
  H178     1.0000 0.77670  0.81030  0.66080  Biso   1.000  H
  C271     1.0000 0.75140  0.87340  0.96880  Biso   1.000  C
  H179     1.0000 0.79370  0.85070  0.98910  Biso   1.000  H
  C272     1.0000 0.55010  0.07710  0.00540  Biso   1.000  C
  C273     1.0000 0.48240  0.64230  0.41860  Biso   1.000  C
  H180     1.0000 0.50190  0.66560  0.39640  Biso   1.000  H
  C274     1.0000 0.65840  0.74780  0.58800  Biso   1.000  C
  C275     1.0000 0.77950  0.80150  0.74040  Biso   1.000  C
  H181     1.0000 0.82150  0.82560  0.75950  Biso   1.000  H
  C276     1.0000 0.68670  0.74250  0.74280  Biso   1.000  C
  H182     1.0000 0.66380  0.72460  0.76380  Biso   1.000  H
  C277     1.0000 0.65630  0.73250  0.68370  Biso   1.000  C
  H183     1.0000 0.61380  0.70930  0.66550  Biso   1.000  H
  C278     1.0000 0.66050  0.89570  0.88400  Biso   1.000  C
  H184     1.0000 0.63830  0.88830  0.84430  Biso   1.000  H
  C279     1.0000 0.71180  0.96270  0.17800  Biso   1.000  C
  H185     1.0000 0.72780  0.93230  0.15610  Biso   1.000  H
  C280     1.0000 0.39900  0.20900  0.97460  Biso   1.000  C
  H186     1.0000 0.37760  0.23270  0.99510  Biso   1.000  H
  C281     1.0000 0.74130  0.95660  0.23720  Biso   1.000  C
  H187     1.0000 0.77720  0.92120  0.25450  Biso   1.000  H
  C282     1.0000 0.51270  0.65000  0.47790  Biso   1.000  C
  C283     1.0000 0.48900  0.12760  0.97510  Biso   1.000  C
  C284     1.0000 0.65540  0.82510  0.40740  Biso   1.000  C
  H188     1.0000 0.61610  0.79650  0.38620  Biso   1.000  H
  C285     1.0000 0.42220  0.57090  0.47940  Biso   1.000  C
  H189     1.0000 0.40210  0.54590  0.50050  Biso   1.000  H
  C286     1.0000 0.63370  0.05480  0.18530  Biso   1.000  C
  H190     1.0000 0.59560  0.08700  0.16870  Biso   1.000  H
  C287     1.0000 0.66720  0.04640  0.24430  Biso   1.000  C
  H191     1.0000 0.65110  0.07540  0.26680  Biso   1.000  H
  C288     1.0000 0.68630  0.86900  0.37980  Biso   1.000  C
  H192     1.0000 0.66570  0.87070  0.33970  Biso   1.000  H
  N85      1.0000 0.37162  0.21870  0.91768  Biso   1.000  N
  N86      1.0000 0.72200  0.86490  0.91183  Biso   1.000  N
  N87      1.0000 0.72080  0.99970  0.27132  Biso   1.000  N
  N88      1.0000 0.57450  0.03930  0.97287  Biso   1.000  N
  N89      1.0000 0.65623  0.98250  0.05929  Biso   1.000  N
  N90      1.0000 0.57486  0.07290  0.06287  Biso   1.000  N
  N91      1.0000 0.74420  0.90950  0.40745  Biso   1.000  N
  N92      1.0000 0.74680  0.77660  0.77139  Biso   1.000  N
  N93      1.0000 0.39220  0.56500  0.42209  Biso   1.000  N
  N94      1.0000 0.59769  0.73930  0.47311  Biso   1.000  N
  N95      1.0000 0.68629  0.78740  0.55876  Biso   1.000  N
  N96      1.0000 0.60390  0.70110  0.56457  Biso   1.000  N
