data_image0
_cell_length_a       9.4044
_cell_length_b       13.1257
_cell_length_c       19.8899
_cell_angle_alpha    109.266
_cell_angle_beta     102.466
_cell_angle_gamma    90

_symmetry_space_group_name_H-M    P 1
_symmetry_int_tables_number       1

loop_
  _symmetry_equiv_pos_as_xyz
  'x, y, z'

loop_
  _atom_site_label
  _atom_site_occupancy
  _atom_site_fract_x
  _atom_site_fract_y
  _atom_site_fract_z
  _atom_site_thermal_displace_type
  _atom_site_B_iso_or_equiv
  _atom_site_type_symbol
  Co1      1.0000 0.17572  0.14290  0.72502  Biso   1.000  Co
  Co2      1.0000 0.32428  0.41788  0.27498  Biso   1.000  Co
  Co3      1.0000 0.82428  0.85710  0.27498  Biso   1.000  Co
  Co4      1.0000 0.67572  0.58212  0.72502  Biso   1.000  Co
  H1       1.0000 0.85930  0.17540  0.74240  Biso   1.000  H
  H2       1.0000 0.62350  0.13220  0.67580  Biso   1.000  H
  H3       1.0000 0.77980  0.97950  0.49780  Biso   1.000  H
  H4       1.0000 0.01030  0.02680  0.56960  Biso   1.000  H
  H5       1.0000 0.15040  0.23030  0.88700  Biso   1.000  H
  H6       1.0000 0.08760  0.17390  0.97460  Biso   1.000  H
  H7       1.0000 0.02130  0.87230  0.83180  Biso   1.000  H
  H8       1.0000 0.07860  0.93730  0.74680  Biso   1.000  H
  H9       1.0000 0.44680  0.04370  0.56180  Biso   1.000  H
  H10      1.0000 0.98090  0.89690  0.95080  Biso   1.000  H
  H11      1.0000 0.44150  0.30970  0.58160  Biso   1.000  H
  H12      1.0000 0.16060  0.21200  0.52080  Biso   1.000  H
  H13      1.0000 0.05980  0.21220  0.39460  Biso   1.000  H
  H14      1.0000 0.34590  0.29780  0.45300  Biso   1.000  H
  H15      1.0000 0.43600  0.22820  0.77120  Biso   1.000  H
  H16      1.0000 0.44400  0.12360  0.77460  Biso   1.000  H
  H17      1.0000 0.07400  0.32790  0.74140  Biso   1.000  H
  H18      1.0000 0.20880  0.34880  0.79200  Biso   1.000  H
  H19      1.0000 0.64070  0.43300  0.25760  Biso   1.000  H
  H20      1.0000 0.87650  0.45640  0.32420  Biso   1.000  H
  H21      1.0000 0.72020  0.48170  0.50220  Biso   1.000  H
  H22      1.0000 0.48970  0.45720  0.43040  Biso   1.000  H
  H23      1.0000 0.34960  0.34330  0.11300  Biso   1.000  H
  H24      1.0000 0.41240  0.19930  0.02540  Biso   1.000  H
  H25      1.0000 0.47870  0.04050  0.16820  Biso   1.000  H
  H26      1.0000 0.42140  0.19050  0.25320  Biso   1.000  H
  H27      1.0000 0.05320  0.48190  0.43820  Biso   1.000  H
  H28      1.0000 0.51910  0.94610  0.04920  Biso   1.000  H
  H29      1.0000 0.05850  0.72810  0.41840  Biso   1.000  H
  H30      1.0000 0.33940  0.69120  0.47920  Biso   1.000  H
  H31      1.0000 0.44020  0.81760  0.60540  Biso   1.000  H
  H32      1.0000 0.15410  0.84480  0.54700  Biso   1.000  H
  H33      1.0000 0.06400  0.45700  0.22880  Biso   1.000  H
  H34      1.0000 0.05600  0.34900  0.22540  Biso   1.000  H
  H35      1.0000 0.42600  0.58650  0.25860  Biso   1.000  H
  H36      1.0000 0.29120  0.55680  0.20800  Biso   1.000  H
  H37      1.0000 0.14070  0.82460  0.25760  Biso   1.000  H
  H38      1.0000 0.37650  0.86780  0.32420  Biso   1.000  H
  H39      1.0000 0.22020  0.02050  0.50220  Biso   1.000  H
  H40      1.0000 0.98970  0.97320  0.43040  Biso   1.000  H
  H41      1.0000 0.84960  0.76970  0.11300  Biso   1.000  H
  H42      1.0000 0.91240  0.82610  0.02540  Biso   1.000  H
  H43      1.0000 0.97870  0.12770  0.16820  Biso   1.000  H
  H44      1.0000 0.92140  0.06270  0.25320  Biso   1.000  H
  H45      1.0000 0.55320  0.95630  0.43820  Biso   1.000  H
  H46      1.0000 0.01910  0.10310  0.04920  Biso   1.000  H
  H47      1.0000 0.55850  0.69030  0.41840  Biso   1.000  H
  H48      1.0000 0.83940  0.78800  0.47920  Biso   1.000  H
  H49      1.0000 0.94020  0.78780  0.60540  Biso   1.000  H
  H50      1.0000 0.65410  0.70220  0.54700  Biso   1.000  H
  H51      1.0000 0.56400  0.77180  0.22880  Biso   1.000  H
  H52      1.0000 0.55600  0.87640  0.22540  Biso   1.000  H
  H53      1.0000 0.92600  0.67210  0.25860  Biso   1.000  H
  H54      1.0000 0.79120  0.65120  0.20800  Biso   1.000  H
  H55      1.0000 0.35930  0.56700  0.74240  Biso   1.000  H
  H56      1.0000 0.12350  0.54360  0.67580  Biso   1.000  H
  H57      1.0000 0.27980  0.51830  0.49780  Biso   1.000  H
  H58      1.0000 0.51030  0.54280  0.56960  Biso   1.000  H
  H59      1.0000 0.65040  0.65670  0.88700  Biso   1.000  H
  H60      1.0000 0.58760  0.80070  0.97460  Biso   1.000  H
  H61      1.0000 0.52130  0.95950  0.83180  Biso   1.000  H
  H62      1.0000 0.57860  0.80950  0.74680  Biso   1.000  H
  H63      1.0000 0.94680  0.51810  0.56180  Biso   1.000  H
  H64      1.0000 0.48090  0.05390  0.95080  Biso   1.000  H
  H65      1.0000 0.94150  0.27190  0.58160  Biso   1.000  H
  H66      1.0000 0.66060  0.30880  0.52080  Biso   1.000  H
  H67      1.0000 0.55980  0.18240  0.39460  Biso   1.000  H
  H68      1.0000 0.84590  0.15520  0.45300  Biso   1.000  H
  H69      1.0000 0.93600  0.54300  0.77120  Biso   1.000  H
  H70      1.0000 0.94400  0.65100  0.77460  Biso   1.000  H
  H71      1.0000 0.57400  0.41350  0.74140  Biso   1.000  H
  H72      1.0000 0.70880  0.44320  0.79200  Biso   1.000  H
  C1       1.0000 0.84240  0.13534  0.69228  Biso   1.000  C
  C2       1.0000 0.70080  0.10973  0.65266  Biso   1.000  C
  C3       1.0000 0.67120  0.05040  0.57814  Biso   1.000  C
  C4       1.0000 0.79310  0.01966  0.54772  Biso   1.000  C
  C5       1.0000 0.93060  0.04846  0.59112  Biso   1.000  C
  C6       1.0000 0.12260  0.15651  0.87522  Biso   1.000  C
  C7       1.0000 0.08570  0.12323  0.92826  Biso   1.000  C
  C8       1.0000 0.04590  0.01562  0.91364  Biso   1.000  C
  C9       1.0000 0.04600  0.94665  0.84450  Biso   1.000  C
  C10      1.0000 0.08190  0.98616  0.79392  Biso   1.000  C
  C11      1.0000 0.52080  0.02434  0.53588  Biso   1.000  C
  C12      1.0000 0.00410  0.97208  0.96656  Biso   1.000  C
  C13      1.0000 0.33920  0.25281  0.64806  Biso   1.000  C
  C14      1.0000 0.35380  0.27492  0.58112  Biso   1.000  C
  C15      1.0000 0.24730  0.24738  0.52052  Biso   1.000  C
  C16      1.0000 0.15650  0.28292  0.33284  Biso   1.000  C
  C17      1.0000 0.14680  0.24897  0.39614  Biso   1.000  C
  C18      1.0000 0.25620  0.26828  0.45460  Biso   1.000  C
  C19      1.0000 0.65760  0.44306  0.30772  Biso   1.000  C
  C20      1.0000 0.79920  0.45707  0.34734  Biso   1.000  C
  C21      1.0000 0.82880  0.47226  0.42186  Biso   1.000  C
  C22      1.0000 0.70690  0.47194  0.45228  Biso   1.000  C
  C23      1.0000 0.56940  0.45734  0.40888  Biso   1.000  C
  C24      1.0000 0.37740  0.28129  0.12478  Biso   1.000  C
  C25      1.0000 0.41430  0.19497  0.07174  Biso   1.000  C
  C26      1.0000 0.45410  0.10198  0.08636  Biso   1.000  C
  C27      1.0000 0.45400  0.10215  0.15550  Biso   1.000  C
  C28      1.0000 0.41810  0.19224  0.20608  Biso   1.000  C
  C29      1.0000 0.97920  0.48846  0.46412  Biso   1.000  C
  C30      1.0000 0.49590  0.00552  0.03344  Biso   1.000  C
  C31      1.0000 0.16080  0.60475  0.35194  Biso   1.000  C
  C32      1.0000 0.14620  0.69380  0.41888  Biso   1.000  C
  C33      1.0000 0.25270  0.72686  0.47948  Biso   1.000  C
  C34      1.0000 0.34350  0.95008  0.66716  Biso   1.000  C
  C35      1.0000 0.35320  0.85283  0.60386  Biso   1.000  C
  C36      1.0000 0.24380  0.81368  0.54540  Biso   1.000  C
  C37      1.0000 0.15760  0.86466  0.30772  Biso   1.000  C
  C38      1.0000 0.29920  0.89027  0.34734  Biso   1.000  C
  C39      1.0000 0.32880  0.94960  0.42186  Biso   1.000  C
  C40      1.0000 0.20690  0.98034  0.45228  Biso   1.000  C
  C41      1.0000 0.06940  0.95154  0.40888  Biso   1.000  C
  C42      1.0000 0.87740  0.84349  0.12478  Biso   1.000  C
  C43      1.0000 0.91430  0.87677  0.07174  Biso   1.000  C
  C44      1.0000 0.95410  0.98438  0.08636  Biso   1.000  C
  C45      1.0000 0.95400  0.05335  0.15550  Biso   1.000  C
  C46      1.0000 0.91810  0.01384  0.20608  Biso   1.000  C
  C47      1.0000 0.47920  0.97566  0.46412  Biso   1.000  C
  C48      1.0000 0.99590  0.02792  0.03344  Biso   1.000  C
  C49      1.0000 0.66080  0.74719  0.35194  Biso   1.000  C
  C50      1.0000 0.64620  0.72508  0.41888  Biso   1.000  C
  C51      1.0000 0.75270  0.75262  0.47948  Biso   1.000  C
  C52      1.0000 0.84350  0.71708  0.66716  Biso   1.000  C
  C53      1.0000 0.85320  0.75103  0.60386  Biso   1.000  C
  C54      1.0000 0.74380  0.73172  0.54540  Biso   1.000  C
  C55      1.0000 0.34240  0.55694  0.69228  Biso   1.000  C
  C56      1.0000 0.20080  0.54293  0.65266  Biso   1.000  C
  C57      1.0000 0.17120  0.52774  0.57814  Biso   1.000  C
  C58      1.0000 0.29310  0.52806  0.54772  Biso   1.000  C
  C59      1.0000 0.43060  0.54266  0.59112  Biso   1.000  C
  C60      1.0000 0.62260  0.71871  0.87522  Biso   1.000  C
  C61      1.0000 0.58570  0.80503  0.92826  Biso   1.000  C
  C62      1.0000 0.54590  0.89802  0.91364  Biso   1.000  C
  C63      1.0000 0.54600  0.89785  0.84450  Biso   1.000  C
  C64      1.0000 0.58190  0.80776  0.79392  Biso   1.000  C
  C65      1.0000 0.02080  0.51154  0.53588  Biso   1.000  C
  C66      1.0000 0.50410  0.99448  0.96656  Biso   1.000  C
  C67      1.0000 0.83920  0.39525  0.64806  Biso   1.000  C
  C68      1.0000 0.85380  0.30620  0.58112  Biso   1.000  C
  C69      1.0000 0.74730  0.27314  0.52052  Biso   1.000  C
  C70      1.0000 0.65650  0.04992  0.33284  Biso   1.000  C
  C71      1.0000 0.64680  0.14717  0.39614  Biso   1.000  C
  C72      1.0000 0.75620  0.18632  0.45460  Biso   1.000  C
  N1       1.0000 0.95820  0.10592  0.66276  Biso   1.000  N
  N2       1.0000 0.12110  0.09006  0.80810  Biso   1.000  N
  N3       1.0000 0.54180  0.44316  0.33724  Biso   1.000  N
  N4       1.0000 0.37890  0.28196  0.19190  Biso   1.000  N
  N5       1.0000 0.04180  0.89408  0.33724  Biso   1.000  N
  N6       1.0000 0.87890  0.90994  0.19190  Biso   1.000  N
  N7       1.0000 0.45820  0.55684  0.66276  Biso   1.000  N
  N8       1.0000 0.62110  0.71804  0.80810  Biso   1.000  N
  O1       1.0000 0.23120  0.19241  0.64374  Biso   1.000  O
  O2       1.0000 0.43850  0.29466  0.70520  Biso   1.000  O
  O3       1.0000 0.27940  0.32141  0.33264  Biso   1.000  O
  O4       1.0000 0.04020  0.27510  0.28526  Biso   1.000  O
  O5       1.0000 0.39720  0.18388  0.78978  Biso   1.000  O
  O6       1.0000 0.12590  0.30617  0.77680  Biso   1.000  O
  O7       1.0000 0.26880  0.54867  0.35626  Biso   1.000  O
  O8       1.0000 0.06150  0.58946  0.29480  Biso   1.000  O
  O9       1.0000 0.22060  0.98877  0.66736  Biso   1.000  O
  O10      1.0000 0.45980  0.98984  0.71474  Biso   1.000  O
  O11      1.0000 0.10280  0.39410  0.21022  Biso   1.000  O
  O12      1.0000 0.37410  0.52937  0.22320  Biso   1.000  O
  O13      1.0000 0.76880  0.80759  0.35626  Biso   1.000  O
  O14      1.0000 0.56150  0.70534  0.29480  Biso   1.000  O
  O15      1.0000 0.72060  0.67859  0.66736  Biso   1.000  O
  O16      1.0000 0.95980  0.72490  0.71474  Biso   1.000  O
  O17      1.0000 0.60280  0.81612  0.21022  Biso   1.000  O
  O18      1.0000 0.87410  0.69383  0.22320  Biso   1.000  O
  O19      1.0000 0.73120  0.45133  0.64374  Biso   1.000  O
  O20      1.0000 0.93850  0.41054  0.70520  Biso   1.000  O
  O21      1.0000 0.77940  0.01123  0.33264  Biso   1.000  O
  O22      1.0000 0.54020  0.01016  0.28526  Biso   1.000  O
  O23      1.0000 0.89720  0.60590  0.78978  Biso   1.000  O
  O24      1.0000 0.62590  0.47063  0.77680  Biso   1.000  O
