data_image0
_cell_length_a       13.717
_cell_length_b       14.7878
_cell_length_c       21.0282
_cell_angle_alpha    90
_cell_angle_beta     90
_cell_angle_gamma    90

_symmetry_space_group_name_H-M    P 1
_symmetry_int_tables_number       1

loop_
  _symmetry_equiv_pos_as_xyz
  'x, y, z'

loop_
  _atom_site_label
  _atom_site_occupancy
  _atom_site_fract_x
  _atom_site_fract_y
  _atom_site_fract_z
  _atom_site_thermal_displace_type
  _atom_site_B_iso_or_equiv
  _atom_site_type_symbol
  Co1      1.0000 0.53092  0.90024  0.56194  Biso   1.000  Co
  Co2      1.0000 0.46908  0.40024  0.93806  Biso   1.000  Co
  Co3      1.0000 0.46908  0.09976  0.43806  Biso   1.000  Co
  Co4      1.0000 0.53092  0.59976  0.06194  Biso   1.000  Co
  H1       1.0000 0.34890  0.96770  0.63380  Biso   1.000  H
  H2       1.0000 0.18280  0.97070  0.62920  Biso   1.000  H
  H3       1.0000 0.19720  0.82500  0.46770  Biso   1.000  H
  H4       1.0000 0.36320  0.82510  0.47770  Biso   1.000  H
  H5       1.0000 0.69300  0.97160  0.64880  Biso   1.000  H
  H6       1.0000 0.85880  0.98210  0.65860  Biso   1.000  H
  H7       1.0000 0.88400  0.85830  0.48910  Biso   1.000  H
  H8       1.0000 0.71760  0.85220  0.48420  Biso   1.000  H
  H9       1.0000 0.03890  0.86750  0.50340  Biso   1.000  H
  H10      1.0000 0.02210  0.95560  0.61850  Biso   1.000  H
  H11      1.0000 0.51710  0.63770  0.67740  Biso   1.000  H
  H12      1.0000 0.53030  0.77710  0.76490  Biso   1.000  H
  H13      1.0000 0.52950  0.73070  0.87510  Biso   1.000  H
  H14      1.0000 0.50790  0.58880  0.79100  Biso   1.000  H
  H15      1.0000 0.65110  0.46770  0.86620  Biso   1.000  H
  H16      1.0000 0.81720  0.47070  0.87080  Biso   1.000  H
  H17      1.0000 0.80280  0.32500  0.03230  Biso   1.000  H
  H18      1.0000 0.63680  0.32510  0.02230  Biso   1.000  H
  H19      1.0000 0.30700  0.47160  0.85120  Biso   1.000  H
  H20      1.0000 0.14120  0.48210  0.84140  Biso   1.000  H
  H21      1.0000 0.11600  0.35830  0.01090  Biso   1.000  H
  H22      1.0000 0.28240  0.35220  0.01580  Biso   1.000  H
  H23      1.0000 0.96110  0.36750  0.99660  Biso   1.000  H
  H24      1.0000 0.97790  0.45560  0.88150  Biso   1.000  H
  H25      1.0000 0.48290  0.13770  0.82260  Biso   1.000  H
  H26      1.0000 0.46970  0.27710  0.73510  Biso   1.000  H
  H27      1.0000 0.47050  0.23070  0.62490  Biso   1.000  H
  H28      1.0000 0.49210  0.08880  0.70900  Biso   1.000  H
  H29      1.0000 0.65110  0.03230  0.36620  Biso   1.000  H
  H30      1.0000 0.81720  0.02930  0.37080  Biso   1.000  H
  H31      1.0000 0.80280  0.17500  0.53230  Biso   1.000  H
  H32      1.0000 0.63680  0.17490  0.52230  Biso   1.000  H
  H33      1.0000 0.30700  0.02840  0.35120  Biso   1.000  H
  H34      1.0000 0.14120  0.01790  0.34140  Biso   1.000  H
  H35      1.0000 0.11600  0.14170  0.51090  Biso   1.000  H
  H36      1.0000 0.28240  0.14780  0.51580  Biso   1.000  H
  H37      1.0000 0.96110  0.13250  0.49660  Biso   1.000  H
  H38      1.0000 0.97790  0.04440  0.38150  Biso   1.000  H
  H39      1.0000 0.48290  0.36230  0.32260  Biso   1.000  H
  H40      1.0000 0.46970  0.22290  0.23510  Biso   1.000  H
  H41      1.0000 0.47050  0.26930  0.12490  Biso   1.000  H
  H42      1.0000 0.49210  0.41120  0.20900  Biso   1.000  H
  H43      1.0000 0.34890  0.53230  0.13380  Biso   1.000  H
  H44      1.0000 0.18280  0.52930  0.12920  Biso   1.000  H
  H45      1.0000 0.19720  0.67500  0.96770  Biso   1.000  H
  H46      1.0000 0.36320  0.67490  0.97770  Biso   1.000  H
  H47      1.0000 0.69300  0.52840  0.14880  Biso   1.000  H
  H48      1.0000 0.85880  0.51790  0.15860  Biso   1.000  H
  H49      1.0000 0.88400  0.64170  0.98910  Biso   1.000  H
  H50      1.0000 0.71760  0.64780  0.98420  Biso   1.000  H
  H51      1.0000 0.03890  0.63250  0.00340  Biso   1.000  H
  H52      1.0000 0.02210  0.54440  0.11850  Biso   1.000  H
  H53      1.0000 0.51710  0.86230  0.17740  Biso   1.000  H
  H54      1.0000 0.53030  0.72290  0.26490  Biso   1.000  H
  H55      1.0000 0.52950  0.76930  0.37510  Biso   1.000  H
  H56      1.0000 0.50790  0.91120  0.29100  Biso   1.000  H
  C1       1.0000 0.31790  0.93860  0.59960  Biso   1.000  C
  C2       1.0000 0.21820  0.94060  0.59730  Biso   1.000  C
  C3       1.0000 0.16910  0.89780  0.54750  Biso   1.000  C
  C4       1.0000 0.22640  0.85470  0.50230  Biso   1.000  C
  C5       1.0000 0.32620  0.85570  0.50860  Biso   1.000  C
  C6       1.0000 0.73220  0.94790  0.61610  Biso   1.000  C
  C7       1.0000 0.83170  0.95470  0.62230  Biso   1.000  C
  C8       1.0000 0.89240  0.92110  0.57480  Biso   1.000  C
  C9       1.0000 0.84670  0.88210  0.52270  Biso   1.000  C
  C10      1.0000 0.74660  0.87830  0.52030  Biso   1.000  C
  C11      1.0000 0.06340  0.89470  0.54050  Biso   1.000  C
  C12      1.0000 0.99810  0.92690  0.58190  Biso   1.000  C
  C13      1.0000 0.52640  0.76940  0.64120  Biso   1.000  C
  C14      1.0000 0.52170  0.69830  0.69040  Biso   1.000  C
  C15      1.0000 0.52360  0.71630  0.75270  Biso   1.000  C
  C16      1.0000 0.51180  0.60200  0.91590  Biso   1.000  C
  C17      1.0000 0.52050  0.66980  0.86370  Biso   1.000  C
  C18      1.0000 0.51620  0.64970  0.80260  Biso   1.000  C
  C19      1.0000 0.68210  0.43860  0.90040  Biso   1.000  C
  C20      1.0000 0.78180  0.44060  0.90270  Biso   1.000  C
  C21      1.0000 0.83090  0.39780  0.95250  Biso   1.000  C
  C22      1.0000 0.77360  0.35470  0.99770  Biso   1.000  C
  C23      1.0000 0.67380  0.35570  0.99140  Biso   1.000  C
  C24      1.0000 0.26780  0.44790  0.88390  Biso   1.000  C
  C25      1.0000 0.16830  0.45470  0.87770  Biso   1.000  C
  C26      1.0000 0.10760  0.42110  0.92520  Biso   1.000  C
  C27      1.0000 0.15330  0.38210  0.97730  Biso   1.000  C
  C28      1.0000 0.25340  0.37830  0.97970  Biso   1.000  C
  C29      1.0000 0.93660  0.39470  0.95950  Biso   1.000  C
  C30      1.0000 0.00190  0.42690  0.91810  Biso   1.000  C
  C31      1.0000 0.47360  0.26940  0.85880  Biso   1.000  C
  C32      1.0000 0.47830  0.19830  0.80960  Biso   1.000  C
  C33      1.0000 0.47640  0.21630  0.74730  Biso   1.000  C
  C34      1.0000 0.48820  0.10200  0.58410  Biso   1.000  C
  C35      1.0000 0.47950  0.16980  0.63630  Biso   1.000  C
  C36      1.0000 0.48380  0.14970  0.69740  Biso   1.000  C
  C37      1.0000 0.68210  0.06140  0.40040  Biso   1.000  C
  C38      1.0000 0.78180  0.05940  0.40270  Biso   1.000  C
  C39      1.0000 0.83090  0.10220  0.45250  Biso   1.000  C
  C40      1.0000 0.77360  0.14530  0.49770  Biso   1.000  C
  C41      1.0000 0.67380  0.14430  0.49140  Biso   1.000  C
  C42      1.0000 0.26780  0.05210  0.38390  Biso   1.000  C
  C43      1.0000 0.16830  0.04530  0.37770  Biso   1.000  C
  C44      1.0000 0.10760  0.07890  0.42520  Biso   1.000  C
  C45      1.0000 0.15330  0.11790  0.47730  Biso   1.000  C
  C46      1.0000 0.25340  0.12170  0.47970  Biso   1.000  C
  C47      1.0000 0.93660  0.10530  0.45950  Biso   1.000  C
  C48      1.0000 0.00190  0.07310  0.41810  Biso   1.000  C
  C49      1.0000 0.47360  0.23060  0.35880  Biso   1.000  C
  C50      1.0000 0.47830  0.30170  0.30960  Biso   1.000  C
  C51      1.0000 0.47640  0.28370  0.24730  Biso   1.000  C
  C52      1.0000 0.48820  0.39800  0.08410  Biso   1.000  C
  C53      1.0000 0.47950  0.33020  0.13630  Biso   1.000  C
  C54      1.0000 0.48380  0.35030  0.19740  Biso   1.000  C
  C55      1.0000 0.31790  0.56140  0.09960  Biso   1.000  C
  C56      1.0000 0.21820  0.55940  0.09730  Biso   1.000  C
  C57      1.0000 0.16910  0.60220  0.04750  Biso   1.000  C
  C58      1.0000 0.22640  0.64530  0.00230  Biso   1.000  C
  C59      1.0000 0.32620  0.64430  0.00860  Biso   1.000  C
  C60      1.0000 0.73220  0.55210  0.11610  Biso   1.000  C
  C61      1.0000 0.83170  0.54530  0.12230  Biso   1.000  C
  C62      1.0000 0.89240  0.57890  0.07480  Biso   1.000  C
  C63      1.0000 0.84670  0.61790  0.02270  Biso   1.000  C
  C64      1.0000 0.74660  0.62170  0.02030  Biso   1.000  C
  C65      1.0000 0.06340  0.60530  0.04050  Biso   1.000  C
  C66      1.0000 0.99810  0.57310  0.08190  Biso   1.000  C
  C67      1.0000 0.52640  0.73060  0.14120  Biso   1.000  C
  C68      1.0000 0.52170  0.80170  0.19040  Biso   1.000  C
  C69      1.0000 0.52360  0.78370  0.25270  Biso   1.000  C
  C70      1.0000 0.51180  0.89800  0.41590  Biso   1.000  C
  C71      1.0000 0.52050  0.83020  0.36370  Biso   1.000  C
  C72      1.0000 0.51620  0.85030  0.30260  Biso   1.000  C
  N1       1.0000 0.37430  0.89750  0.55577  Biso   1.000  N
  N2       1.0000 0.68790  0.90960  0.56612  Biso   1.000  N
  N3       1.0000 0.62570  0.39750  0.94423  Biso   1.000  N
  N4       1.0000 0.31210  0.40960  0.93388  Biso   1.000  N
  N5       1.0000 0.62570  0.10250  0.44423  Biso   1.000  N
  N6       1.0000 0.31210  0.09040  0.43388  Biso   1.000  N
  N7       1.0000 0.37430  0.60250  0.05577  Biso   1.000  N
  N8       1.0000 0.68790  0.59040  0.06612  Biso   1.000  N
  O1       1.0000 0.52590  0.85230  0.65760  Biso   1.000  O
  O2       1.0000 0.52950  0.74890  0.58352  Biso   1.000  O
  O3       1.0000 0.54440  0.62710  0.96885  Biso   1.000  O
  O4       1.0000 0.47350  0.52790  0.90312  Biso   1.000  O
  O5       1.0000 0.47410  0.35230  0.84240  Biso   1.000  O
  O6       1.0000 0.47050  0.24890  0.91648  Biso   1.000  O
  O7       1.0000 0.45560  0.12710  0.53115  Biso   1.000  O
  O8       1.0000 0.52650  0.02790  0.59688  Biso   1.000  O
  O9       1.0000 0.47410  0.14770  0.34240  Biso   1.000  O
  O10      1.0000 0.47050  0.25110  0.41648  Biso   1.000  O
  O11      1.0000 0.45560  0.37290  0.03115  Biso   1.000  O
  O12      1.0000 0.52650  0.47210  0.09688  Biso   1.000  O
  O13      1.0000 0.52590  0.64770  0.15760  Biso   1.000  O
  O14      1.0000 0.52950  0.75110  0.08352  Biso   1.000  O
  O15      1.0000 0.54440  0.87290  0.46885  Biso   1.000  O
  O16      1.0000 0.47350  0.97210  0.40312  Biso   1.000  O
  Co5      1.0000 0.96908  0.09976  0.06194  Biso   1.000  Co
  Co6      1.0000 0.03092  0.59976  0.43806  Biso   1.000  Co
  Co7      1.0000 0.03092  0.90024  0.93806  Biso   1.000  Co
  Co8      1.0000 0.96908  0.40024  0.56194  Biso   1.000  Co
  H57      1.0000 0.15110  0.03230  0.13380  Biso   1.000  H
  H58      1.0000 0.31720  0.02930  0.12920  Biso   1.000  H
  H59      1.0000 0.30280  0.17500  0.96770  Biso   1.000  H
  H60      1.0000 0.13680  0.17490  0.97770  Biso   1.000  H
  H61      1.0000 0.80700  0.02840  0.14880  Biso   1.000  H
  H62      1.0000 0.64120  0.01790  0.15860  Biso   1.000  H
  H63      1.0000 0.61600  0.14170  0.98910  Biso   1.000  H
  H64      1.0000 0.78240  0.14780  0.98420  Biso   1.000  H
  H65      1.0000 0.46110  0.13250  0.00340  Biso   1.000  H
  H66      1.0000 0.47790  0.04440  0.11850  Biso   1.000  H
  H67      1.0000 0.98290  0.36230  0.17740  Biso   1.000  H
  H68      1.0000 0.96970  0.22290  0.26490  Biso   1.000  H
  H69      1.0000 0.97050  0.26930  0.37510  Biso   1.000  H
  H70      1.0000 0.99210  0.41120  0.29100  Biso   1.000  H
  H71      1.0000 0.84890  0.53230  0.36620  Biso   1.000  H
  H72      1.0000 0.68280  0.52930  0.37080  Biso   1.000  H
  H73      1.0000 0.69720  0.67500  0.53230  Biso   1.000  H
  H74      1.0000 0.86320  0.67490  0.52230  Biso   1.000  H
  H75      1.0000 0.19300  0.52840  0.35120  Biso   1.000  H
  H76      1.0000 0.35880  0.51790  0.34140  Biso   1.000  H
  H77      1.0000 0.38400  0.64170  0.51090  Biso   1.000  H
  H78      1.0000 0.21760  0.64780  0.51580  Biso   1.000  H
  H79      1.0000 0.53890  0.63250  0.49660  Biso   1.000  H
  H80      1.0000 0.52210  0.54440  0.38150  Biso   1.000  H
  H81      1.0000 0.01710  0.86230  0.32260  Biso   1.000  H
  H82      1.0000 0.03030  0.72290  0.23510  Biso   1.000  H
  H83      1.0000 0.02950  0.76930  0.12490  Biso   1.000  H
  H84      1.0000 0.00790  0.91120  0.20900  Biso   1.000  H
  H85      1.0000 0.84890  0.96770  0.86620  Biso   1.000  H
  H86      1.0000 0.68280  0.97070  0.87080  Biso   1.000  H
  H87      1.0000 0.69720  0.82500  0.03230  Biso   1.000  H
  H88      1.0000 0.86320  0.82510  0.02230  Biso   1.000  H
  H89      1.0000 0.19300  0.97160  0.85120  Biso   1.000  H
  H90      1.0000 0.35880  0.98210  0.84140  Biso   1.000  H
  H91      1.0000 0.38400  0.85830  0.01090  Biso   1.000  H
  H92      1.0000 0.21760  0.85220  0.01580  Biso   1.000  H
  H93      1.0000 0.53890  0.86750  0.99660  Biso   1.000  H
  H94      1.0000 0.52210  0.95560  0.88150  Biso   1.000  H
  H95      1.0000 0.01710  0.63770  0.82260  Biso   1.000  H
  H96      1.0000 0.03030  0.77710  0.73510  Biso   1.000  H
  H97      1.0000 0.02950  0.73070  0.62490  Biso   1.000  H
  H98      1.0000 0.00790  0.58880  0.70900  Biso   1.000  H
  H99      1.0000 0.15110  0.46770  0.63380  Biso   1.000  H
  H100     1.0000 0.31720  0.47070  0.62920  Biso   1.000  H
  H101     1.0000 0.30280  0.32500  0.46770  Biso   1.000  H
  H102     1.0000 0.13680  0.32510  0.47770  Biso   1.000  H
  H103     1.0000 0.80700  0.47160  0.64880  Biso   1.000  H
  H104     1.0000 0.64120  0.48210  0.65860  Biso   1.000  H
  H105     1.0000 0.61600  0.35830  0.48910  Biso   1.000  H
  H106     1.0000 0.78240  0.35220  0.48420  Biso   1.000  H
  H107     1.0000 0.46110  0.36750  0.50340  Biso   1.000  H
  H108     1.0000 0.47790  0.45560  0.61850  Biso   1.000  H
  H109     1.0000 0.98290  0.13770  0.67740  Biso   1.000  H
  H110     1.0000 0.96970  0.27710  0.76490  Biso   1.000  H
  H111     1.0000 0.97050  0.23070  0.87510  Biso   1.000  H
  H112     1.0000 0.99210  0.08880  0.79100  Biso   1.000  H
  C73      1.0000 0.18210  0.06140  0.09960  Biso   1.000  C
  C74      1.0000 0.28180  0.05940  0.09730  Biso   1.000  C
  C75      1.0000 0.33090  0.10220  0.04750  Biso   1.000  C
  C76      1.0000 0.27360  0.14530  0.00230  Biso   1.000  C
  C77      1.0000 0.17380  0.14430  0.00860  Biso   1.000  C
  C78      1.0000 0.76780  0.05210  0.11610  Biso   1.000  C
  C79      1.0000 0.66830  0.04530  0.12230  Biso   1.000  C
  C80      1.0000 0.60760  0.07890  0.07480  Biso   1.000  C
  C81      1.0000 0.65330  0.11790  0.02270  Biso   1.000  C
  C82      1.0000 0.75340  0.12170  0.02030  Biso   1.000  C
  C83      1.0000 0.43660  0.10530  0.04050  Biso   1.000  C
  C84      1.0000 0.50190  0.07310  0.08190  Biso   1.000  C
  C85      1.0000 0.97360  0.23060  0.14120  Biso   1.000  C
  C86      1.0000 0.97830  0.30170  0.19040  Biso   1.000  C
  C87      1.0000 0.97640  0.28370  0.25270  Biso   1.000  C
  C88      1.0000 0.98820  0.39800  0.41590  Biso   1.000  C
  C89      1.0000 0.97950  0.33020  0.36370  Biso   1.000  C
  C90      1.0000 0.98380  0.35030  0.30260  Biso   1.000  C
  C91      1.0000 0.81790  0.56140  0.40040  Biso   1.000  C
  C92      1.0000 0.71820  0.55940  0.40270  Biso   1.000  C
  C93      1.0000 0.66910  0.60220  0.45250  Biso   1.000  C
  C94      1.0000 0.72640  0.64530  0.49770  Biso   1.000  C
  C95      1.0000 0.82620  0.64430  0.49140  Biso   1.000  C
  C96      1.0000 0.23220  0.55210  0.38390  Biso   1.000  C
  C97      1.0000 0.33170  0.54530  0.37770  Biso   1.000  C
  C98      1.0000 0.39240  0.57890  0.42520  Biso   1.000  C
  C99      1.0000 0.34670  0.61790  0.47730  Biso   1.000  C
  C100     1.0000 0.24660  0.62170  0.47970  Biso   1.000  C
  C101     1.0000 0.56340  0.60530  0.45950  Biso   1.000  C
  C102     1.0000 0.49810  0.57310  0.41810  Biso   1.000  C
  C103     1.0000 0.02640  0.73060  0.35880  Biso   1.000  C
  C104     1.0000 0.02170  0.80170  0.30960  Biso   1.000  C
  C105     1.0000 0.02360  0.78370  0.24730  Biso   1.000  C
  C106     1.0000 0.01180  0.89800  0.08410  Biso   1.000  C
  C107     1.0000 0.02050  0.83020  0.13630  Biso   1.000  C
  C108     1.0000 0.01620  0.85030  0.19740  Biso   1.000  C
  C109     1.0000 0.81790  0.93860  0.90040  Biso   1.000  C
  C110     1.0000 0.71820  0.94060  0.90270  Biso   1.000  C
  C111     1.0000 0.66910  0.89780  0.95250  Biso   1.000  C
  C112     1.0000 0.72640  0.85470  0.99770  Biso   1.000  C
  C113     1.0000 0.82620  0.85570  0.99140  Biso   1.000  C
  C114     1.0000 0.23220  0.94790  0.88390  Biso   1.000  C
  C115     1.0000 0.33170  0.95470  0.87770  Biso   1.000  C
  C116     1.0000 0.39240  0.92110  0.92520  Biso   1.000  C
  C117     1.0000 0.34670  0.88210  0.97730  Biso   1.000  C
  C118     1.0000 0.24660  0.87830  0.97970  Biso   1.000  C
  C119     1.0000 0.56340  0.89470  0.95950  Biso   1.000  C
  C120     1.0000 0.49810  0.92690  0.91810  Biso   1.000  C
  C121     1.0000 0.02640  0.76940  0.85880  Biso   1.000  C
  C122     1.0000 0.02170  0.69830  0.80960  Biso   1.000  C
  C123     1.0000 0.02360  0.71630  0.74730  Biso   1.000  C
  C124     1.0000 0.01180  0.60200  0.58410  Biso   1.000  C
  C125     1.0000 0.02050  0.66980  0.63630  Biso   1.000  C
  C126     1.0000 0.01620  0.64970  0.69740  Biso   1.000  C
  C127     1.0000 0.18210  0.43860  0.59960  Biso   1.000  C
  C128     1.0000 0.28180  0.44060  0.59730  Biso   1.000  C
  C129     1.0000 0.33090  0.39780  0.54750  Biso   1.000  C
  C130     1.0000 0.27360  0.35470  0.50230  Biso   1.000  C
  C131     1.0000 0.17380  0.35570  0.50860  Biso   1.000  C
  C132     1.0000 0.76780  0.44790  0.61610  Biso   1.000  C
  C133     1.0000 0.66830  0.45470  0.62230  Biso   1.000  C
  C134     1.0000 0.60760  0.42110  0.57480  Biso   1.000  C
  C135     1.0000 0.65330  0.38210  0.52270  Biso   1.000  C
  C136     1.0000 0.75340  0.37830  0.52030  Biso   1.000  C
  C137     1.0000 0.43660  0.39470  0.54050  Biso   1.000  C
  C138     1.0000 0.50190  0.42690  0.58190  Biso   1.000  C
  C139     1.0000 0.97360  0.26940  0.64120  Biso   1.000  C
  C140     1.0000 0.97830  0.19830  0.69040  Biso   1.000  C
  C141     1.0000 0.97640  0.21630  0.75270  Biso   1.000  C
  C142     1.0000 0.98820  0.10200  0.91590  Biso   1.000  C
  C143     1.0000 0.97950  0.16980  0.86370  Biso   1.000  C
  C144     1.0000 0.98380  0.14970  0.80260  Biso   1.000  C
  N9       1.0000 0.12570  0.10250  0.05577  Biso   1.000  N
  N10      1.0000 0.81210  0.09040  0.06612  Biso   1.000  N
  N11      1.0000 0.87430  0.60250  0.44423  Biso   1.000  N
  N12      1.0000 0.18790  0.59040  0.43388  Biso   1.000  N
  N13      1.0000 0.87430  0.89750  0.94423  Biso   1.000  N
  N14      1.0000 0.18790  0.90960  0.93388  Biso   1.000  N
  N15      1.0000 0.12570  0.39750  0.55577  Biso   1.000  N
  N16      1.0000 0.81210  0.40960  0.56612  Biso   1.000  N
  O17      1.0000 0.97410  0.14770  0.15760  Biso   1.000  O
  O18      1.0000 0.97050  0.25110  0.08352  Biso   1.000  O
  O19      1.0000 0.95560  0.37290  0.46885  Biso   1.000  O
  O20      1.0000 0.02650  0.47210  0.40312  Biso   1.000  O
  O21      1.0000 0.02590  0.64770  0.34240  Biso   1.000  O
  O22      1.0000 0.02950  0.75110  0.41648  Biso   1.000  O
  O23      1.0000 0.04440  0.87290  0.03115  Biso   1.000  O
  O24      1.0000 0.97350  0.97210  0.09688  Biso   1.000  O
  O25      1.0000 0.02590  0.85230  0.84240  Biso   1.000  O
  O26      1.0000 0.02950  0.74890  0.91648  Biso   1.000  O
  O27      1.0000 0.04440  0.62710  0.53115  Biso   1.000  O
  O28      1.0000 0.97350  0.52790  0.59688  Biso   1.000  O
  O29      1.0000 0.97410  0.35230  0.65760  Biso   1.000  O
  O30      1.0000 0.97050  0.24890  0.58352  Biso   1.000  O
  O31      1.0000 0.95560  0.12710  0.96885  Biso   1.000  O
  O32      1.0000 0.02650  0.02790  0.90312  Biso   1.000  O
