data_image0
_cell_length_a       9.0931
_cell_length_b       9.0931
_cell_length_c       38.333
_cell_angle_alpha    90
_cell_angle_beta     90
_cell_angle_gamma    90

_symmetry_space_group_name_H-M    "P 1"
_symmetry_int_tables_number       1

loop_
  _symmetry_equiv_pos_as_xyz
  'x, y, z'

loop_
  _atom_site_label
  _atom_site_occupancy
  _atom_site_fract_x
  _atom_site_fract_y
  _atom_site_fract_z
  _atom_site_thermal_displace_type
  _atom_site_B_iso_or_equiv
  _atom_site_type_symbol
  Zn1      1.0000 0.75085  0.25163  0.91627  Biso   1.000  Zn
  C1       1.0000 0.51973  0.18208  0.86874  Biso   1.000  C
  C2       1.0000 0.75007  0.00606  0.96390  Biso   1.000  C
  C3       1.0000 0.70308  0.50802  0.95288  Biso   1.000  C
  O1       1.0000 0.65221  0.44284  0.92489  Biso   1.000  O
  O2       1.0000 0.66144  0.19856  0.87168  Biso   1.000  O
  O3       1.0000 0.46237  0.23184  0.84005  Biso   1.000  O
  O4       1.0000 0.69661  0.13509  0.95678  Biso   1.000  O
  O5       1.0000 0.64851  0.63830  0.95946  Biso   1.000  O
  O6       1.0000 0.69596  0.94501  0.99154  Biso   1.000  O
  O7       1.0000 0.44448  0.11958  0.89167  Biso   1.000  O
  O8       1.0000 0.84857  0.94639  0.94573  Biso   1.000  O
  O9       1.0000 0.79650  0.44878  0.97191  Biso   1.000  O
  Zn2      1.0000 0.24915  0.74837  0.41627  Biso   1.000  Zn
  C4       1.0000 0.48027  0.81792  0.36874  Biso   1.000  C
  C5       1.0000 0.24993  0.99394  0.46390  Biso   1.000  C
  C6       1.0000 0.29692  0.49198  0.45288  Biso   1.000  C
  O10      1.0000 0.34779  0.55716  0.42489  Biso   1.000  O
  O11      1.0000 0.33856  0.80144  0.37168  Biso   1.000  O
  O12      1.0000 0.53763  0.76816  0.34005  Biso   1.000  O
  O13      1.0000 0.30339  0.86491  0.45678  Biso   1.000  O
  O14      1.0000 0.35149  0.36170  0.45946  Biso   1.000  O
  O15      1.0000 0.30404  0.05499  0.49154  Biso   1.000  O
  O16      1.0000 0.55552  0.88042  0.39167  Biso   1.000  O
  O17      1.0000 0.15143  0.05361  0.44573  Biso   1.000  O
  O18      1.0000 0.20350  0.55122  0.47191  Biso   1.000  O
  Zn3      1.0000 0.24837  0.25085  0.16627  Biso   1.000  Zn
  C7       1.0000 0.31792  0.01973  0.11874  Biso   1.000  C
  C8       1.0000 0.49394  0.25007  0.21390  Biso   1.000  C
  C9       1.0000 0.99198  0.20308  0.20288  Biso   1.000  C
  O19      1.0000 0.05716  0.15221  0.17489  Biso   1.000  O
  O20      1.0000 0.30144  0.16144  0.12168  Biso   1.000  O
  O21      1.0000 0.26816  0.96237  0.09005  Biso   1.000  O
  O22      1.0000 0.36491  0.19661  0.20678  Biso   1.000  O
  O23      1.0000 0.86170  0.14851  0.20946  Biso   1.000  O
  O24      1.0000 0.55499  0.19596  0.24154  Biso   1.000  O
  O25      1.0000 0.38042  0.94448  0.14167  Biso   1.000  O
  O26      1.0000 0.55361  0.34857  0.19573  Biso   1.000  O
  O27      1.0000 0.05122  0.29650  0.22191  Biso   1.000  O
  Zn4      1.0000 0.75163  0.74915  0.66627  Biso   1.000  Zn
  C10      1.0000 0.68208  0.98027  0.61874  Biso   1.000  C
  C11      1.0000 0.50606  0.74993  0.71390  Biso   1.000  C
  C12      1.0000 0.00802  0.79692  0.70288  Biso   1.000  C
  O28      1.0000 0.94284  0.84779  0.67489  Biso   1.000  O
  O29      1.0000 0.69856  0.83856  0.62168  Biso   1.000  O
  O30      1.0000 0.73184  0.03763  0.59005  Biso   1.000  O
  O31      1.0000 0.63509  0.80339  0.70678  Biso   1.000  O
  O32      1.0000 0.13830  0.85149  0.70946  Biso   1.000  O
  O33      1.0000 0.44501  0.80404  0.74154  Biso   1.000  O
  O34      1.0000 0.61958  0.05552  0.64167  Biso   1.000  O
  O35      1.0000 0.44639  0.65143  0.69573  Biso   1.000  O
  O36      1.0000 0.94878  0.70350  0.72191  Biso   1.000  O
  Zn5      1.0000 0.74915  0.75163  0.33373  Biso   1.000  Zn
  C13      1.0000 0.98027  0.68208  0.38126  Biso   1.000  C
  C14      1.0000 0.74993  0.50606  0.28610  Biso   1.000  C
  C15      1.0000 0.79692  0.00802  0.29712  Biso   1.000  C
  O37      1.0000 0.84779  0.94284  0.32511  Biso   1.000  O
  O38      1.0000 0.83856  0.69856  0.37832  Biso   1.000  O
  O39      1.0000 0.03763  0.73184  0.40995  Biso   1.000  O
  O40      1.0000 0.80339  0.63509  0.29322  Biso   1.000  O
  O41      1.0000 0.85149  0.13830  0.29054  Biso   1.000  O
  O42      1.0000 0.80404  0.44501  0.25846  Biso   1.000  O
  O43      1.0000 0.05552  0.61958  0.35833  Biso   1.000  O
  O44      1.0000 0.65143  0.44639  0.30427  Biso   1.000  O
  O45      1.0000 0.70350  0.94878  0.27809  Biso   1.000  O
  Zn6      1.0000 0.25085  0.24837  0.83373  Biso   1.000  Zn
  C16      1.0000 0.01973  0.31792  0.88126  Biso   1.000  C
  C17      1.0000 0.25007  0.49394  0.78610  Biso   1.000  C
  C18      1.0000 0.20308  0.99198  0.79712  Biso   1.000  C
  O46      1.0000 0.15221  0.05716  0.82511  Biso   1.000  O
  O47      1.0000 0.16144  0.30144  0.87832  Biso   1.000  O
  O48      1.0000 0.96237  0.26816  0.90995  Biso   1.000  O
  O49      1.0000 0.19661  0.36491  0.79322  Biso   1.000  O
  O50      1.0000 0.14851  0.86170  0.79054  Biso   1.000  O
  O51      1.0000 0.19596  0.55499  0.75846  Biso   1.000  O
  O52      1.0000 0.94448  0.38042  0.85833  Biso   1.000  O
  O53      1.0000 0.34857  0.55361  0.80427  Biso   1.000  O
  O54      1.0000 0.29650  0.05122  0.77809  Biso   1.000  O
  Zn7      1.0000 0.25163  0.75085  0.08373  Biso   1.000  Zn
  C19      1.0000 0.18208  0.51973  0.13126  Biso   1.000  C
  C20      1.0000 0.00606  0.75007  0.03610  Biso   1.000  C
  C21      1.0000 0.50802  0.70308  0.04712  Biso   1.000  C
  O55      1.0000 0.44284  0.65221  0.07511  Biso   1.000  O
  O56      1.0000 0.19856  0.66144  0.12832  Biso   1.000  O
  O57      1.0000 0.23184  0.46237  0.15995  Biso   1.000  O
  O58      1.0000 0.13509  0.69661  0.04322  Biso   1.000  O
  O59      1.0000 0.63830  0.64851  0.04054  Biso   1.000  O
  O60      1.0000 0.94501  0.69596  0.00846  Biso   1.000  O
  O61      1.0000 0.11958  0.44448  0.10833  Biso   1.000  O
  O62      1.0000 0.94639  0.84857  0.05427  Biso   1.000  O
  O63      1.0000 0.44878  0.79650  0.02809  Biso   1.000  O
  Zn8      1.0000 0.74837  0.24915  0.58373  Biso   1.000  Zn
  C22      1.0000 0.81792  0.48027  0.63126  Biso   1.000  C
  C23      1.0000 0.99394  0.24993  0.53610  Biso   1.000  C
  C24      1.0000 0.49198  0.29692  0.54712  Biso   1.000  C
  O64      1.0000 0.55716  0.34779  0.57511  Biso   1.000  O
  O65      1.0000 0.80144  0.33856  0.62832  Biso   1.000  O
  O66      1.0000 0.76816  0.53763  0.65995  Biso   1.000  O
  O67      1.0000 0.86491  0.30339  0.54322  Biso   1.000  O
  O68      1.0000 0.36170  0.35149  0.54054  Biso   1.000  O
  O69      1.0000 0.05499  0.30404  0.50846  Biso   1.000  O
  O70      1.0000 0.88042  0.55552  0.60833  Biso   1.000  O
  O71      1.0000 0.05361  0.15143  0.55427  Biso   1.000  O
  O72      1.0000 0.55122  0.20350  0.52809  Biso   1.000  O
  Zn9      1.0000 0.73805  0.73805  0.00000  Biso   1.000  Zn
  Zn10     1.0000 0.26195  0.26195  0.50000  Biso   1.000  Zn
  Zn11     1.0000 0.76195  0.23805  0.25000  Biso   1.000  Zn
  Zn12     1.0000 0.23805  0.76195  0.75000  Biso   1.000  Zn
