data_image0
_cell_length_a       14.081
_cell_length_b       14.413
_cell_length_c       16.42
_cell_angle_alpha    90
_cell_angle_beta     97.814
_cell_angle_gamma    90

_symmetry_space_group_name_H-M    "P 1"
_symmetry_int_tables_number       1

loop_
  _symmetry_equiv_pos_as_xyz
  'x, y, z'

loop_
  _atom_site_label
  _atom_site_occupancy
  _atom_site_fract_x
  _atom_site_fract_y
  _atom_site_fract_z
  _atom_site_thermal_displace_type
  _atom_site_B_iso_or_equiv
  _atom_site_type_symbol
  I1       1.0000 0.10363  0.23849  0.54864  Biso   1.000  I
  Cu1      1.0000 0.24771  0.16115  0.48069  Biso   1.000  Cu
  N1       1.0000 0.18850  0.12090  0.36510  Biso   1.000  N
  C1       1.0000 0.24470  0.09740  0.30960  Biso   1.000  C
  H1       1.0000 0.31190  0.09580  0.32660  Biso   1.000  H
  C2       1.0000 0.21170  0.07510  0.22850  Biso   1.000  C
  C3       1.0000 0.11220  0.07830  0.20410  Biso   1.000  C
  H2       1.0000 0.08580  0.06490  0.14900  Biso   1.000  H
  C4       1.0000 0.05360  0.10140  0.26160  Biso   1.000  C
  C5       1.0000 0.09430  0.12380  0.34030  Biso   1.000  C
  H3       1.0000 0.05320  0.14210  0.37880  Biso   1.000  H
  N2       1.0000 0.30340  0.94010  0.05950  Biso   1.000  N
  C6       1.0000 0.24760  0.97620  0.11300  Biso   1.000  C
  H4       1.0000 0.18400  0.95370  0.11100  Biso   1.000  H
  C7       1.0000 0.27890  0.04440  0.17040  Biso   1.000  C
  C8       1.0000 0.37050  0.07790  0.17260  Biso   1.000  C
  H5       1.0000 0.39420  0.12470  0.21070  Biso   1.000  H
  C9       1.0000 0.42740  0.04190  0.11830  Biso   1.000  C
  H6       1.0000 0.49090  0.06410  0.11820  Biso   1.000  H
  C10      1.0000 0.39140  0.97360  0.06420  Biso   1.000  C
  H7       1.0000 0.43230  0.94890  0.02800  Biso   1.000  H
  I2       1.0000 0.60363  0.73849  0.54864  Biso   1.000  I
  Cu2      1.0000 0.74771  0.66115  0.48069  Biso   1.000  Cu
  N3       1.0000 0.68850  0.62090  0.36510  Biso   1.000  N
  C11      1.0000 0.74470  0.59740  0.30960  Biso   1.000  C
  H8       1.0000 0.81190  0.59580  0.32660  Biso   1.000  H
  C12      1.0000 0.71170  0.57510  0.22850  Biso   1.000  C
  C13      1.0000 0.61220  0.57830  0.20410  Biso   1.000  C
  H9       1.0000 0.58580  0.56490  0.14900  Biso   1.000  H
  C14      1.0000 0.55360  0.60140  0.26160  Biso   1.000  C
  C15      1.0000 0.59430  0.62380  0.34030  Biso   1.000  C
  H10      1.0000 0.55320  0.64210  0.37880  Biso   1.000  H
  N4       1.0000 0.80340  0.44010  0.05950  Biso   1.000  N
  C16      1.0000 0.74760  0.47620  0.11300  Biso   1.000  C
  H11      1.0000 0.68400  0.45370  0.11100  Biso   1.000  H
  C17      1.0000 0.77890  0.54440  0.17040  Biso   1.000  C
  C18      1.0000 0.87050  0.57790  0.17260  Biso   1.000  C
  H12      1.0000 0.89420  0.62470  0.21070  Biso   1.000  H
  C19      1.0000 0.92740  0.54190  0.11830  Biso   1.000  C
  H13      1.0000 0.99090  0.56410  0.11820  Biso   1.000  H
  C20      1.0000 0.89140  0.47360  0.06420  Biso   1.000  C
  H14      1.0000 0.93230  0.44890  0.02800  Biso   1.000  H
  I3       1.0000 0.89637  0.23849  0.95136  Biso   1.000  I
  Cu3      1.0000 0.75229  0.16115  0.01931  Biso   1.000  Cu
  N5       1.0000 0.81150  0.12090  0.13490  Biso   1.000  N
  C21      1.0000 0.75530  0.09740  0.19040  Biso   1.000  C
  H15      1.0000 0.68810  0.09580  0.17340  Biso   1.000  H
  C22      1.0000 0.78830  0.07510  0.27150  Biso   1.000  C
  C23      1.0000 0.88780  0.07830  0.29590  Biso   1.000  C
  H16      1.0000 0.91420  0.06490  0.35100  Biso   1.000  H
  C24      1.0000 0.94640  0.10140  0.23840  Biso   1.000  C
  C25      1.0000 0.90570  0.12380  0.15970  Biso   1.000  C
  H17      1.0000 0.94680  0.14210  0.12120  Biso   1.000  H
  N6       1.0000 0.69660  0.94010  0.44050  Biso   1.000  N
  C26      1.0000 0.75240  0.97620  0.38700  Biso   1.000  C
  H18      1.0000 0.81600  0.95370  0.38900  Biso   1.000  H
  C27      1.0000 0.72110  0.04440  0.32960  Biso   1.000  C
  C28      1.0000 0.62950  0.07790  0.32740  Biso   1.000  C
  H19      1.0000 0.60580  0.12470  0.28930  Biso   1.000  H
  C29      1.0000 0.57260  0.04190  0.38170  Biso   1.000  C
  H20      1.0000 0.50910  0.06410  0.38180  Biso   1.000  H
  C30      1.0000 0.60860  0.97360  0.43580  Biso   1.000  C
  H21      1.0000 0.56770  0.94890  0.47200  Biso   1.000  H
  I4       1.0000 0.39637  0.73849  0.95136  Biso   1.000  I
  Cu4      1.0000 0.25229  0.66115  0.01931  Biso   1.000  Cu
  N7       1.0000 0.31150  0.62090  0.13490  Biso   1.000  N
  C31      1.0000 0.25530  0.59740  0.19040  Biso   1.000  C
  H22      1.0000 0.18810  0.59580  0.17340  Biso   1.000  H
  C32      1.0000 0.28830  0.57510  0.27150  Biso   1.000  C
  C33      1.0000 0.38780  0.57830  0.29590  Biso   1.000  C
  H23      1.0000 0.41420  0.56490  0.35100  Biso   1.000  H
  C34      1.0000 0.44640  0.60140  0.23840  Biso   1.000  C
  C35      1.0000 0.40570  0.62380  0.15970  Biso   1.000  C
  H24      1.0000 0.44680  0.64210  0.12120  Biso   1.000  H
  N8       1.0000 0.19660  0.44010  0.44050  Biso   1.000  N
  C36      1.0000 0.25240  0.47620  0.38700  Biso   1.000  C
  H25      1.0000 0.31600  0.45370  0.38900  Biso   1.000  H
  C37      1.0000 0.22110  0.54440  0.32960  Biso   1.000  C
  C38      1.0000 0.12950  0.57790  0.32740  Biso   1.000  C
  H26      1.0000 0.10580  0.62470  0.28930  Biso   1.000  H
  C39      1.0000 0.07260  0.54190  0.38170  Biso   1.000  C
  H27      1.0000 0.00910  0.56410  0.38180  Biso   1.000  H
  C40      1.0000 0.10860  0.47360  0.43580  Biso   1.000  C
  H28      1.0000 0.06770  0.44890  0.47200  Biso   1.000  H
  I5       1.0000 0.89637  0.76151  0.45136  Biso   1.000  I
  Cu5      1.0000 0.75229  0.83885  0.51931  Biso   1.000  Cu
  N9       1.0000 0.81150  0.87910  0.63490  Biso   1.000  N
  C41      1.0000 0.75530  0.90260  0.69040  Biso   1.000  C
  H29      1.0000 0.68810  0.90420  0.67340  Biso   1.000  H
  C42      1.0000 0.78830  0.92490  0.77150  Biso   1.000  C
  C43      1.0000 0.88780  0.92170  0.79590  Biso   1.000  C
  H30      1.0000 0.91420  0.93510  0.85100  Biso   1.000  H
  C44      1.0000 0.94640  0.89860  0.73840  Biso   1.000  C
  C45      1.0000 0.90570  0.87620  0.65970  Biso   1.000  C
  H31      1.0000 0.94680  0.85790  0.62120  Biso   1.000  H
  N10      1.0000 0.69660  0.05990  0.94050  Biso   1.000  N
  C46      1.0000 0.75240  0.02380  0.88700  Biso   1.000  C
  H32      1.0000 0.81600  0.04630  0.88900  Biso   1.000  H
  C47      1.0000 0.72110  0.95560  0.82960  Biso   1.000  C
  C48      1.0000 0.62950  0.92210  0.82740  Biso   1.000  C
  H33      1.0000 0.60580  0.87530  0.78930  Biso   1.000  H
  C49      1.0000 0.57260  0.95810  0.88170  Biso   1.000  C
  H34      1.0000 0.50910  0.93590  0.88180  Biso   1.000  H
  C50      1.0000 0.60860  0.02640  0.93580  Biso   1.000  C
  H35      1.0000 0.56770  0.05110  0.97200  Biso   1.000  H
  I6       1.0000 0.39637  0.26151  0.45136  Biso   1.000  I
  Cu6      1.0000 0.25229  0.33885  0.51931  Biso   1.000  Cu
  N11      1.0000 0.31150  0.37910  0.63490  Biso   1.000  N
  C51      1.0000 0.25530  0.40260  0.69040  Biso   1.000  C
  H36      1.0000 0.18810  0.40420  0.67340  Biso   1.000  H
  C52      1.0000 0.28830  0.42490  0.77150  Biso   1.000  C
  C53      1.0000 0.38780  0.42170  0.79590  Biso   1.000  C
  H37      1.0000 0.41420  0.43510  0.85100  Biso   1.000  H
  C54      1.0000 0.44640  0.39860  0.73840  Biso   1.000  C
  C55      1.0000 0.40570  0.37620  0.65970  Biso   1.000  C
  H38      1.0000 0.44680  0.35790  0.62120  Biso   1.000  H
  N12      1.0000 0.19660  0.55990  0.94050  Biso   1.000  N
  C56      1.0000 0.25240  0.52380  0.88700  Biso   1.000  C
  H39      1.0000 0.31600  0.54630  0.88900  Biso   1.000  H
  C57      1.0000 0.22110  0.45560  0.82960  Biso   1.000  C
  C58      1.0000 0.12950  0.42210  0.82740  Biso   1.000  C
  H40      1.0000 0.10580  0.37530  0.78930  Biso   1.000  H
  C59      1.0000 0.07260  0.45810  0.88170  Biso   1.000  C
  H41      1.0000 0.00910  0.43590  0.88180  Biso   1.000  H
  C60      1.0000 0.10860  0.52640  0.93580  Biso   1.000  C
  H42      1.0000 0.06770  0.55110  0.97200  Biso   1.000  H
  I7       1.0000 0.10363  0.76151  0.04864  Biso   1.000  I
  Cu7      1.0000 0.24771  0.83885  0.98069  Biso   1.000  Cu
  N13      1.0000 0.18850  0.87910  0.86510  Biso   1.000  N
  C61      1.0000 0.24470  0.90260  0.80960  Biso   1.000  C
  H43      1.0000 0.31190  0.90420  0.82660  Biso   1.000  H
  C62      1.0000 0.21170  0.92490  0.72850  Biso   1.000  C
  C63      1.0000 0.11220  0.92170  0.70410  Biso   1.000  C
  H44      1.0000 0.08580  0.93510  0.64900  Biso   1.000  H
  C64      1.0000 0.05360  0.89860  0.76160  Biso   1.000  C
  C65      1.0000 0.09430  0.87620  0.84030  Biso   1.000  C
  H45      1.0000 0.05320  0.85790  0.87880  Biso   1.000  H
  N14      1.0000 0.30340  0.05990  0.55950  Biso   1.000  N
  C66      1.0000 0.24760  0.02380  0.61300  Biso   1.000  C
  H46      1.0000 0.18400  0.04630  0.61100  Biso   1.000  H
  C67      1.0000 0.27890  0.95560  0.67040  Biso   1.000  C
  C68      1.0000 0.37050  0.92210  0.67260  Biso   1.000  C
  H47      1.0000 0.39420  0.87530  0.71070  Biso   1.000  H
  C69      1.0000 0.42740  0.95810  0.61830  Biso   1.000  C
  H48      1.0000 0.49090  0.93590  0.61820  Biso   1.000  H
  C70      1.0000 0.39140  0.02640  0.56420  Biso   1.000  C
  H49      1.0000 0.43230  0.05110  0.52800  Biso   1.000  H
  I8       1.0000 0.60363  0.26151  0.04864  Biso   1.000  I
  Cu8      1.0000 0.74771  0.33885  0.98069  Biso   1.000  Cu
  N15      1.0000 0.68850  0.37910  0.86510  Biso   1.000  N
  C71      1.0000 0.74470  0.40260  0.80960  Biso   1.000  C
  H50      1.0000 0.81190  0.40420  0.82660  Biso   1.000  H
  C72      1.0000 0.71170  0.42490  0.72850  Biso   1.000  C
  C73      1.0000 0.61220  0.42170  0.70410  Biso   1.000  C
  H51      1.0000 0.58580  0.43510  0.64900  Biso   1.000  H
  C74      1.0000 0.55360  0.39860  0.76160  Biso   1.000  C
  C75      1.0000 0.59430  0.37620  0.84030  Biso   1.000  C
  H52      1.0000 0.55320  0.35790  0.87880  Biso   1.000  H
  N16      1.0000 0.80340  0.55990  0.55950  Biso   1.000  N
  C76      1.0000 0.74760  0.52380  0.61300  Biso   1.000  C
  H53      1.0000 0.68400  0.54630  0.61100  Biso   1.000  H
  C77      1.0000 0.77890  0.45560  0.67040  Biso   1.000  C
  C78      1.0000 0.87050  0.42210  0.67260  Biso   1.000  C
  H54      1.0000 0.89420  0.37530  0.71070  Biso   1.000  H
  C79      1.0000 0.92740  0.45810  0.61830  Biso   1.000  C
  H55      1.0000 0.99090  0.43590  0.61820  Biso   1.000  H
  C80      1.0000 0.89140  0.52640  0.56420  Biso   1.000  C
  H56      1.0000 0.93230  0.55110  0.52800  Biso   1.000  H
