data_image0
_cell_length_a       10.0916
_cell_length_b       10.0916
_cell_length_c       16.4373
_cell_angle_alpha    95.9263
_cell_angle_beta     95.9263
_cell_angle_gamma    92.3616

_symmetry_space_group_name_H-M    P 1
_symmetry_int_tables_number       1

loop_
  _symmetry_equiv_pos_as_xyz
  'x, y, z'

loop_
  _atom_site_label
  _atom_site_occupancy
  _atom_site_fract_x
  _atom_site_fract_y
  _atom_site_fract_z
  _atom_site_thermal_displace_type
  _atom_site_B_iso_or_equiv
  _atom_site_type_symbol
  Cu1      1.0000 0.73991  0.06451  0.82788  Biso   1.000  Cu
  Cu2      1.0000 0.56085  0.23701  0.79130  Biso   1.000  Cu
  Cu3      1.0000 0.06451  0.73991  0.32788  Biso   1.000  Cu
  Cu4      1.0000 0.23701  0.56085  0.29130  Biso   1.000  Cu
  H1       1.0000 0.90080  0.01860  0.69120  Biso   1.000  H
  H2       1.0000 0.87640  0.62980  0.59720  Biso   1.000  H
  H3       1.0000 0.72630  0.58150  0.69070  Biso   1.000  H
  H4       1.0000 0.66340  0.75160  0.78460  Biso   1.000  H
  H5       1.0000 0.92180  0.74620  0.47510  Biso   1.000  H
  H6       1.0000 0.11220  0.00820  0.65750  Biso   1.000  H
  H7       1.0000 0.24490  0.97010  0.43220  Biso   1.000  H
  H8       1.0000 0.34280  0.07120  0.69100  Biso   1.000  H
  H9       1.0000 0.28570  0.18730  0.46170  Biso   1.000  H
  H10      1.0000 0.57060  0.37840  0.62990  Biso   1.000  H
  H11      1.0000 0.27430  0.38230  0.42930  Biso   1.000  H
  H12      1.0000 0.66180  0.43080  0.52530  Biso   1.000  H
  H13      1.0000 0.69890  0.59030  0.43520  Biso   1.000  H
  H14      1.0000 0.52370  0.64570  0.34220  Biso   1.000  H
  H15      1.0000 0.01860  0.90080  0.19120  Biso   1.000  H
  H16      1.0000 0.62980  0.87640  0.09720  Biso   1.000  H
  H17      1.0000 0.58150  0.72630  0.19070  Biso   1.000  H
  H18      1.0000 0.75160  0.66340  0.28460  Biso   1.000  H
  H19      1.0000 0.74620  0.92180  0.97510  Biso   1.000  H
  H20      1.0000 0.00820  0.11220  0.15750  Biso   1.000  H
  H21      1.0000 0.97010  0.24490  0.93220  Biso   1.000  H
  H22      1.0000 0.07120  0.34280  0.19100  Biso   1.000  H
  H23      1.0000 0.18730  0.28570  0.96170  Biso   1.000  H
  H24      1.0000 0.37840  0.57060  0.12990  Biso   1.000  H
  H25      1.0000 0.38230  0.27430  0.92930  Biso   1.000  H
  H26      1.0000 0.43080  0.66180  0.02530  Biso   1.000  H
  H27      1.0000 0.59030  0.69890  0.93520  Biso   1.000  H
  H28      1.0000 0.64570  0.52370  0.84220  Biso   1.000  H
  C1       1.0000 0.86540  0.92980  0.69110  Biso   1.000  C
  C2       1.0000 0.90270  0.82870  0.63540  Biso   1.000  C
  C3       1.0000 0.85090  0.69890  0.63530  Biso   1.000  C
  C4       1.0000 0.76170  0.67030  0.69080  Biso   1.000  C
  C5       1.0000 0.72430  0.77130  0.74660  Biso   1.000  C
  C6       1.0000 0.99130  0.81190  0.49400  Biso   1.000  C
  C7       1.0000 0.00280  0.87140  0.57480  Biso   1.000  C
  C8       1.0000 0.10440  0.96760  0.60240  Biso   1.000  C
  C9       1.0000 0.19460  0.00440  0.54930  Biso   1.000  C
  C10      1.0000 0.18320  0.94500  0.46850  Biso   1.000  C
  C11      1.0000 0.36590  0.12850  0.65170  Biso   1.000  C
  C12      1.0000 0.29820  0.11360  0.57300  Biso   1.000  C
  C13      1.0000 0.33200  0.19740  0.51550  Biso   1.000  C
  C14      1.0000 0.43350  0.29610  0.53670  Biso   1.000  C
  C15      1.0000 0.50120  0.31100  0.61540  Biso   1.000  C
  C16      1.0000 0.36050  0.42450  0.43050  Biso   1.000  C
  C17      1.0000 0.46460  0.39160  0.48570  Biso   1.000  C
  C18      1.0000 0.59070  0.45330  0.48750  Biso   1.000  C
  C19      1.0000 0.61270  0.54810  0.43400  Biso   1.000  C
  C20      1.0000 0.50860  0.58100  0.37880  Biso   1.000  C
  C21      1.0000 0.92980  0.86540  0.19110  Biso   1.000  C
  C22      1.0000 0.82870  0.90270  0.13540  Biso   1.000  C
  C23      1.0000 0.69890  0.85090  0.13530  Biso   1.000  C
  C24      1.0000 0.67030  0.76170  0.19080  Biso   1.000  C
  C25      1.0000 0.77130  0.72430  0.24660  Biso   1.000  C
  C26      1.0000 0.81190  0.99130  0.99400  Biso   1.000  C
  C27      1.0000 0.87140  0.00280  0.07480  Biso   1.000  C
  C28      1.0000 0.96760  0.10440  0.10240  Biso   1.000  C
  C29      1.0000 0.00440  0.19460  0.04930  Biso   1.000  C
  C30      1.0000 0.94500  0.18320  0.96850  Biso   1.000  C
  C31      1.0000 0.12850  0.36590  0.15170  Biso   1.000  C
  C32      1.0000 0.11360  0.29820  0.07300  Biso   1.000  C
  C33      1.0000 0.19740  0.33200  0.01550  Biso   1.000  C
  C34      1.0000 0.29610  0.43350  0.03670  Biso   1.000  C
  C35      1.0000 0.31100  0.50120  0.11540  Biso   1.000  C
  C36      1.0000 0.42450  0.36050  0.93050  Biso   1.000  C
  C37      1.0000 0.39160  0.46460  0.98570  Biso   1.000  C
  C38      1.0000 0.45330  0.59070  0.98750  Biso   1.000  C
  C39      1.0000 0.54810  0.61270  0.93400  Biso   1.000  C
  C40      1.0000 0.58100  0.50860  0.87880  Biso   1.000  C
  I1       1.0000 0.81057  0.29011  0.76420  Biso   1.000  I
  I2       1.0000 0.49095  0.01051  0.85474  Biso   1.000  I
  I3       1.0000 0.29011  0.81057  0.26420  Biso   1.000  I
  I4       1.0000 0.01051  0.49095  0.35474  Biso   1.000  I
  N1       1.0000 0.77620  0.90120  0.74670  Biso   1.000  N
  N2       1.0000 0.08150  0.84870  0.44090  Biso   1.000  N
  N3       1.0000 0.46740  0.22720  0.67290  Biso   1.000  N
  N4       1.0000 0.38260  0.51920  0.37700  Biso   1.000  N
  N5       1.0000 0.90120  0.77620  0.24670  Biso   1.000  N
  N6       1.0000 0.84870  0.08150  0.94090  Biso   1.000  N
  N7       1.0000 0.22720  0.46740  0.17290  Biso   1.000  N
  N8       1.0000 0.51920  0.38260  0.87700  Biso   1.000  N
