data_image0
_cell_length_a       7.6238
_cell_length_b       12.3416
_cell_length_c       12.3416
_cell_angle_alpha    96.3389
_cell_angle_beta     94.16
_cell_angle_gamma    85.84

_symmetry_space_group_name_H-M    P 1
_symmetry_int_tables_number       1

loop_
  _symmetry_equiv_pos_as_xyz
  'x, y, z'

loop_
  _atom_site_label
  _atom_site_occupancy
  _atom_site_fract_x
  _atom_site_fract_y
  _atom_site_fract_z
  _atom_site_thermal_displace_type
  _atom_site_B_iso_or_equiv
  _atom_site_type_symbol
  Zn1      1.0000 0.43682  0.29722  0.76522  Biso   1.000  Zn
  Zn2      1.0000 0.06318  0.76522  0.29722  Biso   1.000  Zn
  Zn3      1.0000 0.56318  0.70278  0.23478  Biso   1.000  Zn
  Zn4      1.0000 0.93682  0.23478  0.70278  Biso   1.000  Zn
  H1       1.0000 0.71080  0.45710  0.05290  Biso   1.000  H
  H2       1.0000 0.19610  0.43490  0.20350  Biso   1.000  H
  H3       1.0000 0.06650  0.21680  0.94620  Biso   1.000  H
  H4       1.0000 0.48400  0.36420  0.14040  Biso   1.000  H
  H5       1.0000 0.41380  0.29900  0.22940  Biso   1.000  H
  H6       1.0000 0.51270  0.12090  0.00450  Biso   1.000  H
  H7       1.0000 0.78920  0.05290  0.45710  Biso   1.000  H
  H8       1.0000 0.30390  0.20350  0.43490  Biso   1.000  H
  H9       1.0000 0.43350  0.94620  0.21680  Biso   1.000  H
  H10      1.0000 0.01600  0.14040  0.36420  Biso   1.000  H
  H11      1.0000 0.08620  0.22940  0.29900  Biso   1.000  H
  H12      1.0000 0.98730  0.00450  0.12090  Biso   1.000  H
  H13      1.0000 0.28920  0.54290  0.94710  Biso   1.000  H
  H14      1.0000 0.80390  0.56510  0.79650  Biso   1.000  H
  H15      1.0000 0.93350  0.78320  0.05380  Biso   1.000  H
  H16      1.0000 0.51600  0.63580  0.85960  Biso   1.000  H
  H17      1.0000 0.58620  0.70100  0.77060  Biso   1.000  H
  H18      1.0000 0.48730  0.87910  0.99550  Biso   1.000  H
  H19      1.0000 0.21080  0.94710  0.54290  Biso   1.000  H
  H20      1.0000 0.69610  0.79650  0.56510  Biso   1.000  H
  H21      1.0000 0.56650  0.05380  0.78320  Biso   1.000  H
  H22      1.0000 0.98400  0.85960  0.63580  Biso   1.000  H
  H23      1.0000 0.91380  0.77060  0.70100  Biso   1.000  H
  H24      1.0000 0.01270  0.99550  0.87910  Biso   1.000  H
  H25      1.0000 0.75000  0.99120  0.99120  Biso   1.000  H
  H26      1.0000 0.75000  0.27330  0.27330  Biso   1.000  H
  H27      1.0000 0.25000  0.00880  0.00880  Biso   1.000  H
  H28      1.0000 0.25000  0.72670  0.72670  Biso   1.000  H
  C1       1.0000 0.87080  0.33230  0.98430  Biso   1.000  C
  C2       1.0000 0.82320  0.42270  0.05810  Biso   1.000  C
  C3       1.0000 0.94610  0.45900  0.13800  Biso   1.000  C
  C4       1.0000 0.11450  0.40830  0.14910  Biso   1.000  C
  C5       1.0000 0.15810  0.31750  0.07730  Biso   1.000  C
  C6       1.0000 0.03680  0.27800  0.99400  Biso   1.000  C
  C7       1.0000 0.74350  0.29370  0.89310  Biso   1.000  C
  C8       1.0000 0.45100  0.29310  0.15530  Biso   1.000  C
  C9       1.0000 0.60550  0.20880  0.14140  Biso   1.000  C
  C10      1.0000 0.60740  0.12530  0.05630  Biso   1.000  C
  C11      1.0000 0.89630  0.55880  0.21500  Biso   1.000  C
  C12      1.0000 0.62920  0.98430  0.33230  Biso   1.000  C
  C13      1.0000 0.67680  0.05810  0.42270  Biso   1.000  C
  C14      1.0000 0.55390  0.13800  0.45900  Biso   1.000  C
  C15      1.0000 0.38550  0.14910  0.40830  Biso   1.000  C
  C16      1.0000 0.34190  0.07730  0.31750  Biso   1.000  C
  C17      1.0000 0.46320  0.99400  0.27800  Biso   1.000  C
  C18      1.0000 0.75650  0.89310  0.29370  Biso   1.000  C
  C19      1.0000 0.04900  0.15530  0.29310  Biso   1.000  C
  C20      1.0000 0.89450  0.14140  0.20880  Biso   1.000  C
  C21      1.0000 0.89260  0.05630  0.12530  Biso   1.000  C
  C22      1.0000 0.60370  0.21500  0.55880  Biso   1.000  C
  C23      1.0000 0.12920  0.66770  0.01570  Biso   1.000  C
  C24      1.0000 0.17680  0.57730  0.94190  Biso   1.000  C
  C25      1.0000 0.05390  0.54100  0.86200  Biso   1.000  C
  C26      1.0000 0.88550  0.59170  0.85090  Biso   1.000  C
  C27      1.0000 0.84190  0.68250  0.92270  Biso   1.000  C
  C28      1.0000 0.96320  0.72200  0.00600  Biso   1.000  C
  C29      1.0000 0.25650  0.70630  0.10690  Biso   1.000  C
  C30      1.0000 0.54900  0.70690  0.84470  Biso   1.000  C
  C31      1.0000 0.39450  0.79120  0.85860  Biso   1.000  C
  C32      1.0000 0.39260  0.87470  0.94370  Biso   1.000  C
  C33      1.0000 0.10370  0.44120  0.78500  Biso   1.000  C
  C34      1.0000 0.37080  0.01570  0.66770  Biso   1.000  C
  C35      1.0000 0.32320  0.94190  0.57730  Biso   1.000  C
  C36      1.0000 0.44610  0.86200  0.54100  Biso   1.000  C
  C37      1.0000 0.61450  0.85090  0.59170  Biso   1.000  C
  C38      1.0000 0.65810  0.92270  0.68250  Biso   1.000  C
  C39      1.0000 0.53680  0.00600  0.72200  Biso   1.000  C
  C40      1.0000 0.24350  0.10690  0.70630  Biso   1.000  C
  C41      1.0000 0.95100  0.84470  0.70690  Biso   1.000  C
  C42      1.0000 0.10550  0.85860  0.79120  Biso   1.000  C
  C43      1.0000 0.10740  0.94370  0.87470  Biso   1.000  C
  C44      1.0000 0.39630  0.78500  0.44120  Biso   1.000  C
  C45      1.0000 0.75000  0.04770  0.04770  Biso   1.000  C
  C46      1.0000 0.75000  0.21680  0.21680  Biso   1.000  C
  C47      1.0000 0.25000  0.95230  0.95230  Biso   1.000  C
  C48      1.0000 0.25000  0.78320  0.78320  Biso   1.000  C
  O1       1.0000 0.59030  0.34134  0.89106  Biso   1.000  O
  O2       1.0000 0.78720  0.21812  0.82176  Biso   1.000  O
  O3       1.0000 0.73630  0.57900  0.22620  Biso   1.000  O
  O4       1.0000 0.01980  0.61230  0.26128  Biso   1.000  O
  O5       1.0000 0.31320  0.25644  0.07972  Biso   1.000  O
  O6       1.0000 0.90970  0.89106  0.34134  Biso   1.000  O
  O7       1.0000 0.71280  0.82176  0.21812  Biso   1.000  O
  O8       1.0000 0.76370  0.22620  0.57900  Biso   1.000  O
  O9       1.0000 0.48020  0.26128  0.61230  Biso   1.000  O
  O10      1.0000 0.18680  0.07972  0.25644  Biso   1.000  O
  O11      1.0000 0.40970  0.65866  0.10894  Biso   1.000  O
  O12      1.0000 0.21280  0.78188  0.17824  Biso   1.000  O
  O13      1.0000 0.26370  0.42100  0.77380  Biso   1.000  O
  O14      1.0000 0.98020  0.38770  0.73872  Biso   1.000  O
  O15      1.0000 0.68680  0.74356  0.92028  Biso   1.000  O
  O16      1.0000 0.09030  0.10894  0.65866  Biso   1.000  O
  O17      1.0000 0.28720  0.17824  0.78188  Biso   1.000  O
  O18      1.0000 0.23630  0.77380  0.42100  Biso   1.000  O
  O19      1.0000 0.51980  0.73872  0.38770  Biso   1.000  O
  O20      1.0000 0.81320  0.92028  0.74356  Biso   1.000  O
