data_image0
_cell_length_a       8.7994
_cell_length_b       8.8039
_cell_length_c       53.888
_cell_angle_alpha    90
_cell_angle_beta     90
_cell_angle_gamma    90.111

_symmetry_space_group_name_H-M    P 1
_symmetry_int_tables_number       1

loop_
  _symmetry_equiv_pos_as_xyz
  'x, y, z'

loop_
  _atom_site_label
  _atom_site_occupancy
  _atom_site_fract_x
  _atom_site_fract_y
  _atom_site_fract_z
  _atom_site_thermal_displace_type
  _atom_site_B_iso_or_equiv
  _atom_site_type_symbol
  Zn1      1.0000 0.73435  0.82303  0.74649  Biso   1.000  Zn
  Zn2      1.0000 0.77244  0.78812  0.80212  Biso   1.000  Zn
  Zn3      1.0000 0.43161  0.66286  0.54848  Biso   1.000  Zn
  Zn4      1.0000 0.60378  0.37088  0.99407  Biso   1.000  Zn
  Zn5      1.0000 0.26565  0.17697  0.24649  Biso   1.000  Zn
  Zn6      1.0000 0.22756  0.21188  0.30212  Biso   1.000  Zn
  Zn7      1.0000 0.56839  0.33714  0.04848  Biso   1.000  Zn
  Zn8      1.0000 0.39622  0.62912  0.49407  Biso   1.000  Zn
  H1       1.0000 0.87300  0.06190  0.70690  Biso   1.000  H
  H2       1.0000 0.72290  0.10200  0.72100  Biso   1.000  H
  H3       1.0000 0.65160  0.28240  0.69150  Biso   1.000  H
  H4       1.0000 0.82800  0.30910  0.69360  Biso   1.000  H
  H5       1.0000 0.86890  0.15290  0.65970  Biso   1.000  H
  H6       1.0000 0.66890  0.05610  0.63580  Biso   1.000  H
  H7       1.0000 0.54420  0.58820  0.67090  Biso   1.000  H
  H8       1.0000 0.61270  0.61890  0.71170  Biso   1.000  H
  H9       1.0000 0.61500  0.53560  0.58970  Biso   1.000  H
  H10      1.0000 0.68100  0.58710  0.62990  Biso   1.000  H
  H11      1.0000 0.39930  0.94530  0.62820  Biso   1.000  H
  H12      1.0000 0.35070  0.89170  0.58740  Biso   1.000  H
  H13      1.0000 0.77010  0.31720  0.63370  Biso   1.000  H
  H14      1.0000 0.49500  0.22530  0.64610  Biso   1.000  H
  H15      1.0000 0.99700  0.92920  0.85060  Biso   1.000  H
  H16      1.0000 0.02250  0.81440  0.82870  Biso   1.000  H
  H17      1.0000 0.19290  0.65800  0.85540  Biso   1.000  H
  H18      1.0000 0.25710  0.82590  0.85570  Biso   1.000  H
  H19      1.0000 0.09490  0.87600  0.89220  Biso   1.000  H
  H20      1.0000 0.99110  0.64720  0.91120  Biso   1.000  H
  H21      1.0000 0.52960  0.55600  0.87450  Biso   1.000  H
  H22      1.0000 0.58080  0.61780  0.83270  Biso   1.000  H
  H23      1.0000 0.53010  0.62050  0.96070  Biso   1.000  H
  H24      1.0000 0.51380  0.66380  0.91710  Biso   1.000  H
  H25      1.0000 0.85980  0.36540  0.91160  Biso   1.000  H
  H26      1.0000 0.76620  0.25870  0.94850  Biso   1.000  H
  H27      1.0000 0.25550  0.73570  0.91440  Biso   1.000  H
  H28      1.0000 0.13710  0.46520  0.89560  Biso   1.000  H
  H29      1.0000 0.25970  0.79090  0.79770  Biso   1.000  H
  H30      1.0000 0.24220  0.81360  0.74670  Biso   1.000  H
  H31      1.0000 0.73850  0.29800  0.80190  Biso   1.000  H
  H32      1.0000 0.76530  0.30990  0.75080  Biso   1.000  H
  H33      1.0000 0.91470  0.64610  0.54630  Biso   1.000  H
  H34      1.0000 0.91230  0.63310  0.49620  Biso   1.000  H
  H35      1.0000 0.41810  0.14350  0.49630  Biso   1.000  H
  H36      1.0000 0.41850  0.14760  0.54710  Biso   1.000  H
  H37      1.0000 0.12700  0.93810  0.20690  Biso   1.000  H
  H38      1.0000 0.27710  0.89800  0.22100  Biso   1.000  H
  H39      1.0000 0.34840  0.71760  0.19150  Biso   1.000  H
  H40      1.0000 0.17200  0.69090  0.19360  Biso   1.000  H
  H41      1.0000 0.13110  0.84710  0.15970  Biso   1.000  H
  H42      1.0000 0.33110  0.94390  0.13580  Biso   1.000  H
  H43      1.0000 0.45580  0.41180  0.17090  Biso   1.000  H
  H44      1.0000 0.38730  0.38110  0.21170  Biso   1.000  H
  H45      1.0000 0.38500  0.46440  0.08970  Biso   1.000  H
  H46      1.0000 0.31900  0.41290  0.12990  Biso   1.000  H
  H47      1.0000 0.60070  0.05470  0.12820  Biso   1.000  H
  H48      1.0000 0.64930  0.10830  0.08740  Biso   1.000  H
  H49      1.0000 0.22990  0.68280  0.13370  Biso   1.000  H
  H50      1.0000 0.50500  0.77470  0.14610  Biso   1.000  H
  H51      1.0000 0.00300  0.07080  0.35060  Biso   1.000  H
  H52      1.0000 0.97750  0.18560  0.32870  Biso   1.000  H
  H53      1.0000 0.80710  0.34200  0.35540  Biso   1.000  H
  H54      1.0000 0.74290  0.17410  0.35570  Biso   1.000  H
  H55      1.0000 0.90510  0.12400  0.39220  Biso   1.000  H
  H56      1.0000 0.00890  0.35280  0.41120  Biso   1.000  H
  H57      1.0000 0.47040  0.44400  0.37450  Biso   1.000  H
  H58      1.0000 0.41920  0.38220  0.33270  Biso   1.000  H
  H59      1.0000 0.46990  0.37950  0.46070  Biso   1.000  H
  H60      1.0000 0.48620  0.33620  0.41710  Biso   1.000  H
  H61      1.0000 0.14020  0.63460  0.41160  Biso   1.000  H
  H62      1.0000 0.23380  0.74130  0.44850  Biso   1.000  H
  H63      1.0000 0.74450  0.26430  0.41440  Biso   1.000  H
  H64      1.0000 0.86290  0.53480  0.39560  Biso   1.000  H
  H65      1.0000 0.74030  0.20910  0.29770  Biso   1.000  H
  H66      1.0000 0.75780  0.18640  0.24670  Biso   1.000  H
  H67      1.0000 0.26150  0.70200  0.30190  Biso   1.000  H
  H68      1.0000 0.23470  0.69010  0.25080  Biso   1.000  H
  H69      1.0000 0.08530  0.35390  0.04630  Biso   1.000  H
  H70      1.0000 0.08770  0.36690  0.99620  Biso   1.000  H
  H71      1.0000 0.58190  0.85650  0.99630  Biso   1.000  H
  H72      1.0000 0.58150  0.85240  0.04710  Biso   1.000  H
  C1       1.0000 0.69150  0.95250  0.69368  Biso   1.000  C
  C2       1.0000 0.76600  0.08450  0.70472  Biso   1.000  C
  C3       1.0000 0.75040  0.23680  0.68872  Biso   1.000  C
  C4       1.0000 0.76820  0.19780  0.66214  Biso   1.000  C
  C5       1.0000 0.64730  0.08410  0.65307  Biso   1.000  C
  C6       1.0000 0.64520  0.94170  0.66902  Biso   1.000  C
  C7       1.0000 0.58910  0.80450  0.65994  Biso   1.000  C
  C8       1.0000 0.58020  0.68170  0.67638  Biso   1.000  C
  C9       1.0000 0.62500  0.69960  0.70071  Biso   1.000  C
  C10      1.0000 0.57250  0.61950  0.59751  Biso   1.000  C
  C11      1.0000 0.61200  0.64920  0.62168  Biso   1.000  C
  C12      1.0000 0.54680  0.77520  0.63396  Biso   1.000  C
  C13      1.0000 0.44640  0.86280  0.62069  Biso   1.000  C
  C14      1.0000 0.41550  0.82800  0.59624  Biso   1.000  C
  C15      1.0000 0.88740  0.73410  0.85506  Biso   1.000  C
  C16      1.0000 0.01330  0.82300  0.84650  Biso   1.000  C
  C17      1.0000 0.17090  0.76220  0.86000  Biso   1.000  C
  C18      1.0000 0.13150  0.77530  0.88730  Biso   1.000  C
  C19      1.0000 0.01710  0.64170  0.89360  Biso   1.000  C
  C20      1.0000 0.87370  0.67270  0.87847  Biso   1.000  C
  C21      1.0000 0.74400  0.60040  0.88584  Biso   1.000  C
  C22      1.0000 0.62420  0.59250  0.86950  Biso   1.000  C
  C23      1.0000 0.65070  0.64200  0.84500  Biso   1.000  C
  C24      1.0000 0.58100  0.55790  0.94960  Biso   1.000  C
  C25      1.0000 0.58630  0.60210  0.92460  Biso   1.000  C
  C26      1.0000 0.71700  0.54120  0.91170  Biso   1.000  C
  C27      1.0000 0.78330  0.41360  0.92057  Biso   1.000  C
  C28      1.0000 0.73420  0.35480  0.94363  Biso   1.000  C
  C29      1.0000 0.46100  0.80190  0.77840  Biso   1.000  C
  C30      1.0000 0.29870  0.79910  0.78180  Biso   1.000  C
  C31      1.0000 0.20230  0.80810  0.76263  Biso   1.000  C
  C32      1.0000 0.03650  0.80960  0.76560  Biso   1.000  C
  C33      1.0000 0.75540  0.08820  0.78397  Biso   1.000  C
  C34      1.0000 0.74880  0.25610  0.78617  Biso   1.000  C
  C35      1.0000 0.75680  0.35080  0.76670  Biso   1.000  C
  C36      1.0000 0.75270  0.51460  0.76951  Biso   1.000  C
  C37      1.0000 0.13340  0.64180  0.52795  Biso   1.000  C
  C38      1.0000 0.95710  0.64300  0.53051  Biso   1.000  C
  C39      1.0000 0.86940  0.63990  0.51189  Biso   1.000  C
  C40      1.0000 0.70170  0.64650  0.51393  Biso   1.000  C
  C41      1.0000 0.40340  0.93050  0.51426  Biso   1.000  C
  C42      1.0000 0.41350  0.10060  0.51209  Biso   1.000  C
  C43      1.0000 0.41600  0.19050  0.53136  Biso   1.000  C
  C44      1.0000 0.41510  0.35760  0.52906  Biso   1.000  C
  C45      1.0000 0.30850  0.04750  0.19368  Biso   1.000  C
  C46      1.0000 0.23400  0.91550  0.20472  Biso   1.000  C
  C47      1.0000 0.24960  0.76320  0.18872  Biso   1.000  C
  C48      1.0000 0.23180  0.80220  0.16214  Biso   1.000  C
  C49      1.0000 0.35270  0.91590  0.15307  Biso   1.000  C
  C50      1.0000 0.35480  0.05830  0.16902  Biso   1.000  C
  C51      1.0000 0.41090  0.19550  0.15994  Biso   1.000  C
  C52      1.0000 0.41980  0.31830  0.17638  Biso   1.000  C
  C53      1.0000 0.37500  0.30040  0.20071  Biso   1.000  C
  C54      1.0000 0.42750  0.38050  0.09751  Biso   1.000  C
  C55      1.0000 0.38800  0.35080  0.12168  Biso   1.000  C
  C56      1.0000 0.45320  0.22480  0.13396  Biso   1.000  C
  C57      1.0000 0.55360  0.13720  0.12069  Biso   1.000  C
  C58      1.0000 0.58450  0.17200  0.09624  Biso   1.000  C
  C59      1.0000 0.11260  0.26590  0.35506  Biso   1.000  C
  C60      1.0000 0.98670  0.17700  0.34650  Biso   1.000  C
  C61      1.0000 0.82910  0.23780  0.36000  Biso   1.000  C
  C62      1.0000 0.86850  0.22470  0.38730  Biso   1.000  C
  C63      1.0000 0.98290  0.35830  0.39360  Biso   1.000  C
  C64      1.0000 0.12630  0.32730  0.37847  Biso   1.000  C
  C65      1.0000 0.25600  0.39960  0.38584  Biso   1.000  C
  C66      1.0000 0.37580  0.40750  0.36950  Biso   1.000  C
  C67      1.0000 0.34930  0.35800  0.34500  Biso   1.000  C
  C68      1.0000 0.41900  0.44210  0.44960  Biso   1.000  C
  C69      1.0000 0.41370  0.39790  0.42460  Biso   1.000  C
  C70      1.0000 0.28300  0.45880  0.41170  Biso   1.000  C
  C71      1.0000 0.21670  0.58640  0.42057  Biso   1.000  C
  C72      1.0000 0.26580  0.64520  0.44363  Biso   1.000  C
  C73      1.0000 0.53900  0.19810  0.27840  Biso   1.000  C
  C74      1.0000 0.70130  0.20090  0.28180  Biso   1.000  C
  C75      1.0000 0.79770  0.19190  0.26263  Biso   1.000  C
  C76      1.0000 0.96350  0.19040  0.26560  Biso   1.000  C
  C77      1.0000 0.24460  0.91180  0.28397  Biso   1.000  C
  C78      1.0000 0.25120  0.74390  0.28617  Biso   1.000  C
  C79      1.0000 0.24320  0.64920  0.26670  Biso   1.000  C
  C80      1.0000 0.24730  0.48540  0.26951  Biso   1.000  C
  C81      1.0000 0.86660  0.35820  0.02795  Biso   1.000  C
  C82      1.0000 0.04290  0.35700  0.03051  Biso   1.000  C
  C83      1.0000 0.13060  0.36010  0.01189  Biso   1.000  C
  C84      1.0000 0.29830  0.35350  0.01393  Biso   1.000  C
  C85      1.0000 0.59660  0.06950  0.01426  Biso   1.000  C
  C86      1.0000 0.58650  0.89940  0.01209  Biso   1.000  C
  C87      1.0000 0.58400  0.80950  0.03136  Biso   1.000  C
  C88      1.0000 0.58490  0.64240  0.02906  Biso   1.000  C
  N1       1.0000 0.68580  0.82930  0.70912  Biso   1.000  N
  N2       1.0000 0.47390  0.70770  0.58456  Biso   1.000  N
  N3       1.0000 0.77280  0.72270  0.83916  Biso   1.000  N
  N4       1.0000 0.64430  0.43280  0.95835  Biso   1.000  N
  N5       1.0000 0.31420  0.17070  0.20912  Biso   1.000  N
  N6       1.0000 0.52610  0.29230  0.08456  Biso   1.000  N
  N7       1.0000 0.22720  0.27730  0.33916  Biso   1.000  N
  N8       1.0000 0.35570  0.56720  0.45835  Biso   1.000  N
  O1       1.0000 0.76050  0.33540  0.64851  Biso   1.000  O
  O2       1.0000 0.49870  0.14780  0.65457  Biso   1.000  O
  O3       1.0000 0.26720  0.73130  0.89930  Biso   1.000  O
  O4       1.0000 0.06020  0.48740  0.88780  Biso   1.000  O
  O5       1.0000 0.51760  0.79300  0.75636  Biso   1.000  O
  O6       1.0000 0.53910  0.80700  0.79806  Biso   1.000  O
  O7       1.0000 0.95800  0.84300  0.74582  Biso   1.000  O
  O8       1.0000 0.97730  0.78700  0.78629  Biso   1.000  O
  O9       1.0000 0.72410  0.03130  0.76339  Biso   1.000  O
  O10      1.0000 0.77920  0.01550  0.80374  Biso   1.000  O
  O11      1.0000 0.75730  0.59240  0.75027  Biso   1.000  O
  O12      1.0000 0.75290  0.56890  0.79053  Biso   1.000  O
  O13      1.0000 0.20320  0.65260  0.54702  Biso   1.000  O
  O14      1.0000 0.18050  0.63590  0.50674  Biso   1.000  O
  O15      1.0000 0.64810  0.65310  0.53526  Biso   1.000  O
  O16      1.0000 0.62620  0.64060  0.49452  Biso   1.000  O
  O17      1.0000 0.41820  0.87710  0.53522  Biso   1.000  O
  O18      1.0000 0.39700  0.85840  0.49462  Biso   1.000  O
  O19      1.0000 0.43520  0.43330  0.54888  Biso   1.000  O
  O20      1.0000 0.41100  0.41580  0.50730  Biso   1.000  O
  O21      1.0000 0.23950  0.66460  0.14851  Biso   1.000  O
  O22      1.0000 0.50130  0.85220  0.15457  Biso   1.000  O
  O23      1.0000 0.73280  0.26870  0.39930  Biso   1.000  O
  O24      1.0000 0.93980  0.51260  0.38780  Biso   1.000  O
  O25      1.0000 0.48240  0.20700  0.25636  Biso   1.000  O
  O26      1.0000 0.46090  0.19300  0.29806  Biso   1.000  O
  O27      1.0000 0.04200  0.15700  0.24582  Biso   1.000  O
  O28      1.0000 0.02270  0.21300  0.28629  Biso   1.000  O
  O29      1.0000 0.27590  0.96870  0.26339  Biso   1.000  O
  O30      1.0000 0.22080  0.98450  0.30374  Biso   1.000  O
  O31      1.0000 0.24270  0.40760  0.25027  Biso   1.000  O
  O32      1.0000 0.24710  0.43110  0.29053  Biso   1.000  O
  O33      1.0000 0.79680  0.34740  0.04702  Biso   1.000  O
  O34      1.0000 0.81950  0.36410  0.00674  Biso   1.000  O
  O35      1.0000 0.35190  0.34690  0.03526  Biso   1.000  O
  O36      1.0000 0.37380  0.35940  0.99452  Biso   1.000  O
  O37      1.0000 0.58180  0.12290  0.03522  Biso   1.000  O
  O38      1.0000 0.60300  0.14160  0.99462  Biso   1.000  O
  O39      1.0000 0.56480  0.56670  0.04888  Biso   1.000  O
  O40      1.0000 0.58900  0.58420  0.00730  Biso   1.000  O
