data_image0
_cell_length_a       13.244
_cell_length_b       14.521
_cell_length_c       15.695
_cell_angle_alpha    90
_cell_angle_beta     92.746
_cell_angle_gamma    90

_symmetry_space_group_name_H-M    "P 1"
_symmetry_int_tables_number       1

loop_
  _symmetry_equiv_pos_as_xyz
  'x, y, z'

loop_
  _atom_site_label
  _atom_site_occupancy
  _atom_site_fract_x
  _atom_site_fract_y
  _atom_site_fract_z
  _atom_site_thermal_displace_type
  _atom_site_B_iso_or_equiv
  _atom_site_type_symbol
  Cu1      1.0000 0.52973  0.20030  0.39005  Biso   1.000  Cu
  C1       1.0000 0.82470  0.85270  0.12660  Biso   1.000  C
  H1       1.0000 0.84640  0.86980  0.07340  Biso   1.000  H
  C2       1.0000 0.75840  0.91020  0.16530  Biso   1.000  C
  H2       1.0000 0.73780  0.96530  0.13970  Biso   1.000  H
  C3       1.0000 0.72350  0.88460  0.24250  Biso   1.000  C
  C4       1.0000 0.75870  0.80210  0.27830  Biso   1.000  C
  H3       1.0000 0.73690  0.78270  0.33080  Biso   1.000  H
  C5       1.0000 0.82600  0.74970  0.23530  Biso   1.000  C
  H4       1.0000 0.84910  0.69480  0.25950  Biso   1.000  H
  C6       1.0000 0.65580  0.94320  0.29060  Biso   1.000  C
  C7       1.0000 0.09100  0.82670  0.21610  Biso   1.000  C
  H5       1.0000 0.05810  0.87050  0.18160  Biso   1.000  H
  C8       1.0000 0.16430  0.85730  0.27580  Biso   1.000  C
  H6       1.0000 0.18450  0.91870  0.27640  Biso   1.000  H
  C9       1.0000 0.20530  0.79810  0.33220  Biso   1.000  C
  C10      1.0000 0.17420  0.70920  0.32640  Biso   1.000  C
  H7       1.0000 0.19880  0.66590  0.36590  Biso   1.000  H
  C11      1.0000 0.10570  0.68330  0.26130  Biso   1.000  C
  H8       1.0000 0.08710  0.62170  0.25670  Biso   1.000  H
  C12      1.0000 0.28320  0.82820  0.39700  Biso   1.000  C
  N1       1.0000 0.85940  0.77520  0.15950  Biso   1.000  N
  N2       1.0000 0.63340  0.03100  0.27080  Biso   1.000  N
  N3       1.0000 0.57630  0.05870  0.33420  Biso   1.000  N
  N4       1.0000 0.56560  0.98950  0.38700  Biso   1.000  N
  N5       1.0000 0.61430  0.91590  0.36200  Biso   1.000  N
  N6       1.0000 0.06580  0.74270  0.20550  Biso   1.000  N
  N7       1.0000 0.33140  0.90780  0.39390  Biso   1.000  N
  N8       1.0000 0.39420  0.90540  0.46200  Biso   1.000  N
  N9       1.0000 0.38360  0.82840  0.50400  Biso   1.000  N
  N10      1.0000 0.31270  0.77630  0.46410  Biso   1.000  N
  N11      1.0000 0.42000  0.13130  0.44190  Biso   1.000  N
  N12      1.0000 0.33980  0.15310  0.44370  Biso   1.000  N
  N13      1.0000 0.25090  0.16290  0.43340  Biso   1.000  N
  Cu2      1.0000 0.97027  0.70030  0.10995  Biso   1.000  Cu
  C13      1.0000 0.67530  0.35270  0.37340  Biso   1.000  C
  H9       1.0000 0.65360  0.36980  0.42660  Biso   1.000  H
  C14      1.0000 0.74160  0.41020  0.33470  Biso   1.000  C
  H10      1.0000 0.76220  0.46530  0.36030  Biso   1.000  H
  C15      1.0000 0.77650  0.38460  0.25750  Biso   1.000  C
  C16      1.0000 0.74130  0.30210  0.22170  Biso   1.000  C
  H11      1.0000 0.76310  0.28270  0.16920  Biso   1.000  H
  C17      1.0000 0.67400  0.24970  0.26470  Biso   1.000  C
  H12      1.0000 0.65090  0.19480  0.24050  Biso   1.000  H
  C18      1.0000 0.84420  0.44320  0.20940  Biso   1.000  C
  C19      1.0000 0.40900  0.32670  0.28390  Biso   1.000  C
  H13      1.0000 0.44190  0.37050  0.31840  Biso   1.000  H
  C20      1.0000 0.33570  0.35730  0.22420  Biso   1.000  C
  H14      1.0000 0.31550  0.41870  0.22360  Biso   1.000  H
  C21      1.0000 0.29470  0.29810  0.16780  Biso   1.000  C
  C22      1.0000 0.32580  0.20920  0.17360  Biso   1.000  C
  H15      1.0000 0.30120  0.16590  0.13410  Biso   1.000  H
  C23      1.0000 0.39430  0.18330  0.23870  Biso   1.000  C
  H16      1.0000 0.41290  0.12170  0.24330  Biso   1.000  H
  C24      1.0000 0.21680  0.32820  0.10300  Biso   1.000  C
  N14      1.0000 0.64060  0.27520  0.34050  Biso   1.000  N
  N15      1.0000 0.86660  0.53100  0.22920  Biso   1.000  N
  N16      1.0000 0.92370  0.55870  0.16580  Biso   1.000  N
  N17      1.0000 0.93440  0.48950  0.11300  Biso   1.000  N
  N18      1.0000 0.88570  0.41590  0.13800  Biso   1.000  N
  N19      1.0000 0.43420  0.24270  0.29450  Biso   1.000  N
  N20      1.0000 0.16860  0.40780  0.10610  Biso   1.000  N
  N21      1.0000 0.10580  0.40540  0.03800  Biso   1.000  N
  N22      1.0000 0.11640  0.32840  0.99600  Biso   1.000  N
  N23      1.0000 0.18730  0.27630  0.03590  Biso   1.000  N
  N24      1.0000 0.08000  0.63130  0.05810  Biso   1.000  N
  N25      1.0000 0.16020  0.65310  0.05630  Biso   1.000  N
  N26      1.0000 0.24910  0.66290  0.06660  Biso   1.000  N
  Cu3      1.0000 0.47027  0.79970  0.60995  Biso   1.000  Cu
  C25      1.0000 0.17530  0.14730  0.87340  Biso   1.000  C
  H17      1.0000 0.15360  0.13020  0.92660  Biso   1.000  H
  C26      1.0000 0.24160  0.08980  0.83470  Biso   1.000  C
  H18      1.0000 0.26220  0.03470  0.86030  Biso   1.000  H
  C27      1.0000 0.27650  0.11540  0.75750  Biso   1.000  C
  C28      1.0000 0.24130  0.19790  0.72170  Biso   1.000  C
  H19      1.0000 0.26310  0.21730  0.66920  Biso   1.000  H
  C29      1.0000 0.17400  0.25030  0.76470  Biso   1.000  C
  H20      1.0000 0.15090  0.30520  0.74050  Biso   1.000  H
  C30      1.0000 0.34420  0.05680  0.70940  Biso   1.000  C
  C31      1.0000 0.90900  0.17330  0.78390  Biso   1.000  C
  H21      1.0000 0.94190  0.12950  0.81840  Biso   1.000  H
  C32      1.0000 0.83570  0.14270  0.72420  Biso   1.000  C
  H22      1.0000 0.81550  0.08130  0.72360  Biso   1.000  H
  C33      1.0000 0.79470  0.20190  0.66780  Biso   1.000  C
  C34      1.0000 0.82580  0.29080  0.67360  Biso   1.000  C
  H23      1.0000 0.80120  0.33410  0.63410  Biso   1.000  H
  C35      1.0000 0.89430  0.31670  0.73870  Biso   1.000  C
  H24      1.0000 0.91290  0.37830  0.74330  Biso   1.000  H
  C36      1.0000 0.71680  0.17180  0.60300  Biso   1.000  C
  N27      1.0000 0.14060  0.22480  0.84050  Biso   1.000  N
  N28      1.0000 0.36660  0.96900  0.72920  Biso   1.000  N
  N29      1.0000 0.42370  0.94130  0.66580  Biso   1.000  N
  N30      1.0000 0.43440  0.01050  0.61300  Biso   1.000  N
  N31      1.0000 0.38570  0.08410  0.63800  Biso   1.000  N
  N32      1.0000 0.93420  0.25730  0.79450  Biso   1.000  N
  N33      1.0000 0.66860  0.09220  0.60610  Biso   1.000  N
  N34      1.0000 0.60580  0.09460  0.53800  Biso   1.000  N
  N35      1.0000 0.61640  0.17160  0.49600  Biso   1.000  N
  N36      1.0000 0.68730  0.22370  0.53590  Biso   1.000  N
  N37      1.0000 0.58000  0.86870  0.55810  Biso   1.000  N
  N38      1.0000 0.66020  0.84690  0.55630  Biso   1.000  N
  N39      1.0000 0.74910  0.83710  0.56660  Biso   1.000  N
  Cu4      1.0000 0.02973  0.29970  0.89005  Biso   1.000  Cu
  C37      1.0000 0.32470  0.64730  0.62660  Biso   1.000  C
  H25      1.0000 0.34640  0.63020  0.57340  Biso   1.000  H
  C38      1.0000 0.25840  0.58980  0.66530  Biso   1.000  C
  H26      1.0000 0.23780  0.53470  0.63970  Biso   1.000  H
  C39      1.0000 0.22350  0.61540  0.74250  Biso   1.000  C
  C40      1.0000 0.25870  0.69790  0.77830  Biso   1.000  C
  H27      1.0000 0.23690  0.71730  0.83080  Biso   1.000  H
  C41      1.0000 0.32600  0.75030  0.73530  Biso   1.000  C
  H28      1.0000 0.34910  0.80520  0.75950  Biso   1.000  H
  C42      1.0000 0.15580  0.55680  0.79060  Biso   1.000  C
  C43      1.0000 0.59100  0.67330  0.71610  Biso   1.000  C
  H29      1.0000 0.55810  0.62950  0.68160  Biso   1.000  H
  C44      1.0000 0.66430  0.64270  0.77580  Biso   1.000  C
  H30      1.0000 0.68450  0.58130  0.77640  Biso   1.000  H
  C45      1.0000 0.70530  0.70190  0.83220  Biso   1.000  C
  C46      1.0000 0.67420  0.79080  0.82640  Biso   1.000  C
  H31      1.0000 0.69880  0.83410  0.86590  Biso   1.000  H
  C47      1.0000 0.60570  0.81670  0.76130  Biso   1.000  C
  H32      1.0000 0.58710  0.87830  0.75670  Biso   1.000  H
  C48      1.0000 0.78320  0.67180  0.89700  Biso   1.000  C
  N40      1.0000 0.35940  0.72480  0.65950  Biso   1.000  N
  N41      1.0000 0.13340  0.46900  0.77080  Biso   1.000  N
  N42      1.0000 0.07630  0.44130  0.83420  Biso   1.000  N
  N43      1.0000 0.06560  0.51050  0.88700  Biso   1.000  N
  N44      1.0000 0.11430  0.58410  0.86200  Biso   1.000  N
  N45      1.0000 0.56580  0.75730  0.70550  Biso   1.000  N
  N46      1.0000 0.83140  0.59220  0.89390  Biso   1.000  N
  N47      1.0000 0.89420  0.59460  0.96200  Biso   1.000  N
  N48      1.0000 0.88360  0.67160  0.00400  Biso   1.000  N
  N49      1.0000 0.81270  0.72370  0.96410  Biso   1.000  N
  N50      1.0000 0.92000  0.36870  0.94190  Biso   1.000  N
  N51      1.0000 0.83980  0.34690  0.94370  Biso   1.000  N
  N52      1.0000 0.75090  0.33710  0.93340  Biso   1.000  N
  Cu5      1.0000 0.50000  0.00000  0.50000  Biso   1.000  Cu
  Cu6      1.0000 0.00000  0.50000  0.00000  Biso   1.000  Cu
