data_image0
_cell_length_a       6.468
_cell_length_b       9.9391
_cell_length_c       9.9391
_cell_angle_alpha    119.448
_cell_angle_beta     105.376
_cell_angle_gamma    74.6243

_symmetry_space_group_name_H-M    P 1
_symmetry_int_tables_number       1

loop_
  _symmetry_equiv_pos_as_xyz
  'x, y, z'

loop_
  _atom_site_label
  _atom_site_occupancy
  _atom_site_fract_x
  _atom_site_fract_y
  _atom_site_fract_z
  _atom_site_thermal_displace_type
  _atom_site_B_iso_or_equiv
  _atom_site_type_symbol
  Co1      1.0000 0.50000  0.00000  0.00000  Biso   1.000  Co
  Co2      1.0000 1.00000  0.84774  0.84774  Biso   1.000  Co
  Co3      1.0000 0.00000  0.15226  0.15226  Biso   1.000  Co
  H1       1.0000 0.68820  0.57780  0.06240  Biso   1.000  H
  H2       1.0000 0.61550  0.45570  0.88390  Biso   1.000  H
  H3       1.0000 0.72250  0.67690  0.79530  Biso   1.000  H
  H4       1.0000 0.94160  0.67350  0.80330  Biso   1.000  H
  H5       1.0000 0.31180  0.06240  0.57780  Biso   1.000  H
  H6       1.0000 0.38450  0.88390  0.45570  Biso   1.000  H
  H7       1.0000 0.27750  0.79530  0.67690  Biso   1.000  H
  H8       1.0000 0.05840  0.80330  0.67350  Biso   1.000  H
  H9       1.0000 0.31180  0.42220  0.93760  Biso   1.000  H
  H10      1.0000 0.38450  0.54430  0.11610  Biso   1.000  H
  H11      1.0000 0.27750  0.32310  0.20470  Biso   1.000  H
  H12      1.0000 0.05840  0.32650  0.19670  Biso   1.000  H
  H13      1.0000 0.68820  0.93760  0.42220  Biso   1.000  H
  H14      1.0000 0.61550  0.11610  0.54430  Biso   1.000  H
  H15      1.0000 0.72250  0.20470  0.32310  Biso   1.000  H
  H16      1.0000 0.94160  0.19670  0.32650  Biso   1.000  H
  H17      1.0000 0.15730  0.08210  0.91790  Biso   1.000  H
  H18      1.0000 0.84270  0.91790  0.08210  Biso   1.000  H
  C1       1.0000 0.42800  0.68191  0.95789  Biso   1.000  C
  C2       1.0000 0.56100  0.54544  0.98696  Biso   1.000  C
  C3       1.0000 0.57200  0.95789  0.68191  Biso   1.000  C
  C4       1.0000 0.43900  0.98696  0.54544  Biso   1.000  C
  C5       1.0000 0.57200  0.31809  0.04211  Biso   1.000  C
  C6       1.0000 0.43900  0.45456  0.01304  Biso   1.000  C
  C7       1.0000 0.42800  0.04211  0.31809  Biso   1.000  C
  C8       1.0000 0.56100  0.01304  0.45456  Biso   1.000  C
  O1       1.0000 0.22550  0.71037  0.95303  Biso   1.000  O
  O2       1.0000 0.53290  0.75884  0.93774  Biso   1.000  O
  O3       1.0000 0.82150  0.65789  0.73971  Biso   1.000  O
  O4       1.0000 0.77450  0.95303  0.71037  Biso   1.000  O
  O5       1.0000 0.46710  0.93774  0.75884  Biso   1.000  O
  O6       1.0000 0.17850  0.73971  0.65789  Biso   1.000  O
  O7       1.0000 0.77450  0.28963  0.04697  Biso   1.000  O
  O8       1.0000 0.46710  0.24116  0.06226  Biso   1.000  O
  O9       1.0000 0.17850  0.34211  0.26029  Biso   1.000  O
  O10      1.0000 0.22550  0.04697  0.28963  Biso   1.000  O
  O11      1.0000 0.53290  0.06226  0.24116  Biso   1.000  O
  O12      1.0000 0.82150  0.26029  0.34211  Biso   1.000  O
  O13      1.0000 0.16830  0.03458  0.96542  Biso   1.000  O
  O14      1.0000 0.83170  0.96542  0.03458  Biso   1.000  O
