data_image0
_cell_length_a       11.1607
_cell_length_b       11.1607
_cell_length_c       21.978
_cell_angle_alpha    90
_cell_angle_beta     90
_cell_angle_gamma    90

_symmetry_space_group_name_H-M    "P 1"
_symmetry_int_tables_number       1

loop_
  _symmetry_equiv_pos_as_xyz
  'x, y, z'

loop_
  _atom_site_label
  _atom_site_occupancy
  _atom_site_fract_x
  _atom_site_fract_y
  _atom_site_fract_z
  _atom_site_thermal_displace_type
  _atom_site_B_iso_or_equiv
  _atom_site_type_symbol
  O1       1.0000 0.59290  0.14540  0.26015  Biso   1.000  O
  N1       1.0000 0.74210  0.12550  0.19070  Biso   1.000  N
  H1       1.0000 0.71790  0.05320  0.18060  Biso   1.000  H
  H2       1.0000 0.80510  0.15710  0.17260  Biso   1.000  H
  C1       1.0000 0.72350  0.30480  0.24900  Biso   1.000  C
  N2       1.0000 0.88790  0.40730  0.18797  Biso   1.000  N
  C2       1.0000 0.81530  0.36230  0.21696  Biso   1.000  C
  N3       1.0000 0.61060  0.41490  0.33300  Biso   1.000  N
  C3       1.0000 0.66280  0.36710  0.29490  Biso   1.000  C
  C4       1.0000 0.68370  0.18720  0.23310  Biso   1.000  C
  O2       1.0000 0.09290  0.64540  0.76015  Biso   1.000  O
  N4       1.0000 0.24210  0.62550  0.69070  Biso   1.000  N
  H3       1.0000 0.21790  0.55320  0.68060  Biso   1.000  H
  H4       1.0000 0.30510  0.65710  0.67260  Biso   1.000  H
  C5       1.0000 0.22350  0.80480  0.74900  Biso   1.000  C
  N5       1.0000 0.38790  0.90730  0.68797  Biso   1.000  N
  C6       1.0000 0.31530  0.86230  0.71696  Biso   1.000  C
  N6       1.0000 0.11060  0.91490  0.83300  Biso   1.000  N
  C7       1.0000 0.16280  0.86710  0.79490  Biso   1.000  C
  C8       1.0000 0.18370  0.68720  0.73310  Biso   1.000  C
  O3       1.0000 0.40710  0.85460  0.26015  Biso   1.000  O
  N7       1.0000 0.25790  0.87450  0.19070  Biso   1.000  N
  H5       1.0000 0.28210  0.94680  0.18060  Biso   1.000  H
  H6       1.0000 0.19490  0.84290  0.17260  Biso   1.000  H
  C9       1.0000 0.27650  0.69520  0.24900  Biso   1.000  C
  N8       1.0000 0.11210  0.59270  0.18797  Biso   1.000  N
  C10      1.0000 0.18470  0.63770  0.21696  Biso   1.000  C
  N9       1.0000 0.38940  0.58510  0.33300  Biso   1.000  N
  C11      1.0000 0.33720  0.63290  0.29490  Biso   1.000  C
  C12      1.0000 0.31630  0.81280  0.23310  Biso   1.000  C
  O4       1.0000 0.90710  0.35460  0.76015  Biso   1.000  O
  N10      1.0000 0.75790  0.37450  0.69070  Biso   1.000  N
  H7       1.0000 0.78210  0.44680  0.68060  Biso   1.000  H
  H8       1.0000 0.69490  0.34290  0.67260  Biso   1.000  H
  C13      1.0000 0.77650  0.19520  0.74900  Biso   1.000  C
  N11      1.0000 0.61210  0.09270  0.68797  Biso   1.000  N
  C14      1.0000 0.68470  0.13770  0.71696  Biso   1.000  C
  N12      1.0000 0.88940  0.08510  0.83300  Biso   1.000  N
  C15      1.0000 0.83720  0.13290  0.79490  Biso   1.000  C
  C16      1.0000 0.81630  0.31280  0.73310  Biso   1.000  C
  O5       1.0000 0.14540  0.40710  0.73985  Biso   1.000  O
  N13      1.0000 0.12550  0.25790  0.80930  Biso   1.000  N
  H9       1.0000 0.05320  0.28210  0.81940  Biso   1.000  H
  H10      1.0000 0.15710  0.19490  0.82740  Biso   1.000  H
  C17      1.0000 0.30480  0.27650  0.75100  Biso   1.000  C
  N14      1.0000 0.40730  0.11210  0.81203  Biso   1.000  N
  C18      1.0000 0.36230  0.18470  0.78304  Biso   1.000  C
  N15      1.0000 0.41490  0.38940  0.66700  Biso   1.000  N
  C19      1.0000 0.36710  0.33720  0.70510  Biso   1.000  C
  C20      1.0000 0.18720  0.31630  0.76690  Biso   1.000  C
  O6       1.0000 0.64540  0.90710  0.23985  Biso   1.000  O
  N16      1.0000 0.62550  0.75790  0.30930  Biso   1.000  N
  H11      1.0000 0.55320  0.78210  0.31940  Biso   1.000  H
  H12      1.0000 0.65710  0.69490  0.32740  Biso   1.000  H
  C21      1.0000 0.80480  0.77650  0.25100  Biso   1.000  C
  N17      1.0000 0.90730  0.61210  0.31203  Biso   1.000  N
  C22      1.0000 0.86230  0.68470  0.28304  Biso   1.000  C
  N18      1.0000 0.91490  0.88940  0.16700  Biso   1.000  N
  C23      1.0000 0.86710  0.83720  0.20510  Biso   1.000  C
  C24      1.0000 0.68720  0.81630  0.26690  Biso   1.000  C
  O7       1.0000 0.85460  0.59290  0.73985  Biso   1.000  O
  N19      1.0000 0.87450  0.74210  0.80930  Biso   1.000  N
  H13      1.0000 0.94680  0.71790  0.81940  Biso   1.000  H
  H14      1.0000 0.84290  0.80510  0.82740  Biso   1.000  H
  C25      1.0000 0.69520  0.72350  0.75100  Biso   1.000  C
  N20      1.0000 0.59270  0.88790  0.81203  Biso   1.000  N
  C26      1.0000 0.63770  0.81530  0.78304  Biso   1.000  C
  N21      1.0000 0.58510  0.61060  0.66700  Biso   1.000  N
  C27      1.0000 0.63290  0.66280  0.70510  Biso   1.000  C
  C28      1.0000 0.81280  0.68370  0.76690  Biso   1.000  C
  O8       1.0000 0.35460  0.09290  0.23985  Biso   1.000  O
  N22      1.0000 0.37450  0.24210  0.30930  Biso   1.000  N
  H15      1.0000 0.44680  0.21790  0.31940  Biso   1.000  H
  H16      1.0000 0.34290  0.30510  0.32740  Biso   1.000  H
  C29      1.0000 0.19520  0.22350  0.25100  Biso   1.000  C
  N23      1.0000 0.09270  0.38790  0.31203  Biso   1.000  N
  C30      1.0000 0.13770  0.31530  0.28304  Biso   1.000  C
  N24      1.0000 0.08510  0.11060  0.16700  Biso   1.000  N
  C31      1.0000 0.13290  0.16280  0.20510  Biso   1.000  C
  C32      1.0000 0.31280  0.18370  0.26690  Biso   1.000  C
  O9       1.0000 0.90710  0.14540  0.48985  Biso   1.000  O
  N25      1.0000 0.75790  0.12550  0.55930  Biso   1.000  N
  H17      1.0000 0.78210  0.05320  0.56940  Biso   1.000  H
  H18      1.0000 0.69490  0.15710  0.57740  Biso   1.000  H
  C33      1.0000 0.77650  0.30480  0.50100  Biso   1.000  C
  N26      1.0000 0.61210  0.40730  0.56203  Biso   1.000  N
  C34      1.0000 0.68470  0.36230  0.53304  Biso   1.000  C
  N27      1.0000 0.88940  0.41490  0.41700  Biso   1.000  N
  C35      1.0000 0.83720  0.36710  0.45510  Biso   1.000  C
  C36      1.0000 0.81630  0.18720  0.51690  Biso   1.000  C
  O10      1.0000 0.40710  0.64540  0.98985  Biso   1.000  O
  N28      1.0000 0.25790  0.62550  0.05930  Biso   1.000  N
  H19      1.0000 0.28210  0.55320  0.06940  Biso   1.000  H
  H20      1.0000 0.19490  0.65710  0.07740  Biso   1.000  H
  C37      1.0000 0.27650  0.80480  0.00100  Biso   1.000  C
  N29      1.0000 0.11210  0.90730  0.06203  Biso   1.000  N
  C38      1.0000 0.18470  0.86230  0.03304  Biso   1.000  C
  N30      1.0000 0.38940  0.91490  0.91700  Biso   1.000  N
  C39      1.0000 0.33720  0.86710  0.95510  Biso   1.000  C
  C40      1.0000 0.31630  0.68720  0.01690  Biso   1.000  C
  O11      1.0000 0.09290  0.85460  0.48985  Biso   1.000  O
  N31      1.0000 0.24210  0.87450  0.55930  Biso   1.000  N
  H21      1.0000 0.21790  0.94680  0.56940  Biso   1.000  H
  H22      1.0000 0.30510  0.84290  0.57740  Biso   1.000  H
  C41      1.0000 0.22350  0.69520  0.50100  Biso   1.000  C
  N32      1.0000 0.38790  0.59270  0.56203  Biso   1.000  N
  C42      1.0000 0.31530  0.63770  0.53304  Biso   1.000  C
  N33      1.0000 0.11060  0.58510  0.41700  Biso   1.000  N
  C43      1.0000 0.16280  0.63290  0.45510  Biso   1.000  C
  C44      1.0000 0.18370  0.81280  0.51690  Biso   1.000  C
  O12      1.0000 0.59290  0.35460  0.98985  Biso   1.000  O
  N34      1.0000 0.74210  0.37450  0.05930  Biso   1.000  N
  H23      1.0000 0.71790  0.44680  0.06940  Biso   1.000  H
  H24      1.0000 0.80510  0.34290  0.07740  Biso   1.000  H
  C45      1.0000 0.72350  0.19520  0.00100  Biso   1.000  C
  N35      1.0000 0.88790  0.09270  0.06203  Biso   1.000  N
  C46      1.0000 0.81530  0.13770  0.03304  Biso   1.000  C
  N36      1.0000 0.61060  0.08510  0.91700  Biso   1.000  N
  C47      1.0000 0.66280  0.13290  0.95510  Biso   1.000  C
  C48      1.0000 0.68370  0.31280  0.01690  Biso   1.000  C
  O13      1.0000 0.35460  0.40710  0.01015  Biso   1.000  O
  N37      1.0000 0.37450  0.25790  0.94070  Biso   1.000  N
  H25      1.0000 0.44680  0.28210  0.93060  Biso   1.000  H
  H26      1.0000 0.34290  0.19490  0.92260  Biso   1.000  H
  C49      1.0000 0.19520  0.27650  0.99900  Biso   1.000  C
  N38      1.0000 0.09270  0.11210  0.93797  Biso   1.000  N
  C50      1.0000 0.13770  0.18470  0.96696  Biso   1.000  C
  N39      1.0000 0.08510  0.38940  0.08300  Biso   1.000  N
  C51      1.0000 0.13290  0.33720  0.04490  Biso   1.000  C
  C52      1.0000 0.31280  0.31630  0.98310  Biso   1.000  C
  O14      1.0000 0.85460  0.90710  0.51015  Biso   1.000  O
  N40      1.0000 0.87450  0.75790  0.44070  Biso   1.000  N
  H27      1.0000 0.94680  0.78210  0.43060  Biso   1.000  H
  H28      1.0000 0.84290  0.69490  0.42260  Biso   1.000  H
  C53      1.0000 0.69520  0.77650  0.49900  Biso   1.000  C
  N41      1.0000 0.59270  0.61210  0.43797  Biso   1.000  N
  C54      1.0000 0.63770  0.68470  0.46696  Biso   1.000  C
  N42      1.0000 0.58510  0.88940  0.58300  Biso   1.000  N
  C55      1.0000 0.63290  0.83720  0.54490  Biso   1.000  C
  C56      1.0000 0.81280  0.81630  0.48310  Biso   1.000  C
  O15      1.0000 0.64540  0.59290  0.01015  Biso   1.000  O
  N43      1.0000 0.62550  0.74210  0.94070  Biso   1.000  N
  H29      1.0000 0.55320  0.71790  0.93060  Biso   1.000  H
  H30      1.0000 0.65710  0.80510  0.92260  Biso   1.000  H
  C57      1.0000 0.80480  0.72350  0.99900  Biso   1.000  C
  N44      1.0000 0.90730  0.88790  0.93797  Biso   1.000  N
  C58      1.0000 0.86230  0.81530  0.96696  Biso   1.000  C
  N45      1.0000 0.91490  0.61060  0.08300  Biso   1.000  N
  C59      1.0000 0.86710  0.66280  0.04490  Biso   1.000  C
  C60      1.0000 0.68720  0.68370  0.98310  Biso   1.000  C
  O16      1.0000 0.14540  0.09290  0.51015  Biso   1.000  O
  N46      1.0000 0.12550  0.24210  0.44070  Biso   1.000  N
  H31      1.0000 0.05320  0.21790  0.43060  Biso   1.000  H
  H32      1.0000 0.15710  0.30510  0.42260  Biso   1.000  H
  C61      1.0000 0.30480  0.22350  0.49900  Biso   1.000  C
  N47      1.0000 0.40730  0.38790  0.43797  Biso   1.000  N
  C62      1.0000 0.36230  0.31530  0.46696  Biso   1.000  C
  N48      1.0000 0.41490  0.11060  0.58300  Biso   1.000  N
  C63      1.0000 0.36710  0.16280  0.54490  Biso   1.000  C
  C64      1.0000 0.18720  0.18370  0.48310  Biso   1.000  C
  Cu1      1.0000 0.50000  0.50000  0.38882  Biso   1.000  Cu
  Cu2      1.0000 0.00000  0.00000  0.88882  Biso   1.000  Cu
  Cu3      1.0000 0.50000  0.50000  0.61118  Biso   1.000  Cu
  Cu4      1.0000 0.00000  0.00000  0.11118  Biso   1.000  Cu
  Cu5      1.0000 0.00000  0.50000  0.36118  Biso   1.000  Cu
  Cu6      1.0000 0.50000  0.00000  0.86118  Biso   1.000  Cu
  Cu7      1.0000 0.00000  0.50000  0.13882  Biso   1.000  Cu
  Cu8      1.0000 0.50000  0.00000  0.63882  Biso   1.000  Cu
  Cu9      1.0000 0.50000  0.00000  0.25000  Biso   1.000  Cu
  Cu10     1.0000 0.00000  0.50000  0.75000  Biso   1.000  Cu
  Cu11     1.0000 0.00000  0.00000  0.50000  Biso   1.000  Cu
  Cu12     1.0000 0.50000  0.50000  0.00000  Biso   1.000  Cu
