data_image0
_cell_length_a       16.215
_cell_length_b       17.174
_cell_length_c       18.104
_cell_angle_alpha    90
_cell_angle_beta     90
_cell_angle_gamma    90

_symmetry_space_group_name_H-M    P 1
_symmetry_int_tables_number       1

loop_
  _symmetry_equiv_pos_as_xyz
  'x, y, z'

loop_
  _atom_site_label
  _atom_site_occupancy
  _atom_site_fract_x
  _atom_site_fract_y
  _atom_site_fract_z
  _atom_site_thermal_displace_type
  _atom_site_B_iso_or_equiv
  _atom_site_type_symbol
  Zn1      1.0000 0.27855  0.75678  0.76233  Biso   1.000  Zn
  Zn2      1.0000 0.22701  0.14339  0.12029  Biso   1.000  Zn
  Zn3      1.0000 0.88836  0.26907  0.82070  Biso   1.000  Zn
  Zn4      1.0000 0.31072  0.07961  0.27090  Biso   1.000  Zn
  Zn5      1.0000 0.22145  0.24322  0.26233  Biso   1.000  Zn
  Zn6      1.0000 0.27299  0.85661  0.62029  Biso   1.000  Zn
  Zn7      1.0000 0.61164  0.73093  0.32070  Biso   1.000  Zn
  Zn8      1.0000 0.18928  0.92039  0.77090  Biso   1.000  Zn
  Zn9      1.0000 0.72145  0.25678  0.73767  Biso   1.000  Zn
  Zn10     1.0000 0.77299  0.64339  0.37971  Biso   1.000  Zn
  Zn11     1.0000 0.11164  0.76907  0.67930  Biso   1.000  Zn
  Zn12     1.0000 0.68928  0.57961  0.22910  Biso   1.000  Zn
  Zn13     1.0000 0.77855  0.74322  0.23767  Biso   1.000  Zn
  Zn14     1.0000 0.72701  0.35661  0.87971  Biso   1.000  Zn
  Zn15     1.0000 0.38836  0.23093  0.17930  Biso   1.000  Zn
  Zn16     1.0000 0.81072  0.42039  0.72910  Biso   1.000  Zn
  H1       1.0000 0.22280  0.93110  0.99570  Biso   1.000  H
  H2       1.0000 0.36100  0.73760  0.98310  Biso   1.000  H
  H3       1.0000 0.37710  0.87370  0.16450  Biso   1.000  H
  H4       1.0000 0.45660  0.75820  0.16200  Biso   1.000  H
  H5       1.0000 0.41500  0.68750  0.11800  Biso   1.000  H
  H6       1.0000 0.48770  0.73680  0.08060  Biso   1.000  H
  H7       1.0000 0.03600  0.52680  0.73370  Biso   1.000  H
  H8       1.0000 0.28510  0.51510  0.75290  Biso   1.000  H
  H9       1.0000 0.14660  0.32140  0.77790  Biso   1.000  H
  H10      1.0000 0.35530  0.39860  0.76750  Biso   1.000  H
  H11      1.0000 0.30870  0.33960  0.82170  Biso   1.000  H
  H12      1.0000 0.30980  0.32350  0.73460  Biso   1.000  H
  H13      1.0000 0.53060  0.70710  0.74770  Biso   1.000  H
  H14      1.0000 0.71210  0.65660  0.60360  Biso   1.000  H
  H15      1.0000 0.50600  0.76760  0.53350  Biso   1.000  H
  H16      1.0000 0.64770  0.64500  0.79500  Biso   1.000  H
  H17      1.0000 0.69080  0.58630  0.73820  Biso   1.000  H
  H18      1.0000 0.73130  0.66960  0.75420  Biso   1.000  H
  H19      1.0000 0.18480  0.99990  0.36220  Biso   1.000  H
  H20      1.0000 0.09490  0.97880  0.45270  Biso   1.000  H
  H21      1.0000 0.05080  0.05690  0.48040  Biso   1.000  H
  H22      1.0000 0.00120  0.99610  0.43020  Biso   1.000  H
  H23      1.0000 0.05650  0.14730  0.30540  Biso   1.000  H
  H24      1.0000 0.97640  0.10330  0.33600  Biso   1.000  H
  H25      1.0000 0.02590  0.16220  0.38820  Biso   1.000  H
  H26      1.0000 0.41030  0.03560  0.39660  Biso   1.000  H
  H27      1.0000 0.35690  0.84670  0.35770  Biso   1.000  H
  H28      1.0000 0.45100  0.81890  0.36310  Biso   1.000  H
  H29      1.0000 0.39320  0.81630  0.43470  Biso   1.000  H
  H30      1.0000 0.51380  0.98540  0.46520  Biso   1.000  H
  H31      1.0000 0.49190  0.90320  0.50190  Biso   1.000  H
  H32      1.0000 0.55010  0.90680  0.43050  Biso   1.000  H
  H33      1.0000 0.27720  0.06890  0.49570  Biso   1.000  H
  H34      1.0000 0.13900  0.26240  0.48310  Biso   1.000  H
  H35      1.0000 0.12290  0.12630  0.66450  Biso   1.000  H
  H36      1.0000 0.04340  0.24180  0.66200  Biso   1.000  H
  H37      1.0000 0.08500  0.31250  0.61800  Biso   1.000  H
  H38      1.0000 0.01230  0.26320  0.58060  Biso   1.000  H
  H39      1.0000 0.46400  0.47320  0.23370  Biso   1.000  H
  H40      1.0000 0.21490  0.48490  0.25290  Biso   1.000  H
  H41      1.0000 0.35340  0.67860  0.27790  Biso   1.000  H
  H42      1.0000 0.14470  0.60140  0.26750  Biso   1.000  H
  H43      1.0000 0.19130  0.66040  0.32170  Biso   1.000  H
  H44      1.0000 0.19020  0.67650  0.23460  Biso   1.000  H
  H45      1.0000 0.96940  0.29290  0.24770  Biso   1.000  H
  H46      1.0000 0.78790  0.34340  0.10360  Biso   1.000  H
  H47      1.0000 0.99400  0.23240  0.03350  Biso   1.000  H
  H48      1.0000 0.85230  0.35500  0.29500  Biso   1.000  H
  H49      1.0000 0.80920  0.41370  0.23820  Biso   1.000  H
  H50      1.0000 0.76870  0.33040  0.25420  Biso   1.000  H
  H51      1.0000 0.31520  0.00010  0.86220  Biso   1.000  H
  H52      1.0000 0.40510  0.02120  0.95270  Biso   1.000  H
  H53      1.0000 0.44920  0.94310  0.98040  Biso   1.000  H
  H54      1.0000 0.49880  0.00390  0.93020  Biso   1.000  H
  H55      1.0000 0.44350  0.85270  0.80540  Biso   1.000  H
  H56      1.0000 0.52360  0.89670  0.83600  Biso   1.000  H
  H57      1.0000 0.47410  0.83780  0.88820  Biso   1.000  H
  H58      1.0000 0.08970  0.96440  0.89660  Biso   1.000  H
  H59      1.0000 0.14310  0.15330  0.85770  Biso   1.000  H
  H60      1.0000 0.04900  0.18110  0.86310  Biso   1.000  H
  H61      1.0000 0.10680  0.18370  0.93470  Biso   1.000  H
  H62      1.0000 0.98620  0.01460  0.96520  Biso   1.000  H
  H63      1.0000 0.00810  0.09680  0.00190  Biso   1.000  H
  H64      1.0000 0.94990  0.09320  0.93050  Biso   1.000  H
  H65      1.0000 0.77720  0.43110  0.50430  Biso   1.000  H
  H66      1.0000 0.63900  0.23760  0.51690  Biso   1.000  H
  H67      1.0000 0.62290  0.37370  0.33550  Biso   1.000  H
  H68      1.0000 0.54340  0.25820  0.33800  Biso   1.000  H
  H69      1.0000 0.58500  0.18750  0.38200  Biso   1.000  H
  H70      1.0000 0.51230  0.23680  0.41940  Biso   1.000  H
  H71      1.0000 0.96400  0.02680  0.76630  Biso   1.000  H
  H72      1.0000 0.71490  0.01510  0.74710  Biso   1.000  H
  H73      1.0000 0.85340  0.82140  0.72210  Biso   1.000  H
  H74      1.0000 0.64470  0.89860  0.73250  Biso   1.000  H
  H75      1.0000 0.69130  0.83960  0.67830  Biso   1.000  H
  H76      1.0000 0.69020  0.82350  0.76540  Biso   1.000  H
  H77      1.0000 0.46940  0.20710  0.75230  Biso   1.000  H
  H78      1.0000 0.28790  0.15660  0.89640  Biso   1.000  H
  H79      1.0000 0.49400  0.26760  0.96650  Biso   1.000  H
  H80      1.0000 0.35230  0.14500  0.70500  Biso   1.000  H
  H81      1.0000 0.30920  0.08630  0.76180  Biso   1.000  H
  H82      1.0000 0.26870  0.16960  0.74580  Biso   1.000  H
  H83      1.0000 0.81520  0.49990  0.13780  Biso   1.000  H
  H84      1.0000 0.90510  0.47880  0.04730  Biso   1.000  H
  H85      1.0000 0.94920  0.55690  0.01960  Biso   1.000  H
  H86      1.0000 0.99880  0.49610  0.06980  Biso   1.000  H
  H87      1.0000 0.94350  0.64730  0.19460  Biso   1.000  H
  H88      1.0000 0.02360  0.60330  0.16400  Biso   1.000  H
  H89      1.0000 0.97410  0.66220  0.11180  Biso   1.000  H
  H90      1.0000 0.58970  0.53560  0.10340  Biso   1.000  H
  H91      1.0000 0.64310  0.34670  0.14230  Biso   1.000  H
  H92      1.0000 0.54900  0.31890  0.13690  Biso   1.000  H
  H93      1.0000 0.60680  0.31630  0.06530  Biso   1.000  H
  H94      1.0000 0.48620  0.48540  0.03480  Biso   1.000  H
  H95      1.0000 0.50810  0.40320  0.99810  Biso   1.000  H
  H96      1.0000 0.44990  0.40680  0.06950  Biso   1.000  H
  H97      1.0000 0.72280  0.56890  0.00430  Biso   1.000  H
  H98      1.0000 0.86100  0.76240  0.01690  Biso   1.000  H
  H99      1.0000 0.87710  0.62630  0.83550  Biso   1.000  H
  H100     1.0000 0.95660  0.74180  0.83800  Biso   1.000  H
  H101     1.0000 0.91500  0.81250  0.88200  Biso   1.000  H
  H102     1.0000 0.98770  0.76320  0.91940  Biso   1.000  H
  H103     1.0000 0.53600  0.97320  0.26630  Biso   1.000  H
  H104     1.0000 0.78510  0.98490  0.24710  Biso   1.000  H
  H105     1.0000 0.64660  0.17860  0.22210  Biso   1.000  H
  H106     1.0000 0.85530  0.10140  0.23250  Biso   1.000  H
  H107     1.0000 0.80870  0.16040  0.17830  Biso   1.000  H
  H108     1.0000 0.80980  0.17650  0.26540  Biso   1.000  H
  H109     1.0000 0.03060  0.79290  0.25230  Biso   1.000  H
  H110     1.0000 0.21210  0.84340  0.39640  Biso   1.000  H
  H111     1.0000 0.00600  0.73240  0.46650  Biso   1.000  H
  H112     1.0000 0.14770  0.85500  0.20500  Biso   1.000  H
  H113     1.0000 0.19080  0.91370  0.26180  Biso   1.000  H
  H114     1.0000 0.23130  0.83040  0.24580  Biso   1.000  H
  H115     1.0000 0.68480  0.50010  0.63780  Biso   1.000  H
  H116     1.0000 0.59490  0.52120  0.54730  Biso   1.000  H
  H117     1.0000 0.55080  0.44310  0.51960  Biso   1.000  H
  H118     1.0000 0.50120  0.50390  0.56980  Biso   1.000  H
  H119     1.0000 0.55650  0.35270  0.69460  Biso   1.000  H
  H120     1.0000 0.47640  0.39670  0.66400  Biso   1.000  H
  H121     1.0000 0.52590  0.33780  0.61180  Biso   1.000  H
  H122     1.0000 0.91030  0.46440  0.60340  Biso   1.000  H
  H123     1.0000 0.85690  0.65330  0.64230  Biso   1.000  H
  H124     1.0000 0.95100  0.68110  0.63690  Biso   1.000  H
  H125     1.0000 0.89320  0.68370  0.56530  Biso   1.000  H
  H126     1.0000 0.01380  0.51460  0.53480  Biso   1.000  H
  H127     1.0000 0.99190  0.59680  0.49810  Biso   1.000  H
  H128     1.0000 0.05010  0.59320  0.56950  Biso   1.000  H
  C1       1.0000 0.27670  0.98820  0.12600  Biso   1.000  C
  C2       1.0000 0.29620  0.91340  0.08650  Biso   1.000  C
  C3       1.0000 0.26200  0.89680  0.01710  Biso   1.000  C
  C4       1.0000 0.28530  0.83120  0.98100  Biso   1.000  C
  C5       1.0000 0.34330  0.78160  0.01080  Biso   1.000  C
  C6       1.0000 0.37680  0.79470  0.08100  Biso   1.000  C
  C7       1.0000 0.35360  0.86210  0.11760  Biso   1.000  C
  C8       1.0000 0.43950  0.73950  0.11320  Biso   1.000  C
  C9       1.0000 0.99710  0.37900  0.76140  Biso   1.000  C
  C10      1.0000 0.07990  0.41950  0.75810  Biso   1.000  C
  C11      1.0000 0.08460  0.49770  0.74340  Biso   1.000  C
  C12      1.0000 0.16120  0.53420  0.74280  Biso   1.000  C
  C13      1.0000 0.23300  0.48980  0.75330  Biso   1.000  C
  C14      1.0000 0.22980  0.41010  0.76420  Biso   1.000  C
  C15      1.0000 0.15110  0.37560  0.76820  Biso   1.000  C
  C16      1.0000 0.30760  0.36400  0.77270  Biso   1.000  C
  C17      1.0000 0.41960  0.77110  0.66040  Biso   1.000  C
  C18      1.0000 0.50540  0.74130  0.64400  Biso   1.000  C
  C19      1.0000 0.55200  0.70820  0.69890  Biso   1.000  C
  C20      1.0000 0.62930  0.67630  0.68590  Biso   1.000  C
  C21      1.0000 0.65950  0.67840  0.61410  Biso   1.000  C
  C22      1.0000 0.61380  0.71210  0.55710  Biso   1.000  C
  C23      1.0000 0.53700  0.74400  0.57200  Biso   1.000  C
  C24      1.0000 0.67920  0.64120  0.74900  Biso   1.000  C
  C25      1.0000 0.16950  0.62140  0.73270  Biso   1.000  C
  C26      1.0000 0.25480  0.81680  0.90330  Biso   1.000  C
  C27      1.0000 0.64630  0.71030  0.47900  Biso   1.000  C
  C28      1.0000 0.15300  0.04060  0.34110  Biso   1.000  C
  C29      1.0000 0.05530  0.01960  0.43960  Biso   1.000  C
  C30      1.0000 0.03110  0.12320  0.34900  Biso   1.000  C
  C31      1.0000 0.39100  0.98560  0.38210  Biso   1.000  C
  C32      1.0000 0.40590  0.84500  0.38930  Biso   1.000  C
  C33      1.0000 0.50240  0.93040  0.45520  Biso   1.000  C
  C34      1.0000 0.22330  0.01180  0.62600  Biso   1.000  C
  C35      1.0000 0.20380  0.08660  0.58650  Biso   1.000  C
  C36      1.0000 0.23800  0.10320  0.51710  Biso   1.000  C
  C37      1.0000 0.21470  0.16880  0.48100  Biso   1.000  C
  C38      1.0000 0.15670  0.21840  0.51080  Biso   1.000  C
  C39      1.0000 0.12320  0.20530  0.58100  Biso   1.000  C
  C40      1.0000 0.14640  0.13790  0.61760  Biso   1.000  C
  C41      1.0000 0.06050  0.26050  0.61320  Biso   1.000  C
  C42      1.0000 0.50290  0.62100  0.26140  Biso   1.000  C
  C43      1.0000 0.42010  0.58050  0.25810  Biso   1.000  C
  C44      1.0000 0.41540  0.50230  0.24340  Biso   1.000  C
  C45      1.0000 0.33880  0.46580  0.24280  Biso   1.000  C
  C46      1.0000 0.26700  0.51020  0.25330  Biso   1.000  C
  C47      1.0000 0.27020  0.58990  0.26420  Biso   1.000  C
  C48      1.0000 0.34890  0.62440  0.26820  Biso   1.000  C
  C49      1.0000 0.19240  0.63600  0.27270  Biso   1.000  C
  C50      1.0000 0.08040  0.22890  0.16040  Biso   1.000  C
  C51      1.0000 0.99460  0.25870  0.14400  Biso   1.000  C
  C52      1.0000 0.94800  0.29180  0.19890  Biso   1.000  C
  C53      1.0000 0.87070  0.32370  0.18590  Biso   1.000  C
  C54      1.0000 0.84050  0.32160  0.11410  Biso   1.000  C
  C55      1.0000 0.88620  0.28790  0.05710  Biso   1.000  C
  C56      1.0000 0.96300  0.25600  0.07200  Biso   1.000  C
  C57      1.0000 0.82080  0.35880  0.24900  Biso   1.000  C
  C58      1.0000 0.33050  0.37860  0.23270  Biso   1.000  C
  C59      1.0000 0.24520  0.18320  0.40330  Biso   1.000  C
  C60      1.0000 0.85370  0.28970  0.97900  Biso   1.000  C
  C61      1.0000 0.34700  0.95940  0.84110  Biso   1.000  C
  C62      1.0000 0.44470  0.98040  0.93960  Biso   1.000  C
  C63      1.0000 0.46890  0.87680  0.84900  Biso   1.000  C
  C64      1.0000 0.10900  0.01440  0.88210  Biso   1.000  C
  C65      1.0000 0.09410  0.15500  0.88930  Biso   1.000  C
  C66      1.0000 0.99760  0.06960  0.95520  Biso   1.000  C
  C67      1.0000 0.72330  0.48820  0.37400  Biso   1.000  C
  C68      1.0000 0.70380  0.41340  0.41350  Biso   1.000  C
  C69      1.0000 0.73800  0.39680  0.48290  Biso   1.000  C
  C70      1.0000 0.71470  0.33120  0.51900  Biso   1.000  C
  C71      1.0000 0.65670  0.28160  0.48920  Biso   1.000  C
  C72      1.0000 0.62320  0.29470  0.41900  Biso   1.000  C
  C73      1.0000 0.64640  0.36210  0.38240  Biso   1.000  C
  C74      1.0000 0.56050  0.23950  0.38680  Biso   1.000  C
  C75      1.0000 0.00290  0.87900  0.73860  Biso   1.000  C
  C76      1.0000 0.92010  0.91950  0.74190  Biso   1.000  C
  C77      1.0000 0.91540  0.99770  0.75660  Biso   1.000  C
  C78      1.0000 0.83880  0.03420  0.75720  Biso   1.000  C
  C79      1.0000 0.76700  0.98980  0.74670  Biso   1.000  C
  C80      1.0000 0.77020  0.91010  0.73580  Biso   1.000  C
  C81      1.0000 0.84890  0.87560  0.73180  Biso   1.000  C
  C82      1.0000 0.69240  0.86400  0.72730  Biso   1.000  C
  C83      1.0000 0.58040  0.27110  0.83960  Biso   1.000  C
  C84      1.0000 0.49460  0.24130  0.85600  Biso   1.000  C
  C85      1.0000 0.44800  0.20820  0.80110  Biso   1.000  C
  C86      1.0000 0.37070  0.17630  0.81410  Biso   1.000  C
  C87      1.0000 0.34050  0.17840  0.88590  Biso   1.000  C
  C88      1.0000 0.38620  0.21210  0.94290  Biso   1.000  C
  C89      1.0000 0.46300  0.24400  0.92800  Biso   1.000  C
  C90      1.0000 0.32080  0.14120  0.75100  Biso   1.000  C
  C91      1.0000 0.83050  0.12140  0.76730  Biso   1.000  C
  C92      1.0000 0.74520  0.31680  0.59670  Biso   1.000  C
  C93      1.0000 0.35370  0.21030  0.02100  Biso   1.000  C
  C94      1.0000 0.84700  0.54060  0.15890  Biso   1.000  C
  C95      1.0000 0.94470  0.51960  0.06040  Biso   1.000  C
  C96      1.0000 0.96890  0.62320  0.15100  Biso   1.000  C
  C97      1.0000 0.60900  0.48560  0.11790  Biso   1.000  C
  C98      1.0000 0.59410  0.34500  0.11070  Biso   1.000  C
  C99      1.0000 0.49760  0.43040  0.04480  Biso   1.000  C
  C100     1.0000 0.77670  0.51180  0.87400  Biso   1.000  C
  C101     1.0000 0.79620  0.58660  0.91350  Biso   1.000  C
  C102     1.0000 0.76200  0.60320  0.98290  Biso   1.000  C
  C103     1.0000 0.78530  0.66880  0.01900  Biso   1.000  C
  C104     1.0000 0.84330  0.71840  0.98920  Biso   1.000  C
  C105     1.0000 0.87680  0.70530  0.91900  Biso   1.000  C
  C106     1.0000 0.85360  0.63790  0.88240  Biso   1.000  C
  C107     1.0000 0.93950  0.76050  0.88680  Biso   1.000  C
  C108     1.0000 0.49710  0.12100  0.23860  Biso   1.000  C
  C109     1.0000 0.57990  0.08050  0.24190  Biso   1.000  C
  C110     1.0000 0.58460  0.00230  0.25660  Biso   1.000  C
  C111     1.0000 0.66120  0.96580  0.25720  Biso   1.000  C
  C112     1.0000 0.73300  0.01020  0.24670  Biso   1.000  C
  C113     1.0000 0.72980  0.08990  0.23580  Biso   1.000  C
  C114     1.0000 0.65110  0.12440  0.23180  Biso   1.000  C
  C115     1.0000 0.80760  0.13600  0.22730  Biso   1.000  C
  C116     1.0000 0.91960  0.72890  0.33960  Biso   1.000  C
  C117     1.0000 0.00540  0.75870  0.35600  Biso   1.000  C
  C118     1.0000 0.05200  0.79180  0.30110  Biso   1.000  C
  C119     1.0000 0.12930  0.82370  0.31410  Biso   1.000  C
  C120     1.0000 0.15950  0.82160  0.38590  Biso   1.000  C
  C121     1.0000 0.11380  0.78790  0.44290  Biso   1.000  C
  C122     1.0000 0.03700  0.75600  0.42800  Biso   1.000  C
  C123     1.0000 0.17920  0.85880  0.25100  Biso   1.000  C
  C124     1.0000 0.66950  0.87860  0.26730  Biso   1.000  C
  C125     1.0000 0.75480  0.68320  0.09670  Biso   1.000  C
  C126     1.0000 0.14630  0.78970  0.52100  Biso   1.000  C
  C127     1.0000 0.65300  0.45940  0.65890  Biso   1.000  C
  C128     1.0000 0.55530  0.48040  0.56040  Biso   1.000  C
  C129     1.0000 0.53110  0.37680  0.65100  Biso   1.000  C
  C130     1.0000 0.89100  0.51440  0.61790  Biso   1.000  C
  C131     1.0000 0.90590  0.65500  0.61070  Biso   1.000  C
  C132     1.0000 0.00240  0.56960  0.54480  Biso   1.000  C
  N1       1.0000 0.43070  0.92400  0.40800  Biso   1.000  N
  N2       1.0000 0.08290  0.05900  0.37470  Biso   1.000  N
  N3       1.0000 0.06930  0.07600  0.90800  Biso   1.000  N
  N4       1.0000 0.41710  0.94100  0.87470  Biso   1.000  N
  N5       1.0000 0.56930  0.42400  0.09200  Biso   1.000  N
  N6       1.0000 0.91710  0.55900  0.12530  Biso   1.000  N
  N7       1.0000 0.93070  0.57600  0.59200  Biso   1.000  N
  N8       1.0000 0.58290  0.44100  0.62530  Biso   1.000  N
  O1       1.0000 0.22340  0.03270  0.09740  Biso   1.000  O
  O2       1.0000 0.31540  0.00220  0.18470  Biso   1.000  O
  O3       1.0000 0.93860  0.41190  0.72990  Biso   1.000  O
  O4       1.0000 0.99430  0.31620  0.79660  Biso   1.000  O
  O5       1.0000 0.38400  0.81170  0.61140  Biso   1.000  O
  O6       1.0000 0.39050  0.75100  0.72110  Biso   1.000  O
  O7       1.0000 0.10760  0.65910  0.71180  Biso   1.000  O
  O8       1.0000 0.23880  0.64910  0.74690  Biso   1.000  O
  O9       1.0000 0.29370  0.76410  0.86720  Biso   1.000  O
  O10      1.0000 0.19820  0.85660  0.87780  Biso   1.000  O
  O11      1.0000 0.60000  0.73770  0.42970  Biso   1.000  O
  O12      1.0000 0.71670  0.68150  0.46970  Biso   1.000  O
  O13      1.0000 0.20970  0.82550  0.70580  Biso   1.000  O
  O14      1.0000 0.18090  0.07230  0.28380  Biso   1.000  O
  O15      1.0000 0.33070  0.98310  0.34040  Biso   1.000  O
  O16      1.0000 0.27660  0.96730  0.59740  Biso   1.000  O
  O17      1.0000 0.18460  0.99780  0.68470  Biso   1.000  O
  O18      1.0000 0.56140  0.58810  0.22990  Biso   1.000  O
  O19      1.0000 0.50570  0.68380  0.29660  Biso   1.000  O
  O20      1.0000 0.11600  0.18830  0.11140  Biso   1.000  O
  O21      1.0000 0.10950  0.24900  0.22110  Biso   1.000  O
  O22      1.0000 0.39240  0.34090  0.21180  Biso   1.000  O
  O23      1.0000 0.26120  0.35090  0.24690  Biso   1.000  O
  O24      1.0000 0.20630  0.23590  0.36720  Biso   1.000  O
  O25      1.0000 0.30180  0.14340  0.37780  Biso   1.000  O
  O26      1.0000 0.90000  0.26230  0.92970  Biso   1.000  O
  O27      1.0000 0.78330  0.31850  0.96970  Biso   1.000  O
  O28      1.0000 0.29030  0.17450  0.20580  Biso   1.000  O
  O29      1.0000 0.31910  0.92770  0.78380  Biso   1.000  O
  O30      1.0000 0.16930  0.01690  0.84040  Biso   1.000  O
  O31      1.0000 0.77660  0.53270  0.40260  Biso   1.000  O
  O32      1.0000 0.68460  0.50220  0.31530  Biso   1.000  O
  O33      1.0000 0.06140  0.91190  0.77010  Biso   1.000  O
  O34      1.0000 0.00570  0.81620  0.70340  Biso   1.000  O
  O35      1.0000 0.61600  0.31170  0.88860  Biso   1.000  O
  O36      1.0000 0.60950  0.25100  0.77890  Biso   1.000  O
  O37      1.0000 0.89240  0.15910  0.78820  Biso   1.000  O
  O38      1.0000 0.76120  0.14910  0.75310  Biso   1.000  O
  O39      1.0000 0.70630  0.26410  0.63280  Biso   1.000  O
  O40      1.0000 0.80180  0.35660  0.62220  Biso   1.000  O
  O41      1.0000 0.40000  0.23770  0.07030  Biso   1.000  O
  O42      1.0000 0.28330  0.18150  0.03030  Biso   1.000  O
  O43      1.0000 0.79030  0.32550  0.79420  Biso   1.000  O
  O44      1.0000 0.81910  0.57230  0.21620  Biso   1.000  O
  O45      1.0000 0.66930  0.48310  0.15960  Biso   1.000  O
  O46      1.0000 0.72340  0.46730  0.90260  Biso   1.000  O
  O47      1.0000 0.81540  0.49780  0.81530  Biso   1.000  O
  O48      1.0000 0.43860  0.08810  0.27010  Biso   1.000  O
  O49      1.0000 0.49430  0.18380  0.20340  Biso   1.000  O
  O50      1.0000 0.88400  0.68830  0.38860  Biso   1.000  O
  O51      1.0000 0.89050  0.74900  0.27890  Biso   1.000  O
  O52      1.0000 0.60760  0.84090  0.28820  Biso   1.000  O
  O53      1.0000 0.73880  0.85090  0.25310  Biso   1.000  O
  O54      1.0000 0.79370  0.73590  0.13280  Biso   1.000  O
  O55      1.0000 0.69820  0.64340  0.12220  Biso   1.000  O
  O56      1.0000 0.10000  0.76230  0.57030  Biso   1.000  O
  O57      1.0000 0.21670  0.81850  0.53030  Biso   1.000  O
  O58      1.0000 0.70970  0.67450  0.29420  Biso   1.000  O
  O59      1.0000 0.68090  0.42770  0.71620  Biso   1.000  O
  O60      1.0000 0.83070  0.51690  0.65960  Biso   1.000  O
