data_image0
_cell_length_a       12.016
_cell_length_b       12.167
_cell_length_c       13.85
_cell_angle_alpha    90
_cell_angle_beta     90
_cell_angle_gamma    90

_symmetry_space_group_name_H-M    P 1
_symmetry_int_tables_number       1

loop_
  _symmetry_equiv_pos_as_xyz
  'x, y, z'

loop_
  _atom_site_label
  _atom_site_occupancy
  _atom_site_fract_x
  _atom_site_fract_y
  _atom_site_fract_z
  _atom_site_thermal_displace_type
  _atom_site_B_iso_or_equiv
  _atom_site_type_symbol
  Cu1      1.0000 0.53088  0.33357  0.11720  Biso   1.000  Cu
  Cu2      1.0000 0.75941  0.24733  0.25195  Biso   1.000  Cu
  Cu3      1.0000 0.46912  0.66643  0.11720  Biso   1.000  Cu
  Cu4      1.0000 0.24059  0.75267  0.25195  Biso   1.000  Cu
  Cu5      1.0000 0.96912  0.83357  0.38280  Biso   1.000  Cu
  Cu6      1.0000 0.74059  0.74733  0.24805  Biso   1.000  Cu
  Cu7      1.0000 0.03088  0.16643  0.38280  Biso   1.000  Cu
  Cu8      1.0000 0.25941  0.25267  0.24805  Biso   1.000  Cu
  Cu9      1.0000 0.46912  0.66643  0.88280  Biso   1.000  Cu
  Cu10     1.0000 0.24059  0.75267  0.74805  Biso   1.000  Cu
  Cu11     1.0000 0.53088  0.33357  0.88280  Biso   1.000  Cu
  Cu12     1.0000 0.75941  0.24733  0.74805  Biso   1.000  Cu
  Cu13     1.0000 0.03088  0.16643  0.61720  Biso   1.000  Cu
  Cu14     1.0000 0.25941  0.25267  0.75195  Biso   1.000  Cu
  Cu15     1.0000 0.96912  0.83357  0.61720  Biso   1.000  Cu
  Cu16     1.0000 0.74059  0.74733  0.75195  Biso   1.000  Cu
  H1       1.0000 0.16950  0.49500  0.30690  Biso   1.000  H
  H2       1.0000 0.40540  0.12880  0.40840  Biso   1.000  H
  H3       1.0000 0.83050  0.50500  0.30690  Biso   1.000  H
  H4       1.0000 0.59460  0.87120  0.40840  Biso   1.000  H
  H5       1.0000 0.33050  0.99500  0.19310  Biso   1.000  H
  H6       1.0000 0.09460  0.62880  0.09160  Biso   1.000  H
  H7       1.0000 0.66950  0.00500  0.19310  Biso   1.000  H
  H8       1.0000 0.90540  0.37120  0.09160  Biso   1.000  H
  H9       1.0000 0.83050  0.50500  0.69310  Biso   1.000  H
  H10      1.0000 0.59460  0.87120  0.59160  Biso   1.000  H
  H11      1.0000 0.16950  0.49500  0.69310  Biso   1.000  H
  H12      1.0000 0.40540  0.12880  0.59160  Biso   1.000  H
  H13      1.0000 0.66950  0.00500  0.80690  Biso   1.000  H
  H14      1.0000 0.90540  0.37120  0.90840  Biso   1.000  H
  H15      1.0000 0.33050  0.99500  0.80690  Biso   1.000  H
  H16      1.0000 0.09460  0.62880  0.90840  Biso   1.000  H
  H17      1.0000 0.18440  0.16370  0.00000  Biso   1.000  H
  H18      1.0000 0.61080  0.45830  0.00000  Biso   1.000  H
  H19      1.0000 0.81560  0.83630  0.00000  Biso   1.000  H
  H20      1.0000 0.38920  0.54170  0.00000  Biso   1.000  H
  H21      1.0000 0.31560  0.66370  0.50000  Biso   1.000  H
  H22      1.0000 0.88920  0.95830  0.50000  Biso   1.000  H
  H23      1.0000 0.68440  0.33630  0.50000  Biso   1.000  H
  H24      1.0000 0.11080  0.04170  0.50000  Biso   1.000  H
  C1       1.0000 0.23340  0.49950  0.26920  Biso   1.000  C
  C2       1.0000 0.45250  0.16100  0.36330  Biso   1.000  C
  C3       1.0000 0.76660  0.50050  0.26920  Biso   1.000  C
  C4       1.0000 0.54750  0.83900  0.36330  Biso   1.000  C
  C5       1.0000 0.26660  0.99950  0.23080  Biso   1.000  C
  C6       1.0000 0.04750  0.66100  0.13670  Biso   1.000  C
  C7       1.0000 0.73340  0.00050  0.23080  Biso   1.000  C
  C8       1.0000 0.95250  0.33900  0.13670  Biso   1.000  C
  C9       1.0000 0.76660  0.50050  0.73080  Biso   1.000  C
  C10      1.0000 0.54750  0.83900  0.63670  Biso   1.000  C
  C11      1.0000 0.23340  0.49950  0.73080  Biso   1.000  C
  C12      1.0000 0.45250  0.16100  0.63670  Biso   1.000  C
  C13      1.0000 0.73340  0.00050  0.76920  Biso   1.000  C
  C14      1.0000 0.95250  0.33900  0.86330  Biso   1.000  C
  C15      1.0000 0.26660  0.99950  0.76920  Biso   1.000  C
  C16      1.0000 0.04750  0.66100  0.86330  Biso   1.000  C
  C17      1.0000 0.25530  0.19430  0.00000  Biso   1.000  C
  C18      1.0000 0.74470  0.80570  0.00000  Biso   1.000  C
  C19      1.0000 0.24470  0.69430  0.50000  Biso   1.000  C
  C20      1.0000 0.75530  0.30570  0.50000  Biso   1.000  C
  N1       1.0000 0.29140  0.41420  0.23760  Biso   1.000  N
  N2       1.0000 0.37590  0.45390  0.18620  Biso   1.000  N
  N3       1.0000 0.36860  0.56090  0.18730  Biso   1.000  N
  N4       1.0000 0.28010  0.59270  0.23910  Biso   1.000  N
  N5       1.0000 0.59710  0.21320  0.28910  Biso   1.000  N
  N6       1.0000 0.51090  0.24790  0.24050  Biso   1.000  N
  N7       1.0000 0.41840  0.21730  0.28590  Biso   1.000  N
  N8       1.0000 0.56340  0.15730  0.36700  Biso   1.000  N
  N9       1.0000 0.40690  0.25670  0.04810  Biso   1.000  N
  N10      1.0000 0.31050  0.21810  0.08010  Biso   1.000  N
  N11      1.0000 0.70860  0.58580  0.23760  Biso   1.000  N
  N12      1.0000 0.62410  0.54610  0.18620  Biso   1.000  N
  N13      1.0000 0.63140  0.43910  0.18730  Biso   1.000  N
  N14      1.0000 0.71990  0.40730  0.23910  Biso   1.000  N
  N15      1.0000 0.40290  0.78680  0.28910  Biso   1.000  N
  N16      1.0000 0.48910  0.75210  0.24050  Biso   1.000  N
  N17      1.0000 0.58160  0.78270  0.28590  Biso   1.000  N
  N18      1.0000 0.43660  0.84270  0.36700  Biso   1.000  N
  N19      1.0000 0.59310  0.74330  0.04810  Biso   1.000  N
  N20      1.0000 0.68950  0.78190  0.08010  Biso   1.000  N
  N21      1.0000 0.20860  0.91420  0.26240  Biso   1.000  N
  N22      1.0000 0.12410  0.95390  0.31380  Biso   1.000  N
  N23      1.0000 0.13140  0.06090  0.31270  Biso   1.000  N
  N24      1.0000 0.21990  0.09270  0.26090  Biso   1.000  N
  N25      1.0000 0.90290  0.71320  0.21090  Biso   1.000  N
  N26      1.0000 0.98910  0.74790  0.25950  Biso   1.000  N
  N27      1.0000 0.08160  0.71730  0.21410  Biso   1.000  N
  N28      1.0000 0.93660  0.65730  0.13300  Biso   1.000  N
  N29      1.0000 0.09310  0.75670  0.45190  Biso   1.000  N
  N30      1.0000 0.18950  0.71810  0.41990  Biso   1.000  N
  N31      1.0000 0.79140  0.08580  0.26240  Biso   1.000  N
  N32      1.0000 0.87590  0.04610  0.31380  Biso   1.000  N
  N33      1.0000 0.86860  0.93910  0.31270  Biso   1.000  N
  N34      1.0000 0.78010  0.90730  0.26090  Biso   1.000  N
  N35      1.0000 0.09710  0.28680  0.21090  Biso   1.000  N
  N36      1.0000 0.01090  0.25210  0.25950  Biso   1.000  N
  N37      1.0000 0.91840  0.28270  0.21410  Biso   1.000  N
  N38      1.0000 0.06340  0.34270  0.13300  Biso   1.000  N
  N39      1.0000 0.90690  0.24330  0.45190  Biso   1.000  N
  N40      1.0000 0.81050  0.28190  0.41990  Biso   1.000  N
  N41      1.0000 0.70860  0.58580  0.76240  Biso   1.000  N
  N42      1.0000 0.62410  0.54610  0.81380  Biso   1.000  N
  N43      1.0000 0.63140  0.43910  0.81270  Biso   1.000  N
  N44      1.0000 0.71990  0.40730  0.76090  Biso   1.000  N
  N45      1.0000 0.40290  0.78680  0.71090  Biso   1.000  N
  N46      1.0000 0.48910  0.75210  0.75950  Biso   1.000  N
  N47      1.0000 0.58160  0.78270  0.71410  Biso   1.000  N
  N48      1.0000 0.43660  0.84270  0.63300  Biso   1.000  N
  N49      1.0000 0.59310  0.74330  0.95190  Biso   1.000  N
  N50      1.0000 0.68950  0.78190  0.91990  Biso   1.000  N
  N51      1.0000 0.29140  0.41420  0.76240  Biso   1.000  N
  N52      1.0000 0.37590  0.45390  0.81380  Biso   1.000  N
  N53      1.0000 0.36860  0.56090  0.81270  Biso   1.000  N
  N54      1.0000 0.28010  0.59270  0.76090  Biso   1.000  N
  N55      1.0000 0.59710  0.21320  0.71090  Biso   1.000  N
  N56      1.0000 0.51090  0.24790  0.75950  Biso   1.000  N
  N57      1.0000 0.41840  0.21730  0.71410  Biso   1.000  N
  N58      1.0000 0.56340  0.15730  0.63300  Biso   1.000  N
  N59      1.0000 0.40690  0.25670  0.95190  Biso   1.000  N
  N60      1.0000 0.31050  0.21810  0.91990  Biso   1.000  N
  N61      1.0000 0.79140  0.08580  0.73760  Biso   1.000  N
  N62      1.0000 0.87590  0.04610  0.68620  Biso   1.000  N
  N63      1.0000 0.86860  0.93910  0.68730  Biso   1.000  N
  N64      1.0000 0.78010  0.90730  0.73910  Biso   1.000  N
  N65      1.0000 0.09710  0.28680  0.78910  Biso   1.000  N
  N66      1.0000 0.01090  0.25210  0.74050  Biso   1.000  N
  N67      1.0000 0.91840  0.28270  0.78590  Biso   1.000  N
  N68      1.0000 0.06340  0.34270  0.86700  Biso   1.000  N
  N69      1.0000 0.90690  0.24330  0.54810  Biso   1.000  N
  N70      1.0000 0.81050  0.28190  0.58010  Biso   1.000  N
  N71      1.0000 0.20860  0.91420  0.73760  Biso   1.000  N
  N72      1.0000 0.12410  0.95390  0.68620  Biso   1.000  N
  N73      1.0000 0.13140  0.06090  0.68730  Biso   1.000  N
  N74      1.0000 0.21990  0.09270  0.73910  Biso   1.000  N
  N75      1.0000 0.90290  0.71320  0.78910  Biso   1.000  N
  N76      1.0000 0.98910  0.74790  0.74050  Biso   1.000  N
  N77      1.0000 0.08160  0.71730  0.78590  Biso   1.000  N
  N78      1.0000 0.93660  0.65730  0.86700  Biso   1.000  N
  N79      1.0000 0.09310  0.75670  0.54810  Biso   1.000  N
  N80      1.0000 0.18950  0.71810  0.58010  Biso   1.000  N
  O1       1.0000 0.56150  0.41060  0.00000  Biso   1.000  O
  O2       1.0000 0.43850  0.58940  0.00000  Biso   1.000  O
  O3       1.0000 0.93850  0.91060  0.50000  Biso   1.000  O
  O4       1.0000 0.06150  0.08940  0.50000  Biso   1.000  O
