data_image0
_cell_length_a       12.005
_cell_length_b       12.471
_cell_length_c       13.804
_cell_angle_alpha    90
_cell_angle_beta     90
_cell_angle_gamma    90

_symmetry_space_group_name_H-M    P 1
_symmetry_int_tables_number       1

loop_
  _symmetry_equiv_pos_as_xyz
  'x, y, z'

loop_
  _atom_site_label
  _atom_site_occupancy
  _atom_site_fract_x
  _atom_site_fract_y
  _atom_site_fract_z
  _atom_site_thermal_displace_type
  _atom_site_B_iso_or_equiv
  _atom_site_type_symbol
  Zn1      1.0000 0.80346  0.25000  0.00000  Biso   1.000  Zn
  Zn2      1.0000 0.30346  0.75000  0.50000  Biso   1.000  Zn
  H1       1.0000 0.42900  0.61380  0.18150  Biso   1.000  H
  H2       1.0000 0.33230  0.71590  0.28920  Biso   1.000  H
  H3       1.0000 0.52160  0.62300  0.50070  Biso   1.000  H
  H4       1.0000 0.62540  0.51990  0.39760  Biso   1.000  H
  H5       1.0000 0.65300  0.43370  0.24220  Biso   1.000  H
  H6       1.0000 0.54410  0.51940  0.08630  Biso   1.000  H
  H7       1.0000 0.42900  0.88620  0.81850  Biso   1.000  H
  H8       1.0000 0.33230  0.78410  0.71080  Biso   1.000  H
  H9       1.0000 0.52160  0.87700  0.49930  Biso   1.000  H
  H10      1.0000 0.62540  0.98010  0.60240  Biso   1.000  H
  H11      1.0000 0.65300  0.06630  0.75780  Biso   1.000  H
  H12      1.0000 0.54410  0.98060  0.91370  Biso   1.000  H
  H13      1.0000 0.92900  0.11380  0.31850  Biso   1.000  H
  H14      1.0000 0.83230  0.21590  0.21080  Biso   1.000  H
  H15      1.0000 0.02160  0.12300  0.99930  Biso   1.000  H
  H16      1.0000 0.12540  0.01990  0.10240  Biso   1.000  H
  H17      1.0000 0.15300  0.93370  0.25780  Biso   1.000  H
  H18      1.0000 0.04410  0.01940  0.41370  Biso   1.000  H
  H19      1.0000 0.92900  0.38620  0.68150  Biso   1.000  H
  H20      1.0000 0.83230  0.28410  0.78920  Biso   1.000  H
  H21      1.0000 0.02160  0.37700  0.00070  Biso   1.000  H
  H22      1.0000 0.12540  0.48010  0.89760  Biso   1.000  H
  H23      1.0000 0.15300  0.56630  0.74220  Biso   1.000  H
  H24      1.0000 0.04410  0.48060  0.58630  Biso   1.000  H
  C1       1.0000 0.44890  0.61290  0.24660  Biso   1.000  C
  C2       1.0000 0.39050  0.67360  0.31190  Biso   1.000  C
  C3       1.0000 0.50120  0.61970  0.43580  Biso   1.000  C
  C4       1.0000 0.56430  0.55740  0.37380  Biso   1.000  C
  C5       1.0000 0.53710  0.55060  0.27700  Biso   1.000  C
  C6       1.0000 0.60210  0.47940  0.21270  Biso   1.000  C
  C7       1.0000 0.59460  0.47450  0.11750  Biso   1.000  C
  C8       1.0000 0.66340  0.40020  0.05740  Biso   1.000  C
  C9       1.0000 0.44890  0.88710  0.75340  Biso   1.000  C
  C10      1.0000 0.39050  0.82640  0.68810  Biso   1.000  C
  C11      1.0000 0.50120  0.88030  0.56420  Biso   1.000  C
  C12      1.0000 0.56430  0.94260  0.62620  Biso   1.000  C
  C13      1.0000 0.53710  0.94940  0.72300  Biso   1.000  C
  C14      1.0000 0.60210  0.02060  0.78730  Biso   1.000  C
  C15      1.0000 0.59460  0.02550  0.88250  Biso   1.000  C
  C16      1.0000 0.66340  0.09980  0.94260  Biso   1.000  C
  C17      1.0000 0.94890  0.11290  0.25340  Biso   1.000  C
  C18      1.0000 0.89050  0.17360  0.18810  Biso   1.000  C
  C19      1.0000 0.00120  0.11970  0.06420  Biso   1.000  C
  C20      1.0000 0.06430  0.05740  0.12620  Biso   1.000  C
  C21      1.0000 0.03710  0.05060  0.22300  Biso   1.000  C
  C22      1.0000 0.10210  0.97940  0.28730  Biso   1.000  C
  C23      1.0000 0.09460  0.97450  0.38250  Biso   1.000  C
  C24      1.0000 0.16340  0.90020  0.44260  Biso   1.000  C
  C25      1.0000 0.94890  0.38710  0.74660  Biso   1.000  C
  C26      1.0000 0.89050  0.32640  0.81190  Biso   1.000  C
  C27      1.0000 0.00120  0.38030  0.93580  Biso   1.000  C
  C28      1.0000 0.06430  0.44260  0.87380  Biso   1.000  C
  C29      1.0000 0.03710  0.44940  0.77700  Biso   1.000  C
  C30      1.0000 0.10210  0.52060  0.71270  Biso   1.000  C
  C31      1.0000 0.09460  0.52550  0.61750  Biso   1.000  C
  C32      1.0000 0.16340  0.59980  0.55740  Biso   1.000  C
  N1       1.0000 0.41320  0.67490  0.40680  Biso   1.000  N
  N2       1.0000 0.41320  0.82510  0.59320  Biso   1.000  N
  N3       1.0000 0.91320  0.17490  0.09320  Biso   1.000  N
  N4       1.0000 0.91320  0.32510  0.90680  Biso   1.000  N
  O1       1.0000 0.65080  0.39850  0.96950  Biso   1.000  O
  O2       1.0000 0.73720  0.34430  0.09870  Biso   1.000  O
  O3       1.0000 0.65080  0.10150  0.03050  Biso   1.000  O
  O4       1.0000 0.73720  0.15570  0.90130  Biso   1.000  O
  O5       1.0000 0.15080  0.89850  0.53050  Biso   1.000  O
  O6       1.0000 0.23720  0.84430  0.40130  Biso   1.000  O
  O7       1.0000 0.15080  0.60150  0.46950  Biso   1.000  O
  O8       1.0000 0.23720  0.65570  0.59870  Biso   1.000  O
  Zn3      1.0000 0.69654  0.25000  0.50000  Biso   1.000  Zn
  Zn4      1.0000 0.19654  0.75000  0.00000  Biso   1.000  Zn
  H25      1.0000 0.07100  0.88620  0.68150  Biso   1.000  H
  H26      1.0000 0.16770  0.78410  0.78920  Biso   1.000  H
  H27      1.0000 0.97840  0.87700  0.00070  Biso   1.000  H
  H28      1.0000 0.87460  0.98010  0.89760  Biso   1.000  H
  H29      1.0000 0.84700  0.06630  0.74220  Biso   1.000  H
  H30      1.0000 0.95590  0.98060  0.58630  Biso   1.000  H
  H31      1.0000 0.07100  0.61380  0.31850  Biso   1.000  H
  H32      1.0000 0.16770  0.71590  0.21080  Biso   1.000  H
  H33      1.0000 0.97840  0.62300  0.99930  Biso   1.000  H
  H34      1.0000 0.87460  0.51990  0.10240  Biso   1.000  H
  H35      1.0000 0.84700  0.43370  0.25780  Biso   1.000  H
  H36      1.0000 0.95590  0.51940  0.41370  Biso   1.000  H
  H37      1.0000 0.57100  0.38620  0.81850  Biso   1.000  H
  H38      1.0000 0.66770  0.28410  0.71080  Biso   1.000  H
  H39      1.0000 0.47840  0.37700  0.49930  Biso   1.000  H
  H40      1.0000 0.37460  0.48010  0.60240  Biso   1.000  H
  H41      1.0000 0.34700  0.56630  0.75780  Biso   1.000  H
  H42      1.0000 0.45590  0.48060  0.91370  Biso   1.000  H
  H43      1.0000 0.57100  0.11380  0.18150  Biso   1.000  H
  H44      1.0000 0.66770  0.21590  0.28920  Biso   1.000  H
  H45      1.0000 0.47840  0.12300  0.50070  Biso   1.000  H
  H46      1.0000 0.37460  0.01990  0.39760  Biso   1.000  H
  H47      1.0000 0.34700  0.93370  0.24220  Biso   1.000  H
  H48      1.0000 0.45590  0.01940  0.08630  Biso   1.000  H
  C33      1.0000 0.05110  0.88710  0.74660  Biso   1.000  C
  C34      1.0000 0.10950  0.82640  0.81190  Biso   1.000  C
  C35      1.0000 0.99880  0.88030  0.93580  Biso   1.000  C
  C36      1.0000 0.93570  0.94260  0.87380  Biso   1.000  C
  C37      1.0000 0.96290  0.94940  0.77700  Biso   1.000  C
  C38      1.0000 0.89790  0.02060  0.71270  Biso   1.000  C
  C39      1.0000 0.90540  0.02550  0.61750  Biso   1.000  C
  C40      1.0000 0.83660  0.09980  0.55740  Biso   1.000  C
  C41      1.0000 0.05110  0.61290  0.25340  Biso   1.000  C
  C42      1.0000 0.10950  0.67360  0.18810  Biso   1.000  C
  C43      1.0000 0.99880  0.61970  0.06420  Biso   1.000  C
  C44      1.0000 0.93570  0.55740  0.12620  Biso   1.000  C
  C45      1.0000 0.96290  0.55060  0.22300  Biso   1.000  C
  C46      1.0000 0.89790  0.47940  0.28730  Biso   1.000  C
  C47      1.0000 0.90540  0.47450  0.38250  Biso   1.000  C
  C48      1.0000 0.83660  0.40020  0.44260  Biso   1.000  C
  C49      1.0000 0.55110  0.38710  0.75340  Biso   1.000  C
  C50      1.0000 0.60950  0.32640  0.68810  Biso   1.000  C
  C51      1.0000 0.49880  0.38030  0.56420  Biso   1.000  C
  C52      1.0000 0.43570  0.44260  0.62620  Biso   1.000  C
  C53      1.0000 0.46290  0.44940  0.72300  Biso   1.000  C
  C54      1.0000 0.39790  0.52060  0.78730  Biso   1.000  C
  C55      1.0000 0.40540  0.52550  0.88250  Biso   1.000  C
  C56      1.0000 0.33660  0.59980  0.94260  Biso   1.000  C
  C57      1.0000 0.55110  0.11290  0.24660  Biso   1.000  C
  C58      1.0000 0.60950  0.17360  0.31190  Biso   1.000  C
  C59      1.0000 0.49880  0.11970  0.43580  Biso   1.000  C
  C60      1.0000 0.43570  0.05740  0.37380  Biso   1.000  C
  C61      1.0000 0.46290  0.05060  0.27700  Biso   1.000  C
  C62      1.0000 0.39790  0.97940  0.21270  Biso   1.000  C
  C63      1.0000 0.40540  0.97450  0.11750  Biso   1.000  C
  C64      1.0000 0.33660  0.90020  0.05740  Biso   1.000  C
  N5       1.0000 0.08680  0.82510  0.90680  Biso   1.000  N
  N6       1.0000 0.08680  0.67490  0.09320  Biso   1.000  N
  N7       1.0000 0.58680  0.32510  0.59320  Biso   1.000  N
  N8       1.0000 0.58680  0.17490  0.40680  Biso   1.000  N
  O9       1.0000 0.84920  0.10150  0.46950  Biso   1.000  O
  O10      1.0000 0.76280  0.15570  0.59870  Biso   1.000  O
  O11      1.0000 0.84920  0.39850  0.53050  Biso   1.000  O
  O12      1.0000 0.76280  0.34430  0.40130  Biso   1.000  O
  O13      1.0000 0.34920  0.60150  0.03050  Biso   1.000  O
  O14      1.0000 0.26280  0.65570  0.90130  Biso   1.000  O
  O15      1.0000 0.34920  0.89850  0.96950  Biso   1.000  O
  O16      1.0000 0.26280  0.84430  0.09870  Biso   1.000  O
