data_image0
_cell_length_a       18.5055
_cell_length_b       18.5055
_cell_length_c       22.556
_cell_angle_alpha    90
_cell_angle_beta     90
_cell_angle_gamma    120

_symmetry_space_group_name_H-M    "P 1"
_symmetry_int_tables_number       1

loop_
  _symmetry_equiv_pos_as_xyz
  'x, y, z'

loop_
  _atom_site_label
  _atom_site_occupancy
  _atom_site_fract_x
  _atom_site_fract_y
  _atom_site_fract_z
  _atom_site_thermal_displace_type
  _atom_site_B_iso_or_equiv
  _atom_site_type_symbol
  Ag1      1.0000 0.89287  0.14668  0.34571  Biso   1.000  Ag
  N1       1.0000 0.62950  0.81460  0.46310  Biso   1.000  N
  C1       1.0000 0.71410  0.99990  0.37890  Biso   1.000  C
  C2       1.0000 0.62910  0.74870  0.49880  Biso   1.000  C
  H1       1.0000 0.68530  0.75450  0.49780  Biso   1.000  H
  H2       1.0000 0.58920  0.69380  0.48140  Biso   1.000  H
  N2       1.0000 0.57450  0.88300  0.41790  Biso   1.000  N
  O1       1.0000 0.64000  0.84020  0.64580  Biso   1.000  O
  N3       1.0000 0.68970  0.04770  0.35180  Biso   1.000  N
  H3       1.0000 0.72660  0.09390  0.33400  Biso   1.000  H
  H4       1.0000 0.63660  0.03320  0.35160  Biso   1.000  H
  C3       1.0000 0.66330  0.83110  0.59570  Biso   1.000  C
  C4       1.0000 0.69370  0.88140  0.43640  Biso   1.000  C
  C5       1.0000 0.60470  0.75160  0.56310  Biso   1.000  C
  H5       1.0000 0.54800  0.74450  0.56360  Biso   1.000  H
  H6       1.0000 0.60220  0.70380  0.58470  Biso   1.000  H
  C6       1.0000 0.66030  0.92450  0.40870  Biso   1.000  C
  N4       1.0000 0.77590  0.90450  0.43500  Biso   1.000  N
  Ag2      1.0000 0.47397  0.90088  0.38519  Biso   1.000  Ag
  C7       1.0000 0.76790  0.15350  0.50390  Biso   1.000  C
  H7       1.0000 0.72220  0.10990  0.47990  Biso   1.000  H
  H8       1.0000 0.76900  0.20680  0.49650  Biso   1.000  H
  O2       1.0000 0.87680  0.11880  0.50640  Biso   1.000  O
  O3       1.0000 0.89170  0.21510  0.44450  Biso   1.000  O
  C8       1.0000 0.85100  0.16230  0.48330  Biso   1.000  C
  Ag3      1.0000 0.82012  0.00273  0.59868  Biso   1.000  Ag
  Ag4      1.0000 0.83540  0.83910  0.47339  Biso   1.000  Ag
  O4       1.0000 0.73110  0.87880  0.57050  Biso   1.000  O
  C9       1.0000 0.82250  0.97560  0.40600  Biso   1.000  C
  H9       1.0000 0.88070  0.99500  0.40430  Biso   1.000  H
  C10      1.0000 0.83130  0.27230  0.61770  Biso   1.000  C
  H10      1.0000 0.79610  0.29170  0.60270  Biso   1.000  H
  C11      1.0000 0.93020  0.26760  0.66180  Biso   1.000  C
  N5       1.0000 0.89620  0.31840  0.64980  Biso   1.000  N
  N6       1.0000 0.05160  0.35030  0.72160  Biso   1.000  N
  H11      1.0000 0.09510  0.35460  0.74050  Biso   1.000  H
  H12      1.0000 0.04110  0.39170  0.72240  Biso   1.000  H
  C12      1.0000 0.00200  0.28180  0.69210  Biso   1.000  C
  C13      1.0000 0.88300  0.19190  0.63450  Biso   1.000  C
  N7       1.0000 0.89700  0.12690  0.63580  Biso   1.000  N
  N8       1.0000 0.02000  0.21810  0.69180  Biso   1.000  N
  N9       1.0000 0.81740  0.19490  0.60700  Biso   1.000  N
  C14      1.0000 0.96820  0.14650  0.66540  Biso   1.000  C
  H13      1.0000 0.98250  0.10390  0.66760  Biso   1.000  H
  C15      1.0000 0.74910  0.13100  0.56990  Biso   1.000  C
  H14      1.0000 0.69570  0.12780  0.58060  Biso   1.000  H
  H15      1.0000 0.74350  0.07570  0.57720  Biso   1.000  H
  C16      1.0000 0.55940  0.81990  0.45050  Biso   1.000  C
  H16      1.0000 0.50520  0.78090  0.46460  Biso   1.000  H
  N10      1.0000 0.79600  0.02290  0.37890  Biso   1.000  N
  Ag5      1.0000 0.55954  0.48001  0.67904  Biso   1.000  Ag
  N11      1.0000 0.29617  0.14793  0.79643  Biso   1.000  N
  C17      1.0000 0.38077  0.33323  0.71223  Biso   1.000  C
  C18      1.0000 0.29577  0.08203  0.83213  Biso   1.000  C
  H17      1.0000 0.35197  0.08783  0.83113  Biso   1.000  H
  H18      1.0000 0.25587  0.02713  0.81473  Biso   1.000  H
  N12      1.0000 0.24117  0.21633  0.75123  Biso   1.000  N
  O5       1.0000 0.30667  0.17353  0.97913  Biso   1.000  O
  N13      1.0000 0.35637  0.38103  0.68513  Biso   1.000  N
  H19      1.0000 0.39327  0.42723  0.66733  Biso   1.000  H
  H20      1.0000 0.30327  0.36653  0.68493  Biso   1.000  H
  C19      1.0000 0.32997  0.16443  0.92903  Biso   1.000  C
  C20      1.0000 0.36037  0.21473  0.76973  Biso   1.000  C
  C21      1.0000 0.27137  0.08493  0.89643  Biso   1.000  C
  H21      1.0000 0.21467  0.07783  0.89693  Biso   1.000  H
  H22      1.0000 0.26887  0.03713  0.91803  Biso   1.000  H
  C22      1.0000 0.32697  0.25783  0.74203  Biso   1.000  C
  N14      1.0000 0.44257  0.23783  0.76833  Biso   1.000  N
  Ag6      1.0000 0.14064  0.23421  0.71852  Biso   1.000  Ag
  C23      1.0000 0.43457  0.48683  0.83723  Biso   1.000  C
  H23      1.0000 0.38887  0.44323  0.81323  Biso   1.000  H
  H24      1.0000 0.43567  0.54013  0.82983  Biso   1.000  H
  O6       1.0000 0.54347  0.45213  0.83973  Biso   1.000  O
  O7       1.0000 0.55837  0.54843  0.77783  Biso   1.000  O
  C24      1.0000 0.51767  0.49563  0.81663  Biso   1.000  C
  Ag7      1.0000 0.48679  0.33606  0.93201  Biso   1.000  Ag
  Ag8      1.0000 0.50207  0.17243  0.80672  Biso   1.000  Ag
  O8       1.0000 0.39777  0.21213  0.90383  Biso   1.000  O
  C25      1.0000 0.48917  0.30893  0.73933  Biso   1.000  C
  H25      1.0000 0.54737  0.32833  0.73763  Biso   1.000  H
  C26      1.0000 0.49797  0.60563  0.95103  Biso   1.000  C
  H26      1.0000 0.46277  0.62503  0.93603  Biso   1.000  H
  C27      1.0000 0.59687  0.60093  0.99513  Biso   1.000  C
  N15      1.0000 0.56287  0.65173  0.98313  Biso   1.000  N
  N16      1.0000 0.71827  0.68363  0.05493  Biso   1.000  N
  H27      1.0000 0.76177  0.68793  0.07383  Biso   1.000  H
  H28      1.0000 0.70777  0.72503  0.05573  Biso   1.000  H
  C28      1.0000 0.66867  0.61513  0.02543  Biso   1.000  C
  C29      1.0000 0.54967  0.52523  0.96783  Biso   1.000  C
  N17      1.0000 0.56367  0.46023  0.96913  Biso   1.000  N
  N18      1.0000 0.68667  0.55143  0.02513  Biso   1.000  N
  N19      1.0000 0.48407  0.52823  0.94033  Biso   1.000  N
  C30      1.0000 0.63487  0.47983  0.99873  Biso   1.000  C
  H29      1.0000 0.64917  0.43723  0.00093  Biso   1.000  H
  C31      1.0000 0.41577  0.46433  0.90323  Biso   1.000  C
  H30      1.0000 0.36237  0.46113  0.91393  Biso   1.000  H
  H31      1.0000 0.41017  0.40903  0.91053  Biso   1.000  H
  C32      1.0000 0.22607  0.15323  0.78383  Biso   1.000  C
  H32      1.0000 0.17187  0.11423  0.79793  Biso   1.000  H
  N20      1.0000 0.46267  0.35623  0.71223  Biso   1.000  N
  Ag9      1.0000 0.22620  0.81335  0.01238  Biso   1.000  Ag
  N21      1.0000 0.96283  0.48127  0.12977  Biso   1.000  N
  C33      1.0000 0.04743  0.66657  0.04557  Biso   1.000  C
  C34      1.0000 0.96243  0.41537  0.16547  Biso   1.000  C
  H33      1.0000 0.01863  0.42117  0.16447  Biso   1.000  H
  H34      1.0000 0.92253  0.36047  0.14807  Biso   1.000  H
  N22      1.0000 0.90783  0.54967  0.08457  Biso   1.000  N
  O9       1.0000 0.97333  0.50687  0.31247  Biso   1.000  O
  N23      1.0000 0.02303  0.71437  0.01847  Biso   1.000  N
  H35      1.0000 0.05993  0.76057  0.00067  Biso   1.000  H
  H36      1.0000 0.96993  0.69987  0.01827  Biso   1.000  H
  C35      1.0000 0.99663  0.49777  0.26237  Biso   1.000  C
  C36      1.0000 0.02703  0.54807  0.10307  Biso   1.000  C
  C37      1.0000 0.93803  0.41827  0.22977  Biso   1.000  C
  H37      1.0000 0.88133  0.41117  0.23027  Biso   1.000  H
  H38      1.0000 0.93553  0.37047  0.25137  Biso   1.000  H
  C38      1.0000 0.99363  0.59117  0.07537  Biso   1.000  C
  N24      1.0000 0.10923  0.57117  0.10167  Biso   1.000  N
  Ag10     1.0000 0.80730  0.56755  0.05186  Biso   1.000  Ag
  C39      1.0000 0.10123  0.82017  0.17057  Biso   1.000  C
  H39      1.0000 0.05553  0.77657  0.14657  Biso   1.000  H
  H40      1.0000 0.10233  0.87347  0.16317  Biso   1.000  H
  O10      1.0000 0.21013  0.78547  0.17307  Biso   1.000  O
  O11      1.0000 0.22503  0.88177  0.11117  Biso   1.000  O
  C40      1.0000 0.18433  0.82897  0.14997  Biso   1.000  C
  Ag11     1.0000 0.15345  0.66940  0.26535  Biso   1.000  Ag
  Ag12     1.0000 0.16873  0.50577  0.14006  Biso   1.000  Ag
  O12      1.0000 0.06443  0.54547  0.23717  Biso   1.000  O
  C41      1.0000 0.15583  0.64227  0.07267  Biso   1.000  C
  H41      1.0000 0.21403  0.66167  0.07097  Biso   1.000  H
  C42      1.0000 0.16463  0.93897  0.28437  Biso   1.000  C
  H42      1.0000 0.12943  0.95837  0.26937  Biso   1.000  H
  C43      1.0000 0.26353  0.93427  0.32847  Biso   1.000  C
  N25      1.0000 0.22953  0.98507  0.31647  Biso   1.000  N
  N26      1.0000 0.38493  0.01697  0.38827  Biso   1.000  N
  H43      1.0000 0.42843  0.02127  0.40717  Biso   1.000  H
  H44      1.0000 0.37443  0.05837  0.38907  Biso   1.000  H
  C44      1.0000 0.33533  0.94847  0.35877  Biso   1.000  C
  C45      1.0000 0.21633  0.85857  0.30117  Biso   1.000  C
  N27      1.0000 0.23033  0.79357  0.30247  Biso   1.000  N
  N28      1.0000 0.35333  0.88477  0.35847  Biso   1.000  N
  N29      1.0000 0.15073  0.86157  0.27367  Biso   1.000  N
  C46      1.0000 0.30153  0.81317  0.33207  Biso   1.000  C
  H45      1.0000 0.31583  0.77057  0.33427  Biso   1.000  H
  C47      1.0000 0.08243  0.79767  0.23657  Biso   1.000  C
  H46      1.0000 0.02903  0.79447  0.24727  Biso   1.000  H
  H47      1.0000 0.07683  0.74237  0.24387  Biso   1.000  H
  C48      1.0000 0.89273  0.48657  0.11717  Biso   1.000  C
  H48      1.0000 0.83853  0.44757  0.13127  Biso   1.000  H
  N30      1.0000 0.12933  0.68957  0.04557  Biso   1.000  N
  Ag13     1.0000 0.85332  0.74619  0.34571  Biso   1.000  Ag
  N31      1.0000 0.18540  0.81490  0.46310  Biso   1.000  N
  C49      1.0000 0.00010  0.71420  0.37890  Biso   1.000  C
  C50      1.0000 0.25130  0.88040  0.49880  Biso   1.000  C
  H49      1.0000 0.24550  0.93080  0.49780  Biso   1.000  H
  H50      1.0000 0.30620  0.89540  0.48140  Biso   1.000  H
  N32      1.0000 0.11700  0.69150  0.41790  Biso   1.000  N
  O13      1.0000 0.15980  0.79980  0.64580  Biso   1.000  O
  N33      1.0000 0.95230  0.64200  0.35180  Biso   1.000  N
  H51      1.0000 0.90610  0.63270  0.33400  Biso   1.000  H
  H52      1.0000 0.96680  0.60340  0.35160  Biso   1.000  H
  C51      1.0000 0.16890  0.83220  0.59570  Biso   1.000  C
  C52      1.0000 0.11860  0.81230  0.43640  Biso   1.000  C
  C53      1.0000 0.24840  0.85310  0.56310  Biso   1.000  C
  H53      1.0000 0.25550  0.80350  0.56360  Biso   1.000  H
  H54      1.0000 0.29620  0.89840  0.58470  Biso   1.000  H
  C54      1.0000 0.07550  0.73580  0.40870  Biso   1.000  C
  N34      1.0000 0.09550  0.87140  0.43500  Biso   1.000  N
  Ag14     1.0000 0.09912  0.57309  0.38519  Biso   1.000  Ag
  C55      1.0000 0.84650  0.61440  0.50390  Biso   1.000  C
  H55      1.0000 0.89010  0.61230  0.47990  Biso   1.000  H
  H56      1.0000 0.79320  0.56220  0.49650  Biso   1.000  H
  O14      1.0000 0.88120  0.75800  0.50640  Biso   1.000  O
  O15      1.0000 0.78490  0.67660  0.44450  Biso   1.000  O
  C56      1.0000 0.83770  0.68870  0.48330  Biso   1.000  C
  Ag15     1.0000 0.99727  0.81739  0.59868  Biso   1.000  Ag
  Ag16     1.0000 0.16090  0.99630  0.47339  Biso   1.000  Ag
  O16      1.0000 0.12120  0.85230  0.57050  Biso   1.000  O
  C57      1.0000 0.02440  0.84690  0.40600  Biso   1.000  C
  H57      1.0000 0.00500  0.88570  0.40430  Biso   1.000  H
  C58      1.0000 0.72770  0.55900  0.61770  Biso   1.000  C
  H58      1.0000 0.70830  0.50440  0.60270  Biso   1.000  H
  C59      1.0000 0.73240  0.66260  0.66180  Biso   1.000  C
  N35      1.0000 0.68160  0.57780  0.64980  Biso   1.000  N
  N36      1.0000 0.64970  0.70130  0.72160  Biso   1.000  N
  H59      1.0000 0.64540  0.74050  0.74050  Biso   1.000  H
  H60      1.0000 0.60830  0.64940  0.72240  Biso   1.000  H
  C60      1.0000 0.71820  0.72020  0.69210  Biso   1.000  C
  C61      1.0000 0.80810  0.69110  0.63450  Biso   1.000  C
  N37      1.0000 0.87310  0.77010  0.63580  Biso   1.000  N
  N38      1.0000 0.78190  0.80190  0.69180  Biso   1.000  N
  N39      1.0000 0.80510  0.62250  0.60700  Biso   1.000  N
  C62      1.0000 0.85350  0.82170  0.66540  Biso   1.000  C
  H61      1.0000 0.89610  0.87860  0.66760  Biso   1.000  H
  C63      1.0000 0.86900  0.61810  0.56990  Biso   1.000  C
  H62      1.0000 0.87220  0.56790  0.58060  Biso   1.000  H
  H63      1.0000 0.92430  0.66780  0.57720  Biso   1.000  H
  C64      1.0000 0.18010  0.73950  0.45050  Biso   1.000  C
  H64      1.0000 0.21910  0.72430  0.46460  Biso   1.000  H
  N40      1.0000 0.97710  0.77310  0.37890  Biso   1.000  N
  Ag17     1.0000 0.51999  0.07952  0.67904  Biso   1.000  Ag
  N41      1.0000 0.85207  0.14823  0.79643  Biso   1.000  N
  C65      1.0000 0.66677  0.04753  0.71223  Biso   1.000  C
  C66      1.0000 0.91797  0.21373  0.83213  Biso   1.000  C
  H65      1.0000 0.91217  0.26413  0.83113  Biso   1.000  H
  H66      1.0000 0.97287  0.22873  0.81473  Biso   1.000  H
  N42      1.0000 0.78367  0.02483  0.75123  Biso   1.000  N
  O17      1.0000 0.82647  0.13313  0.97913  Biso   1.000  O
  N43      1.0000 0.61897  0.97533  0.68513  Biso   1.000  N
  H67      1.0000 0.57277  0.96603  0.66733  Biso   1.000  H
  H68      1.0000 0.63347  0.93673  0.68493  Biso   1.000  H
  C67      1.0000 0.83557  0.16553  0.92903  Biso   1.000  C
  C68      1.0000 0.78527  0.14563  0.76973  Biso   1.000  C
  C69      1.0000 0.91507  0.18643  0.89643  Biso   1.000  C
  H69      1.0000 0.92217  0.13683  0.89693  Biso   1.000  H
  H70      1.0000 0.96287  0.23173  0.91803  Biso   1.000  H
  C70      1.0000 0.74217  0.06913  0.74203  Biso   1.000  C
  N44      1.0000 0.76217  0.20473  0.76833  Biso   1.000  N
  Ag18     1.0000 0.76579  0.90642  0.71852  Biso   1.000  Ag
  C71      1.0000 0.51317  0.94773  0.83723  Biso   1.000  C
  H71      1.0000 0.55677  0.94563  0.81323  Biso   1.000  H
  H72      1.0000 0.45987  0.89553  0.82983  Biso   1.000  H
  O18      1.0000 0.54787  0.09133  0.83973  Biso   1.000  O
  O19      1.0000 0.45157  0.00993  0.77783  Biso   1.000  O
  C72      1.0000 0.50437  0.02203  0.81663  Biso   1.000  C
  Ag19     1.0000 0.66394  0.15072  0.93201  Biso   1.000  Ag
  Ag20     1.0000 0.82757  0.32963  0.80672  Biso   1.000  Ag
  O20      1.0000 0.78787  0.18563  0.90383  Biso   1.000  O
  C73      1.0000 0.69107  0.18023  0.73933  Biso   1.000  C
  H73      1.0000 0.67167  0.21903  0.73763  Biso   1.000  H
  C74      1.0000 0.39437  0.89233  0.95103  Biso   1.000  C
  H74      1.0000 0.37497  0.83773  0.93603  Biso   1.000  H
  C75      1.0000 0.39907  0.99593  0.99513  Biso   1.000  C
  N45      1.0000 0.34827  0.91113  0.98313  Biso   1.000  N
  N46      1.0000 0.31637  0.03463  0.05493  Biso   1.000  N
  H75      1.0000 0.31207  0.07383  0.07383  Biso   1.000  H
  H76      1.0000 0.27497  0.98273  0.05573  Biso   1.000  H
  C76      1.0000 0.38487  0.05353  0.02543  Biso   1.000  C
  C77      1.0000 0.47477  0.02443  0.96783  Biso   1.000  C
  N47      1.0000 0.53977  0.10343  0.96913  Biso   1.000  N
  N48      1.0000 0.44857  0.13523  0.02513  Biso   1.000  N
  N49      1.0000 0.47177  0.95583  0.94033  Biso   1.000  N
  C78      1.0000 0.52017  0.15503  0.99873  Biso   1.000  C
  H77      1.0000 0.56277  0.21193  0.00093  Biso   1.000  H
  C79      1.0000 0.53567  0.95143  0.90323  Biso   1.000  C
  H78      1.0000 0.53887  0.90123  0.91393  Biso   1.000  H
  H79      1.0000 0.59097  0.00113  0.91053  Biso   1.000  H
  C80      1.0000 0.84677  0.07283  0.78383  Biso   1.000  C
  H80      1.0000 0.88577  0.05763  0.79793  Biso   1.000  H
  N50      1.0000 0.64377  0.10643  0.71223  Biso   1.000  N
  Ag21     1.0000 0.18665  0.41286  0.01238  Biso   1.000  Ag
  N51      1.0000 0.51873  0.48157  0.12977  Biso   1.000  N
  C81      1.0000 0.33343  0.38087  0.04557  Biso   1.000  C
  C82      1.0000 0.58463  0.54707  0.16547  Biso   1.000  C
  H81      1.0000 0.57883  0.59747  0.16447  Biso   1.000  H
  H82      1.0000 0.63953  0.56207  0.14807  Biso   1.000  H
  N52      1.0000 0.45033  0.35817  0.08457  Biso   1.000  N
  O21      1.0000 0.49313  0.46647  0.31247  Biso   1.000  O
  N53      1.0000 0.28563  0.30867  0.01847  Biso   1.000  N
  H83      1.0000 0.23943  0.29937  0.00067  Biso   1.000  H
  H84      1.0000 0.30013  0.27007  0.01827  Biso   1.000  H
  C83      1.0000 0.50223  0.49887  0.26237  Biso   1.000  C
  C84      1.0000 0.45193  0.47897  0.10307  Biso   1.000  C
  C85      1.0000 0.58173  0.51977  0.22977  Biso   1.000  C
  H85      1.0000 0.58883  0.47017  0.23027  Biso   1.000  H
  H86      1.0000 0.62953  0.56507  0.25137  Biso   1.000  H
  C86      1.0000 0.40883  0.40247  0.07537  Biso   1.000  C
  N54      1.0000 0.42883  0.53807  0.10167  Biso   1.000  N
  Ag22     1.0000 0.43245  0.23976  0.05186  Biso   1.000  Ag
  C87      1.0000 0.17983  0.28107  0.17057  Biso   1.000  C
  H87      1.0000 0.22343  0.27897  0.14657  Biso   1.000  H
  H88      1.0000 0.12653  0.22887  0.16317  Biso   1.000  H
  O22      1.0000 0.21453  0.42467  0.17307  Biso   1.000  O
  O23      1.0000 0.11823  0.34327  0.11117  Biso   1.000  O
  C88      1.0000 0.17103  0.35537  0.14997  Biso   1.000  C
  Ag23     1.0000 0.33060  0.48406  0.26535  Biso   1.000  Ag
  Ag24     1.0000 0.49423  0.66297  0.14006  Biso   1.000  Ag
  O24      1.0000 0.45453  0.51897  0.23717  Biso   1.000  O
  C89      1.0000 0.35773  0.51357  0.07267  Biso   1.000  C
  H89      1.0000 0.33833  0.55237  0.07097  Biso   1.000  H
  C90      1.0000 0.06103  0.22567  0.28437  Biso   1.000  C
  H90      1.0000 0.04163  0.17107  0.26937  Biso   1.000  H
  C91      1.0000 0.06573  0.32927  0.32847  Biso   1.000  C
  N55      1.0000 0.01493  0.24447  0.31647  Biso   1.000  N
  N56      1.0000 0.98303  0.36797  0.38827  Biso   1.000  N
  H91      1.0000 0.97873  0.40717  0.40717  Biso   1.000  H
  H92      1.0000 0.94163  0.31607  0.38907  Biso   1.000  H
  C92      1.0000 0.05153  0.38687  0.35877  Biso   1.000  C
  C93      1.0000 0.14143  0.35777  0.30117  Biso   1.000  C
  N57      1.0000 0.20643  0.43677  0.30247  Biso   1.000  N
  N58      1.0000 0.11523  0.46857  0.35847  Biso   1.000  N
  N59      1.0000 0.13843  0.28917  0.27367  Biso   1.000  N
  C94      1.0000 0.18683  0.48837  0.33207  Biso   1.000  C
  H93      1.0000 0.22943  0.54527  0.33427  Biso   1.000  H
  C95      1.0000 0.20233  0.28477  0.23657  Biso   1.000  C
  H94      1.0000 0.20553  0.23457  0.24727  Biso   1.000  H
  H95      1.0000 0.25763  0.33447  0.24387  Biso   1.000  H
  C96      1.0000 0.51343  0.40617  0.11717  Biso   1.000  C
  H96      1.0000 0.55243  0.39097  0.13127  Biso   1.000  H
  N60      1.0000 0.31043  0.43977  0.04557  Biso   1.000  N
  Ag25     1.0000 0.25381  0.10713  0.34571  Biso   1.000  Ag
  N61      1.0000 0.18510  0.37050  0.46310  Biso   1.000  N
  C97      1.0000 0.28580  0.28590  0.37890  Biso   1.000  C
  C98      1.0000 0.11960  0.37090  0.49880  Biso   1.000  C
  H97      1.0000 0.06920  0.31470  0.49780  Biso   1.000  H
  H98      1.0000 0.10460  0.41080  0.48140  Biso   1.000  H
  N62      1.0000 0.30850  0.42550  0.41790  Biso   1.000  N
  O25      1.0000 0.20020  0.36000  0.64580  Biso   1.000  O
  N63      1.0000 0.35800  0.31030  0.35180  Biso   1.000  N
  H99      1.0000 0.36730  0.27340  0.33400  Biso   1.000  H
  H100     1.0000 0.39660  0.36340  0.35160  Biso   1.000  H
  C99      1.0000 0.16780  0.33670  0.59570  Biso   1.000  C
  C100     1.0000 0.18770  0.30630  0.43640  Biso   1.000  C
  C101     1.0000 0.14690  0.39530  0.56310  Biso   1.000  C
  H101     1.0000 0.19650  0.45200  0.56360  Biso   1.000  H
  H102     1.0000 0.10160  0.39780  0.58470  Biso   1.000  H
  C102     1.0000 0.26420  0.33970  0.40870  Biso   1.000  C
  N64      1.0000 0.12860  0.22410  0.43500  Biso   1.000  N
  Ag26     1.0000 0.42691  0.52603  0.38519  Biso   1.000  Ag
  C103     1.0000 0.38560  0.23210  0.50390  Biso   1.000  C
  H103     1.0000 0.38770  0.27780  0.47990  Biso   1.000  H
  H104     1.0000 0.43780  0.23100  0.49650  Biso   1.000  H
  O26      1.0000 0.24200  0.12320  0.50640  Biso   1.000  O
  O27      1.0000 0.32340  0.10830  0.44450  Biso   1.000  O
  C104     1.0000 0.31130  0.14900  0.48330  Biso   1.000  C
  Ag27     1.0000 0.18261  0.17988  0.59868  Biso   1.000  Ag
  Ag28     1.0000 0.00370  0.16460  0.47339  Biso   1.000  Ag
  O28      1.0000 0.14770  0.26890  0.57050  Biso   1.000  O
  C105     1.0000 0.15310  0.17750  0.40600  Biso   1.000  C
  H105     1.0000 0.11430  0.11930  0.40430  Biso   1.000  H
  C106     1.0000 0.44100  0.16870  0.61770  Biso   1.000  C
  H106     1.0000 0.49560  0.20390  0.60270  Biso   1.000  H
  C107     1.0000 0.33740  0.06980  0.66180  Biso   1.000  C
  N65      1.0000 0.42220  0.10380  0.64980  Biso   1.000  N
  N66      1.0000 0.29870  0.94840  0.72160  Biso   1.000  N
  H107     1.0000 0.25950  0.90490  0.74050  Biso   1.000  H
  H108     1.0000 0.35060  0.95890  0.72240  Biso   1.000  H
  C108     1.0000 0.27980  0.99800  0.69210  Biso   1.000  C
  C109     1.0000 0.30890  0.11700  0.63450  Biso   1.000  C
  N67      1.0000 0.22990  0.10300  0.63580  Biso   1.000  N
  N68      1.0000 0.19810  0.98000  0.69180  Biso   1.000  N
  N69      1.0000 0.37750  0.18260  0.60700  Biso   1.000  N
  C110     1.0000 0.17830  0.03180  0.66540  Biso   1.000  C
  H109     1.0000 0.12140  0.01750  0.66760  Biso   1.000  H
  C111     1.0000 0.38190  0.25090  0.56990  Biso   1.000  C
  H110     1.0000 0.43210  0.30430  0.58060  Biso   1.000  H
  H111     1.0000 0.33220  0.25650  0.57720  Biso   1.000  H
  C112     1.0000 0.26050  0.44060  0.45050  Biso   1.000  C
  H112     1.0000 0.27570  0.49480  0.46460  Biso   1.000  H
  N70      1.0000 0.22690  0.20400  0.37890  Biso   1.000  N
  Ag29     1.0000 0.92048  0.44046  0.67904  Biso   1.000  Ag
  N71      1.0000 0.85177  0.70383  0.79643  Biso   1.000  N
  C113     1.0000 0.95247  0.61923  0.71223  Biso   1.000  C
  C114     1.0000 0.78627  0.70423  0.83213  Biso   1.000  C
  H113     1.0000 0.73587  0.64803  0.83113  Biso   1.000  H
  H114     1.0000 0.77127  0.74413  0.81473  Biso   1.000  H
  N72      1.0000 0.97517  0.75883  0.75123  Biso   1.000  N
  O29      1.0000 0.86687  0.69333  0.97913  Biso   1.000  O
  N73      1.0000 0.02467  0.64363  0.68513  Biso   1.000  N
  H115     1.0000 0.03397  0.60673  0.66733  Biso   1.000  H
  H116     1.0000 0.06327  0.69673  0.68493  Biso   1.000  H
  C115     1.0000 0.83447  0.67003  0.92903  Biso   1.000  C
  C116     1.0000 0.85437  0.63963  0.76973  Biso   1.000  C
  C117     1.0000 0.81357  0.72863  0.89643  Biso   1.000  C
  H117     1.0000 0.86317  0.78533  0.89693  Biso   1.000  H
  H118     1.0000 0.76827  0.73113  0.91803  Biso   1.000  H
  C118     1.0000 0.93087  0.67303  0.74203  Biso   1.000  C
  N74      1.0000 0.79527  0.55743  0.76833  Biso   1.000  N
  Ag30     1.0000 0.09358  0.85936  0.71852  Biso   1.000  Ag
  C119     1.0000 0.05227  0.56543  0.83723  Biso   1.000  C
  H119     1.0000 0.05437  0.61113  0.81323  Biso   1.000  H
  H120     1.0000 0.10447  0.56433  0.82983  Biso   1.000  H
  O30      1.0000 0.90867  0.45653  0.83973  Biso   1.000  O
  O31      1.0000 0.99007  0.44163  0.77783  Biso   1.000  O
  C120     1.0000 0.97797  0.48233  0.81663  Biso   1.000  C
  Ag31     1.0000 0.84928  0.51321  0.93201  Biso   1.000  Ag
  Ag32     1.0000 0.67037  0.49793  0.80672  Biso   1.000  Ag
  O32      1.0000 0.81437  0.60223  0.90383  Biso   1.000  O
  C121     1.0000 0.81977  0.51083  0.73933  Biso   1.000  C
  H121     1.0000 0.78097  0.45263  0.73763  Biso   1.000  H
  C122     1.0000 0.10767  0.50203  0.95103  Biso   1.000  C
  H122     1.0000 0.16227  0.53723  0.93603  Biso   1.000  H
  C123     1.0000 0.00407  0.40313  0.99513  Biso   1.000  C
  N75      1.0000 0.08887  0.43713  0.98313  Biso   1.000  N
  N76      1.0000 0.96537  0.28173  0.05493  Biso   1.000  N
  H123     1.0000 0.92617  0.23823  0.07383  Biso   1.000  H
  H124     1.0000 0.01727  0.29223  0.05573  Biso   1.000  H
  C124     1.0000 0.94647  0.33133  0.02543  Biso   1.000  C
  C125     1.0000 0.97557  0.45033  0.96783  Biso   1.000  C
  N77      1.0000 0.89657  0.43633  0.96913  Biso   1.000  N
  N78      1.0000 0.86477  0.31333  0.02513  Biso   1.000  N
  N79      1.0000 0.04417  0.51593  0.94033  Biso   1.000  N
  C126     1.0000 0.84497  0.36513  0.99873  Biso   1.000  C
  H125     1.0000 0.78807  0.35083  0.00093  Biso   1.000  H
  C127     1.0000 0.04857  0.58423  0.90323  Biso   1.000  C
  H126     1.0000 0.09877  0.63763  0.91393  Biso   1.000  H
  H127     1.0000 0.99887  0.58983  0.91053  Biso   1.000  H
  C128     1.0000 0.92717  0.77393  0.78383  Biso   1.000  C
  H128     1.0000 0.94237  0.82813  0.79793  Biso   1.000  H
  N80      1.0000 0.89357  0.53733  0.71223  Biso   1.000  N
  Ag33     1.0000 0.58714  0.77380  0.01238  Biso   1.000  Ag
  N81      1.0000 0.51843  0.03717  0.12977  Biso   1.000  N
  C129     1.0000 0.61913  0.95257  0.04557  Biso   1.000  C
  C130     1.0000 0.45293  0.03757  0.16547  Biso   1.000  C
  H129     1.0000 0.40253  0.98137  0.16447  Biso   1.000  H
  H130     1.0000 0.43793  0.07747  0.14807  Biso   1.000  H
  N82      1.0000 0.64183  0.09217  0.08457  Biso   1.000  N
  O33      1.0000 0.53353  0.02667  0.31247  Biso   1.000  O
  N83      1.0000 0.69133  0.97697  0.01847  Biso   1.000  N
  H131     1.0000 0.70063  0.94007  0.00067  Biso   1.000  H
  H132     1.0000 0.72993  0.03007  0.01827  Biso   1.000  H
  C131     1.0000 0.50113  0.00337  0.26237  Biso   1.000  C
  C132     1.0000 0.52103  0.97297  0.10307  Biso   1.000  C
  C133     1.0000 0.48023  0.06197  0.22977  Biso   1.000  C
  H133     1.0000 0.52983  0.11867  0.23027  Biso   1.000  H
  H134     1.0000 0.43493  0.06447  0.25137  Biso   1.000  H
  C134     1.0000 0.59753  0.00637  0.07537  Biso   1.000  C
  N84      1.0000 0.46193  0.89077  0.10167  Biso   1.000  N
  Ag34     1.0000 0.76024  0.19270  0.05186  Biso   1.000  Ag
  C135     1.0000 0.71893  0.89877  0.17057  Biso   1.000  C
  H135     1.0000 0.72103  0.94447  0.14657  Biso   1.000  H
  H136     1.0000 0.77113  0.89767  0.16317  Biso   1.000  H
  O34      1.0000 0.57533  0.78987  0.17307  Biso   1.000  O
  O35      1.0000 0.65673  0.77497  0.11117  Biso   1.000  O
  C136     1.0000 0.64463  0.81567  0.14997  Biso   1.000  C
  Ag35     1.0000 0.51594  0.84655  0.26535  Biso   1.000  Ag
  Ag36     1.0000 0.33703  0.83127  0.14006  Biso   1.000  Ag
  O36      1.0000 0.48103  0.93557  0.23717  Biso   1.000  O
  C137     1.0000 0.48643  0.84417  0.07267  Biso   1.000  C
  H137     1.0000 0.44763  0.78597  0.07097  Biso   1.000  H
  C138     1.0000 0.77433  0.83537  0.28437  Biso   1.000  C
  H138     1.0000 0.82893  0.87057  0.26937  Biso   1.000  H
  C139     1.0000 0.67073  0.73647  0.32847  Biso   1.000  C
  N85      1.0000 0.75553  0.77047  0.31647  Biso   1.000  N
  N86      1.0000 0.63203  0.61507  0.38827  Biso   1.000  N
  H139     1.0000 0.59283  0.57157  0.40717  Biso   1.000  H
  H140     1.0000 0.68393  0.62557  0.38907  Biso   1.000  H
  C140     1.0000 0.61313  0.66467  0.35877  Biso   1.000  C
  C141     1.0000 0.64223  0.78367  0.30117  Biso   1.000  C
  N87      1.0000 0.56323  0.76967  0.30247  Biso   1.000  N
  N88      1.0000 0.53143  0.64667  0.35847  Biso   1.000  N
  N89      1.0000 0.71083  0.84927  0.27367  Biso   1.000  N
  C142     1.0000 0.51163  0.69847  0.33207  Biso   1.000  C
  H141     1.0000 0.45473  0.68417  0.33427  Biso   1.000  H
  C143     1.0000 0.71523  0.91757  0.23657  Biso   1.000  C
  H142     1.0000 0.76543  0.97097  0.24727  Biso   1.000  H
  H143     1.0000 0.66553  0.92317  0.24387  Biso   1.000  H
  C144     1.0000 0.59383  0.10727  0.11717  Biso   1.000  C
  H144     1.0000 0.60903  0.16147  0.13127  Biso   1.000  H
  N90      1.0000 0.56023  0.87067  0.04557  Biso   1.000  N
