data_image0
_cell_length_a       10.9357
_cell_length_b       10.9357
_cell_length_c       12.4549
_cell_angle_alpha    101.572
_cell_angle_beta     101.572
_cell_angle_gamma    99.2271

_symmetry_space_group_name_H-M    P 1
_symmetry_int_tables_number       1

loop_
  _symmetry_equiv_pos_as_xyz
  'x, y, z'

loop_
  _atom_site_label
  _atom_site_occupancy
  _atom_site_fract_x
  _atom_site_fract_y
  _atom_site_fract_z
  _atom_site_thermal_displace_type
  _atom_site_B_iso_or_equiv
  _atom_site_type_symbol
  Zn1      1.0000 0.73604  0.34081  0.37630  Biso   1.000  Zn
  Zn2      1.0000 0.65919  0.26396  0.12370  Biso   1.000  Zn
  H1       1.0000 0.06700  0.39100  0.79900  Biso   1.000  H
  H2       1.0000 0.98300  0.26700  0.83800  Biso   1.000  H
  H3       1.0000 0.05300  0.23700  0.72600  Biso   1.000  H
  H4       1.0000 0.51790  0.25410  0.50600  Biso   1.000  H
  H5       1.0000 0.51480  0.25320  0.61800  Biso   1.000  H
  H6       1.0000 0.53130  0.36930  0.58600  Biso   1.000  H
  H7       1.0000 0.94630  0.35970  0.57710  Biso   1.000  H
  H8       1.0000 0.03720  0.24480  0.08800  Biso   1.000  H
  H9       1.0000 0.23890  0.22310  0.07700  Biso   1.000  H
  H10      1.0000 0.36530  0.37470  0.41100  Biso   1.000  H
  H11      1.0000 0.15860  0.37580  0.42200  Biso   1.000  H
  H12      1.0000 0.60900  0.93300  0.70100  Biso   1.000  H
  H13      1.0000 0.73300  0.01700  0.66200  Biso   1.000  H
  H14      1.0000 0.76300  0.94700  0.77400  Biso   1.000  H
  H15      1.0000 0.74590  0.48210  0.99400  Biso   1.000  H
  H16      1.0000 0.74680  0.48520  0.88200  Biso   1.000  H
  H17      1.0000 0.63070  0.46870  0.91400  Biso   1.000  H
  H18      1.0000 0.64030  0.05370  0.92290  Biso   1.000  H
  H19      1.0000 0.75520  0.96280  0.41200  Biso   1.000  H
  H20      1.0000 0.77690  0.76110  0.42300  Biso   1.000  H
  H21      1.0000 0.62530  0.63470  0.08900  Biso   1.000  H
  H22      1.0000 0.62420  0.84140  0.07800  Biso   1.000  H
  C1       1.0000 0.76487  0.28249  0.70451  Biso   1.000  C
  C2       1.0000 0.93950  0.31804  0.26770  Biso   1.000  C
  C3       1.0000 0.07399  0.31081  0.25910  Biso   1.000  C
  C4       1.0000 0.09880  0.26720  0.15480  Biso   1.000  C
  C5       1.0000 0.22310  0.26170  0.14730  Biso   1.000  C
  C6       1.0000 0.32296  0.29924  0.24260  Biso   1.000  C
  C7       1.0000 0.45782  0.29158  0.23550  Biso   1.000  C
  C8       1.0000 0.29797  0.34323  0.34650  Biso   1.000  C
  C9       1.0000 0.17394  0.34786  0.35500  Biso   1.000  C
  C10      1.0000 0.88750  0.30890  0.69230  Biso   1.000  C
  C11      1.0000 0.00630  0.30030  0.76950  Biso   1.000  C
  C12      1.0000 0.54850  0.29450  0.57580  Biso   1.000  C
  C13      1.0000 0.68890  0.30590  0.60540  Biso   1.000  C
  C14      1.0000 0.71751  0.23513  0.79549  Biso   1.000  C
  C15      1.0000 0.68196  0.06050  0.23230  Biso   1.000  C
  C16      1.0000 0.68919  0.92601  0.24090  Biso   1.000  C
  C17      1.0000 0.73280  0.90120  0.34520  Biso   1.000  C
  C18      1.0000 0.73830  0.77690  0.35270  Biso   1.000  C
  C19      1.0000 0.70076  0.67704  0.25740  Biso   1.000  C
  C20      1.0000 0.70842  0.54218  0.26450  Biso   1.000  C
  C21      1.0000 0.65677  0.70203  0.15350  Biso   1.000  C
  C22      1.0000 0.65214  0.82606  0.14500  Biso   1.000  C
  C23      1.0000 0.69110  0.11250  0.80770  Biso   1.000  C
  C24      1.0000 0.69970  0.99370  0.73050  Biso   1.000  C
  C25      1.0000 0.70550  0.45150  0.92420  Biso   1.000  C
  C26      1.0000 0.69410  0.31110  0.89460  Biso   1.000  C
  N1       1.0000 0.76970  0.33712  0.54133  Biso   1.000  N
  N2       1.0000 0.88720  0.34120  0.59760  Biso   1.000  N
  N3       1.0000 0.66288  0.23030  0.95867  Biso   1.000  N
  N4       1.0000 0.65880  0.11280  0.90240  Biso   1.000  N
  O1       1.0000 0.85424  0.28788  0.17847  Biso   1.000  O
  O2       1.0000 0.92239  0.35671  0.36565  Biso   1.000  O
  O3       1.0000 0.54234  0.32422  0.32542  Biso   1.000  O
  O4       1.0000 0.47519  0.25025  0.13830  Biso   1.000  O
  O5       1.0000 0.71212  0.14576  0.32153  Biso   1.000  O
  O6       1.0000 0.64329  0.07761  0.13435  Biso   1.000  O
  O7       1.0000 0.67578  0.45766  0.17458  Biso   1.000  O
  O8       1.0000 0.74975  0.52481  0.36170  Biso   1.000  O
  Zn3      1.0000 0.26396  0.65919  0.62370  Biso   1.000  Zn
  Zn4      1.0000 0.34081  0.73604  0.87630  Biso   1.000  Zn
  H23      1.0000 0.93300  0.60900  0.20100  Biso   1.000  H
  H24      1.0000 0.01700  0.73300  0.16200  Biso   1.000  H
  H25      1.0000 0.94700  0.76300  0.27400  Biso   1.000  H
  H26      1.0000 0.48210  0.74590  0.49400  Biso   1.000  H
  H27      1.0000 0.48520  0.74680  0.38200  Biso   1.000  H
  H28      1.0000 0.46870  0.63070  0.41400  Biso   1.000  H
  H29      1.0000 0.05370  0.64030  0.42290  Biso   1.000  H
  H30      1.0000 0.96280  0.75520  0.91200  Biso   1.000  H
  H31      1.0000 0.76110  0.77690  0.92300  Biso   1.000  H
  H32      1.0000 0.63470  0.62530  0.58900  Biso   1.000  H
  H33      1.0000 0.84140  0.62420  0.57800  Biso   1.000  H
  H34      1.0000 0.39100  0.06700  0.29900  Biso   1.000  H
  H35      1.0000 0.26700  0.98300  0.33800  Biso   1.000  H
  H36      1.0000 0.23700  0.05300  0.22600  Biso   1.000  H
  H37      1.0000 0.25410  0.51790  0.00600  Biso   1.000  H
  H38      1.0000 0.25320  0.51480  0.11800  Biso   1.000  H
  H39      1.0000 0.36930  0.53130  0.08600  Biso   1.000  H
  H40      1.0000 0.35970  0.94630  0.07710  Biso   1.000  H
  H41      1.0000 0.24480  0.03720  0.58800  Biso   1.000  H
  H42      1.0000 0.22310  0.23890  0.57700  Biso   1.000  H
  H43      1.0000 0.37470  0.36530  0.91100  Biso   1.000  H
  H44      1.0000 0.37580  0.15860  0.92200  Biso   1.000  H
  C27      1.0000 0.23513  0.71751  0.29549  Biso   1.000  C
  C28      1.0000 0.06050  0.68196  0.73230  Biso   1.000  C
  C29      1.0000 0.92601  0.68919  0.74090  Biso   1.000  C
  C30      1.0000 0.90120  0.73280  0.84520  Biso   1.000  C
  C31      1.0000 0.77690  0.73830  0.85270  Biso   1.000  C
  C32      1.0000 0.67704  0.70076  0.75740  Biso   1.000  C
  C33      1.0000 0.54218  0.70842  0.76450  Biso   1.000  C
  C34      1.0000 0.70203  0.65677  0.65350  Biso   1.000  C
  C35      1.0000 0.82606  0.65214  0.64500  Biso   1.000  C
  C36      1.0000 0.11250  0.69110  0.30770  Biso   1.000  C
  C37      1.0000 0.99370  0.69970  0.23050  Biso   1.000  C
  C38      1.0000 0.45150  0.70550  0.42420  Biso   1.000  C
  C39      1.0000 0.31110  0.69410  0.39460  Biso   1.000  C
  C40      1.0000 0.28249  0.76487  0.20451  Biso   1.000  C
  C41      1.0000 0.31804  0.93950  0.76770  Biso   1.000  C
  C42      1.0000 0.31081  0.07399  0.75910  Biso   1.000  C
  C43      1.0000 0.26720  0.09880  0.65480  Biso   1.000  C
  C44      1.0000 0.26170  0.22310  0.64730  Biso   1.000  C
  C45      1.0000 0.29924  0.32296  0.74260  Biso   1.000  C
  C46      1.0000 0.29158  0.45782  0.73550  Biso   1.000  C
  C47      1.0000 0.34323  0.29797  0.84650  Biso   1.000  C
  C48      1.0000 0.34786  0.17394  0.85500  Biso   1.000  C
  C49      1.0000 0.30890  0.88750  0.19230  Biso   1.000  C
  C50      1.0000 0.30030  0.00630  0.26950  Biso   1.000  C
  C51      1.0000 0.29450  0.54850  0.07580  Biso   1.000  C
  C52      1.0000 0.30590  0.68890  0.10540  Biso   1.000  C
  N5       1.0000 0.23030  0.66288  0.45867  Biso   1.000  N
  N6       1.0000 0.11280  0.65880  0.40240  Biso   1.000  N
  N7       1.0000 0.33712  0.76970  0.04133  Biso   1.000  N
  N8       1.0000 0.34120  0.88720  0.09760  Biso   1.000  N
  O9       1.0000 0.14576  0.71212  0.82153  Biso   1.000  O
  O10      1.0000 0.07761  0.64329  0.63435  Biso   1.000  O
  O11      1.0000 0.45766  0.67578  0.67458  Biso   1.000  O
  O12      1.0000 0.52481  0.74975  0.86170  Biso   1.000  O
  O13      1.0000 0.28788  0.85424  0.67847  Biso   1.000  O
  O14      1.0000 0.35671  0.92239  0.86565  Biso   1.000  O
  O15      1.0000 0.32422  0.54234  0.82542  Biso   1.000  O
  O16      1.0000 0.25025  0.47519  0.63830  Biso   1.000  O
