data_image0
_cell_length_a       9.2187
_cell_length_b       14.8652
_cell_length_c       14.5811
_cell_angle_alpha    90
_cell_angle_beta     90
_cell_angle_gamma    90

_symmetry_space_group_name_H-M    "P 1"
_symmetry_int_tables_number       1

loop_
  _symmetry_equiv_pos_as_xyz
  'x, y, z'

loop_
  _atom_site_label
  _atom_site_occupancy
  _atom_site_fract_x
  _atom_site_fract_y
  _atom_site_fract_z
  _atom_site_thermal_displace_type
  _atom_site_B_iso_or_equiv
  _atom_site_type_symbol
  P1       1.0000 0.15480  0.13560  0.10410  Biso   1.000  P
  Al1      1.0000 0.14800  0.34790  0.11450  Biso   1.000  Al
  O1       1.0000 0.97250  0.35970  0.16280  Biso   1.000  O
  O2       1.0000 0.72800  0.92630  0.16020  Biso   1.000  O
  O3       1.0000 0.26740  0.06950  0.13640  Biso   1.000  O
  O4       1.0000 0.12690  0.11160  0.00260  Biso   1.000  O
  O5       1.0000 0.01340  0.11910  0.15260  Biso   1.000  O
  O6       1.0000 0.21020  0.23280  0.11870  Biso   1.000  O
  P2       1.0000 0.84520  0.86440  0.60410  Biso   1.000  P
  Al2      1.0000 0.85200  0.65210  0.61450  Biso   1.000  Al
  O7       1.0000 0.02750  0.64030  0.66280  Biso   1.000  O
  O8       1.0000 0.27200  0.07370  0.66020  Biso   1.000  O
  O9       1.0000 0.73260  0.93050  0.63640  Biso   1.000  O
  O10      1.0000 0.87310  0.88840  0.50260  Biso   1.000  O
  O11      1.0000 0.98660  0.88090  0.65260  Biso   1.000  O
  O12      1.0000 0.78980  0.76720  0.61870  Biso   1.000  O
  P3       1.0000 0.84520  0.63560  0.39590  Biso   1.000  P
  Al3      1.0000 0.85200  0.84790  0.38550  Biso   1.000  Al
  O13      1.0000 0.02750  0.85970  0.33720  Biso   1.000  O
  O14      1.0000 0.27200  0.42630  0.33980  Biso   1.000  O
  O15      1.0000 0.73260  0.56950  0.36360  Biso   1.000  O
  O16      1.0000 0.87310  0.61160  0.49740  Biso   1.000  O
  O17      1.0000 0.98660  0.61910  0.34740  Biso   1.000  O
  O18      1.0000 0.78980  0.73280  0.38130  Biso   1.000  O
  P4       1.0000 0.15480  0.36440  0.89590  Biso   1.000  P
  Al4      1.0000 0.14800  0.15210  0.88550  Biso   1.000  Al
  O19      1.0000 0.97250  0.14030  0.83720  Biso   1.000  O
  O20      1.0000 0.72800  0.57370  0.83980  Biso   1.000  O
  O21      1.0000 0.26740  0.43050  0.86360  Biso   1.000  O
  O22      1.0000 0.12690  0.38840  0.99740  Biso   1.000  O
  O23      1.0000 0.01340  0.38090  0.84740  Biso   1.000  O
  O24      1.0000 0.21020  0.26720  0.88130  Biso   1.000  O
  P5       1.0000 0.84520  0.86440  0.89590  Biso   1.000  P
  Al5      1.0000 0.85200  0.65210  0.88550  Biso   1.000  Al
  O25      1.0000 0.02750  0.64030  0.83720  Biso   1.000  O
  O26      1.0000 0.27200  0.07370  0.83980  Biso   1.000  O
  O27      1.0000 0.73260  0.93050  0.86360  Biso   1.000  O
  O28      1.0000 0.87310  0.88840  0.99740  Biso   1.000  O
  O29      1.0000 0.98660  0.88090  0.84740  Biso   1.000  O
  O30      1.0000 0.78980  0.76720  0.88130  Biso   1.000  O
  P6       1.0000 0.15480  0.13560  0.39590  Biso   1.000  P
  Al6      1.0000 0.14800  0.34790  0.38550  Biso   1.000  Al
  O31      1.0000 0.97250  0.35970  0.33720  Biso   1.000  O
  O32      1.0000 0.72800  0.92630  0.33980  Biso   1.000  O
  O33      1.0000 0.26740  0.06950  0.36360  Biso   1.000  O
  O34      1.0000 0.12690  0.11160  0.49740  Biso   1.000  O
  O35      1.0000 0.01340  0.11910  0.34740  Biso   1.000  O
  O36      1.0000 0.21020  0.23280  0.38130  Biso   1.000  O
  P7       1.0000 0.15480  0.36440  0.60410  Biso   1.000  P
  Al7      1.0000 0.14800  0.15210  0.61450  Biso   1.000  Al
  O37      1.0000 0.97250  0.14030  0.66280  Biso   1.000  O
  O38      1.0000 0.72800  0.57370  0.66020  Biso   1.000  O
  O39      1.0000 0.26740  0.43050  0.63640  Biso   1.000  O
  O40      1.0000 0.12690  0.38840  0.50260  Biso   1.000  O
  O41      1.0000 0.01340  0.38090  0.65260  Biso   1.000  O
  O42      1.0000 0.21020  0.26720  0.61870  Biso   1.000  O
  P8       1.0000 0.84520  0.63560  0.10410  Biso   1.000  P
  Al8      1.0000 0.85200  0.84790  0.11450  Biso   1.000  Al
  O43      1.0000 0.02750  0.85970  0.16280  Biso   1.000  O
  O44      1.0000 0.27200  0.42630  0.16020  Biso   1.000  O
  O45      1.0000 0.73260  0.56950  0.13640  Biso   1.000  O
  O46      1.0000 0.87310  0.61160  0.00260  Biso   1.000  O
  O47      1.0000 0.98660  0.61910  0.15260  Biso   1.000  O
  O48      1.0000 0.78980  0.73280  0.11870  Biso   1.000  O
  P9       1.0000 0.88900  0.33470  0.25000  Biso   1.000  P
  P10      1.0000 0.68510  0.96380  0.25000  Biso   1.000  P
  Al9      1.0000 0.89890  0.13530  0.25000  Biso   1.000  Al
  Mg1      1.0000 0.67090  0.51900  0.25000  Biso   1.000  Mg
  O49      1.0000 0.81440  0.24300  0.25000  Biso   1.000  O
  O50      1.0000 0.75720  0.39460  0.25000  Biso   1.000  O
  O51      1.0000 0.75630  0.05370  0.25000  Biso   1.000  O
  O52      1.0000 0.53150  0.99390  0.25000  Biso   1.000  O
  Al10     1.0000 0.32910  0.01900  0.25000  Biso   1.000  Al
  P11      1.0000 0.11100  0.66530  0.75000  Biso   1.000  P
  P12      1.0000 0.31490  0.03620  0.75000  Biso   1.000  P
  Al11     1.0000 0.10110  0.86470  0.75000  Biso   1.000  Al
  Mg2      1.0000 0.32910  0.48100  0.75000  Biso   1.000  Mg
  O53      1.0000 0.18560  0.75700  0.75000  Biso   1.000  O
  O54      1.0000 0.24280  0.60540  0.75000  Biso   1.000  O
  O55      1.0000 0.24370  0.94630  0.75000  Biso   1.000  O
  O56      1.0000 0.46850  0.00610  0.75000  Biso   1.000  O
  Al12     1.0000 0.67090  0.98100  0.75000  Biso   1.000  Al
  P13      1.0000 0.11100  0.83470  0.25000  Biso   1.000  P
  P14      1.0000 0.31490  0.46380  0.25000  Biso   1.000  P
  Al13     1.0000 0.10110  0.63530  0.25000  Biso   1.000  Al
  O57      1.0000 0.18560  0.74300  0.25000  Biso   1.000  O
  O58      1.0000 0.24280  0.89460  0.25000  Biso   1.000  O
  O59      1.0000 0.24370  0.55370  0.25000  Biso   1.000  O
  O60      1.0000 0.46850  0.49390  0.25000  Biso   1.000  O
  P15      1.0000 0.88900  0.16530  0.75000  Biso   1.000  P
  P16      1.0000 0.68510  0.53620  0.75000  Biso   1.000  P
  Al14     1.0000 0.89890  0.36470  0.75000  Biso   1.000  Al
  O61      1.0000 0.81440  0.25700  0.75000  Biso   1.000  O
  O62      1.0000 0.75720  0.10540  0.75000  Biso   1.000  O
  O63      1.0000 0.75630  0.44630  0.75000  Biso   1.000  O
  O64      1.0000 0.53150  0.50610  0.75000  Biso   1.000  O
