data_image0
_cell_length_a       11.234
_cell_length_b       11.5767
_cell_length_c       11.5767
_cell_angle_alpha    109.098
_cell_angle_beta     100.1
_cell_angle_gamma    100.1

_symmetry_space_group_name_H-M    P 1
_symmetry_int_tables_number       1

loop_
  _symmetry_equiv_pos_as_xyz
  'x, y, z'

loop_
  _atom_site_label
  _atom_site_occupancy
  _atom_site_fract_x
  _atom_site_fract_y
  _atom_site_fract_z
  _atom_site_thermal_displace_type
  _atom_site_B_iso_or_equiv
  _atom_site_type_symbol
  Na1      1.0000 0.75000  0.14180  0.85820  Biso   1.000  Na
  Na2      1.0000 0.75000  0.95070  0.04930  Biso   1.000  Na
  Na3      1.0000 0.25000  0.85820  0.14180  Biso   1.000  Na
  Na4      1.0000 0.25000  0.04930  0.95070  Biso   1.000  Na
  Cu1      1.0000 0.01930  0.16530  0.77570  Biso   1.000  Cu
  Cu2      1.0000 0.48070  0.22430  0.83470  Biso   1.000  Cu
  Cu3      1.0000 0.98070  0.83470  0.22430  Biso   1.000  Cu
  Cu4      1.0000 0.51930  0.77570  0.16530  Biso   1.000  Cu
  H1       1.0000 0.85810  0.97760  0.66060  Biso   1.000  H
  H2       1.0000 0.90030  0.96410  0.77850  Biso   1.000  H
  H3       1.0000 0.08850  0.98230  0.67270  Biso   1.000  H
  H4       1.0000 0.18010  0.08190  0.69790  Biso   1.000  H
  H5       1.0000 0.86150  0.35300  0.12560  Biso   1.000  H
  H6       1.0000 0.25130  0.60250  0.18090  Biso   1.000  H
  H7       1.0000 0.22390  0.39040  0.13920  Biso   1.000  H
  H8       1.0000 0.64190  0.33940  0.02240  Biso   1.000  H
  H9       1.0000 0.59970  0.22150  0.03590  Biso   1.000  H
  H10      1.0000 0.41150  0.32730  0.01770  Biso   1.000  H
  H11      1.0000 0.31990  0.30210  0.91810  Biso   1.000  H
  H12      1.0000 0.63850  0.87440  0.64700  Biso   1.000  H
  H13      1.0000 0.24870  0.81910  0.39750  Biso   1.000  H
  H14      1.0000 0.27610  0.86080  0.60960  Biso   1.000  H
  H15      1.0000 0.14190  0.02240  0.33940  Biso   1.000  H
  H16      1.0000 0.09970  0.03590  0.22150  Biso   1.000  H
  H17      1.0000 0.91150  0.01770  0.32730  Biso   1.000  H
  H18      1.0000 0.81990  0.91810  0.30210  Biso   1.000  H
  H19      1.0000 0.13850  0.64700  0.87440  Biso   1.000  H
  H20      1.0000 0.74870  0.39750  0.81910  Biso   1.000  H
  H21      1.0000 0.77610  0.60960  0.86080  Biso   1.000  H
  H22      1.0000 0.35810  0.66060  0.97760  Biso   1.000  H
  H23      1.0000 0.40030  0.77850  0.96410  Biso   1.000  H
  H24      1.0000 0.58850  0.67270  0.98230  Biso   1.000  H
  H25      1.0000 0.68010  0.69790  0.08190  Biso   1.000  H
  H26      1.0000 0.36150  0.12560  0.35300  Biso   1.000  H
  H27      1.0000 0.75130  0.18090  0.60250  Biso   1.000  H
  H28      1.0000 0.72390  0.13920  0.39040  Biso   1.000  H
  C1       1.0000 0.03610  0.35050  0.12250  Biso   1.000  C
  C2       1.0000 0.93880  0.40370  0.13330  Biso   1.000  C
  C3       1.0000 0.94960  0.53300  0.15600  Biso   1.000  C
  C4       1.0000 0.06930  0.61120  0.17160  Biso   1.000  C
  C5       1.0000 0.17160  0.55290  0.16690  Biso   1.000  C
  C6       1.0000 0.15590  0.42590  0.14250  Biso   1.000  C
  C7       1.0000 0.83410  0.57980  0.15200  Biso   1.000  C
  C8       1.0000 0.46390  0.87750  0.64950  Biso   1.000  C
  C9       1.0000 0.56120  0.86670  0.59630  Biso   1.000  C
  C10      1.0000 0.55040  0.84400  0.46700  Biso   1.000  C
  C11      1.0000 0.43070  0.82840  0.38880  Biso   1.000  C
  C12      1.0000 0.32840  0.83310  0.44710  Biso   1.000  C
  C13      1.0000 0.34410  0.85750  0.57410  Biso   1.000  C
  C14      1.0000 0.66590  0.84800  0.42020  Biso   1.000  C
  C15      1.0000 0.96390  0.64950  0.87750  Biso   1.000  C
  C16      1.0000 0.06120  0.59630  0.86670  Biso   1.000  C
  C17      1.0000 0.05040  0.46700  0.84400  Biso   1.000  C
  C18      1.0000 0.93070  0.38880  0.82840  Biso   1.000  C
  C19      1.0000 0.82840  0.44710  0.83310  Biso   1.000  C
  C20      1.0000 0.84410  0.57410  0.85750  Biso   1.000  C
  C21      1.0000 0.16590  0.42020  0.84800  Biso   1.000  C
  C22      1.0000 0.53610  0.12250  0.35050  Biso   1.000  C
  C23      1.0000 0.43880  0.13330  0.40370  Biso   1.000  C
  C24      1.0000 0.44960  0.15600  0.53300  Biso   1.000  C
  C25      1.0000 0.56930  0.17160  0.61120  Biso   1.000  C
  C26      1.0000 0.67160  0.16690  0.55290  Biso   1.000  C
  C27      1.0000 0.65590  0.14250  0.42590  Biso   1.000  C
  C28      1.0000 0.33410  0.15200  0.57980  Biso   1.000  C
  S1       1.0000 0.01630  0.18750  0.08510  Biso   1.000  S
  S2       1.0000 0.48370  0.91490  0.81250  Biso   1.000  S
  S3       1.0000 0.98370  0.81250  0.91490  Biso   1.000  S
  S4       1.0000 0.51630  0.08510  0.18750  Biso   1.000  S
  O1       1.0000 0.88240  0.13140  0.03980  Biso   1.000  O
  O2       1.0000 0.08170  0.14550  0.98690  Biso   1.000  O
  O3       1.0000 0.07150  0.16990  0.19970  Biso   1.000  O
  O4       1.0000 0.73040  0.50270  0.12650  Biso   1.000  O
  O5       1.0000 0.83900  0.69530  0.17510  Biso   1.000  O
  O6       1.0000 0.09180  0.73100  0.18860  Biso   1.000  O
  O7       1.0000 0.87730  0.01950  0.73650  Biso   1.000  O
  O8       1.0000 0.13060  0.05050  0.72530  Biso   1.000  O
  O9       1.0000 0.61760  0.96020  0.86860  Biso   1.000  O
  O10      1.0000 0.41830  0.01310  0.85450  Biso   1.000  O
  O11      1.0000 0.42850  0.80030  0.83010  Biso   1.000  O
  O12      1.0000 0.76960  0.87350  0.49730  Biso   1.000  O
  O13      1.0000 0.66100  0.82490  0.30470  Biso   1.000  O
  O14      1.0000 0.40820  0.81140  0.26900  Biso   1.000  O
  O15      1.0000 0.62270  0.26350  0.98050  Biso   1.000  O
  O16      1.0000 0.36940  0.27470  0.94950  Biso   1.000  O
  O17      1.0000 0.11760  0.86860  0.96020  Biso   1.000  O
  O18      1.0000 0.91830  0.85450  0.01310  Biso   1.000  O
  O19      1.0000 0.92850  0.83010  0.80030  Biso   1.000  O
  O20      1.0000 0.26960  0.49730  0.87350  Biso   1.000  O
  O21      1.0000 0.16100  0.30470  0.82490  Biso   1.000  O
  O22      1.0000 0.90820  0.26900  0.81140  Biso   1.000  O
  O23      1.0000 0.12270  0.98050  0.26350  Biso   1.000  O
  O24      1.0000 0.86940  0.94950  0.27470  Biso   1.000  O
  O25      1.0000 0.38240  0.03980  0.13140  Biso   1.000  O
  O26      1.0000 0.58170  0.98690  0.14550  Biso   1.000  O
  O27      1.0000 0.57150  0.19970  0.16990  Biso   1.000  O
  O28      1.0000 0.23040  0.12650  0.50270  Biso   1.000  O
  O29      1.0000 0.33900  0.17510  0.69530  Biso   1.000  O
  O30      1.0000 0.59180  0.18860  0.73100  Biso   1.000  O
  O31      1.0000 0.37730  0.73650  0.01950  Biso   1.000  O
  O32      1.0000 0.63060  0.72530  0.05050  Biso   1.000  O
