data_image0
_cell_length_a       8.77259
_cell_length_b       12.182
_cell_length_c       21.9007
_cell_angle_alpha    92.175
_cell_angle_beta     101.553
_cell_angle_gamma    90

_symmetry_space_group_name_H-M    P 1
_symmetry_int_tables_number       1

loop_
  _symmetry_equiv_pos_as_xyz
  'x, y, z'

loop_
  _atom_site_label
  _atom_site_occupancy
  _atom_site_fract_x
  _atom_site_fract_y
  _atom_site_fract_z
  _atom_site_thermal_displace_type
  _atom_site_B_iso_or_equiv
  _atom_site_type_symbol
  Ag1      1.0000 0.56375  0.43103  0.82594  Biso   1.000  Ag
  Ag2      1.0000 0.73781  0.06897  0.17406  Biso   1.000  Ag
  Ag3      1.0000 0.43625  0.56897  0.17406  Biso   1.000  Ag
  Ag4      1.0000 0.26219  0.93103  0.82594  Biso   1.000  Ag
  H1       1.0000 0.49500  0.14700  0.80260  Biso   1.000  H
  H2       1.0000 0.18420  0.15830  0.90500  Biso   1.000  H
  H3       1.0000 0.22960  0.43020  0.87520  Biso   1.000  H
  H4       1.0000 0.17980  0.36620  0.92880  Biso   1.000  H
  H5       1.0000 0.55700  0.32810  0.96340  Biso   1.000  H
  H6       1.0000 0.26060  0.57230  0.96260  Biso   1.000  H
  H7       1.0000 0.69240  0.35300  0.19740  Biso   1.000  H
  H8       1.0000 0.27920  0.34170  0.09500  Biso   1.000  H
  H9       1.0000 0.35440  0.06980  0.12480  Biso   1.000  H
  H10      1.0000 0.25100  0.13380  0.07120  Biso   1.000  H
  H11      1.0000 0.59360  0.17190  0.03660  Biso   1.000  H
  H12      1.0000 0.29800  0.92770  0.03740  Biso   1.000  H
  H13      1.0000 0.50500  0.85300  0.19740  Biso   1.000  H
  H14      1.0000 0.81580  0.84170  0.09500  Biso   1.000  H
  H15      1.0000 0.77040  0.56980  0.12480  Biso   1.000  H
  H16      1.0000 0.82020  0.63380  0.07120  Biso   1.000  H
  H17      1.0000 0.44300  0.67190  0.03660  Biso   1.000  H
  H18      1.0000 0.73940  0.42770  0.03740  Biso   1.000  H
  H19      1.0000 0.30760  0.64700  0.80260  Biso   1.000  H
  H20      1.0000 0.72080  0.65830  0.90500  Biso   1.000  H
  H21      1.0000 0.64560  0.93020  0.87520  Biso   1.000  H
  H22      1.0000 0.74900  0.86620  0.92880  Biso   1.000  H
  H23      1.0000 0.40640  0.82810  0.96340  Biso   1.000  H
  H24      1.0000 0.70200  0.07230  0.96260  Biso   1.000  H
  C1       1.0000 0.42845  0.17320  0.82790  Biso   1.000  C
  C2       1.0000 0.26038  0.17750  0.88316  Biso   1.000  C
  C3       1.0000 0.26660  0.38160  0.90900  Biso   1.000  C
  C4       1.0000 0.39086  0.44030  0.95572  Biso   1.000  C
  C5       1.0000 0.53202  0.39730  0.97764  Biso   1.000  C
  C6       1.0000 0.35767  0.54200  0.97754  Biso   1.000  C
  C7       1.0000 0.60055  0.32680  0.17210  Biso   1.000  C
  C8       1.0000 0.37722  0.32250  0.11684  Biso   1.000  C
  C9       1.0000 0.35760  0.11840  0.09100  Biso   1.000  C
  C10      1.0000 0.43514  0.05970  0.04428  Biso   1.000  C
  C11      1.0000 0.55438  0.10270  0.02236  Biso   1.000  C
  C12      1.0000 0.38013  0.95800  0.02246  Biso   1.000  C
  C13      1.0000 0.57155  0.82680  0.17210  Biso   1.000  C
  C14      1.0000 0.73962  0.82250  0.11684  Biso   1.000  C
  C15      1.0000 0.73340  0.61840  0.09100  Biso   1.000  C
  C16      1.0000 0.60914  0.55970  0.04428  Biso   1.000  C
  C17      1.0000 0.46798  0.60270  0.02236  Biso   1.000  C
  C18      1.0000 0.64233  0.45800  0.02246  Biso   1.000  C
  C19      1.0000 0.39945  0.67320  0.82790  Biso   1.000  C
  C20      1.0000 0.62278  0.67750  0.88316  Biso   1.000  C
  C21      1.0000 0.64240  0.88160  0.90900  Biso   1.000  C
  C22      1.0000 0.56486  0.94030  0.95572  Biso   1.000  C
  C23      1.0000 0.44562  0.89730  0.97764  Biso   1.000  C
  C24      1.0000 0.61987  0.04200  0.97754  Biso   1.000  C
  N1       1.0000 0.42379  0.27700  0.84638  Biso   1.000  N
  N2       1.0000 0.32626  0.10810  0.84932  Biso   1.000  N
  N3       1.0000 0.31581  0.27790  0.88242  Biso   1.000  N
  N4       1.0000 0.57741  0.22300  0.15362  Biso   1.000  N
  N5       1.0000 0.47694  0.39190  0.15068  Biso   1.000  N
  N6       1.0000 0.43339  0.22210  0.11758  Biso   1.000  N
  N7       1.0000 0.57621  0.72300  0.15362  Biso   1.000  N
  N8       1.0000 0.67374  0.89190  0.15068  Biso   1.000  N
  N9       1.0000 0.68419  0.72210  0.11758  Biso   1.000  N
  N10      1.0000 0.42259  0.77700  0.84638  Biso   1.000  N
  N11      1.0000 0.52306  0.60810  0.84932  Biso   1.000  N
  N12      1.0000 0.56661  0.77790  0.88242  Biso   1.000  N
  Ag5      1.0000 0.03877  0.96311  0.67216  Biso   1.000  Ag
  Ag6      1.0000 0.96123  0.03689  0.32784  Biso   1.000  Ag
  H25      1.0000 0.94130  0.73040  0.58420  Biso   1.000  H
  H26      1.0000 0.66060  0.97220  0.59380  Biso   1.000  H
  H27      1.0000 0.80720  0.64670  0.47720  Biso   1.000  H
  H28      1.0000 0.66240  0.71070  0.44240  Biso   1.000  H
  H29      1.0000 0.50970  0.65940  0.56080  Biso   1.000  H
  H30      1.0000 0.65690  0.48220  0.42700  Biso   1.000  H
  H31      1.0000 0.24720  0.17290  0.67180  Biso   1.000  H
  H32      1.0000 0.86940  0.14870  0.73880  Biso   1.000  H
  H33      1.0000 0.09080  0.43530  0.75280  Biso   1.000  H
  H34      1.0000 0.05870  0.26960  0.41580  Biso   1.000  H
  H35      1.0000 0.33940  0.02780  0.40620  Biso   1.000  H
  H36      1.0000 0.19280  0.35330  0.52280  Biso   1.000  H
  H37      1.0000 0.33760  0.28930  0.55760  Biso   1.000  H
  H38      1.0000 0.49030  0.34060  0.43920  Biso   1.000  H
  H39      1.0000 0.34310  0.51780  0.57300  Biso   1.000  H
  H40      1.0000 0.75280  0.82710  0.32820  Biso   1.000  H
  H41      1.0000 0.13060  0.85130  0.26120  Biso   1.000  H
  H42      1.0000 0.90920  0.56470  0.24720  Biso   1.000  H
  C25      1.0000 0.85703  0.77780  0.57646  Biso   1.000  C
  C26      1.0000 0.70295  0.90770  0.58070  Biso   1.000  C
  C27      1.0000 0.70785  0.67760  0.48150  Biso   1.000  C
  C28      1.0000 0.60122  0.58510  0.49284  Biso   1.000  C
  C29      1.0000 0.50634  0.59520  0.53628  Biso   1.000  C
  C30      1.0000 0.59427  0.48990  0.45654  Biso   1.000  C
  C31      1.0000 0.32980  0.37950  0.69940  Biso   1.000  C
  C32      1.0000 0.19213  0.31540  0.71066  Biso   1.000  C
  C33      1.0000 0.17375  0.20520  0.69190  Biso   1.000  C
  C34      1.0000 0.95142  0.19120  0.73144  Biso   1.000  C
  C35      1.0000 0.95985  0.29980  0.75210  Biso   1.000  C
  C36      1.0000 0.08250  0.36130  0.74040  Biso   1.000  C
  C37      1.0000 0.83870  0.34800  0.78540  Biso   1.000  C
  C38      1.0000 0.14297  0.22220  0.42354  Biso   1.000  C
  C39      1.0000 0.29705  0.09230  0.41930  Biso   1.000  C
  C40      1.0000 0.29215  0.32240  0.51850  Biso   1.000  C
  C41      1.0000 0.39878  0.41490  0.50716  Biso   1.000  C
  C42      1.0000 0.49366  0.40480  0.46372  Biso   1.000  C
  C43      1.0000 0.40573  0.51010  0.54346  Biso   1.000  C
  C44      1.0000 0.67020  0.62050  0.30060  Biso   1.000  C
  C45      1.0000 0.80787  0.68460  0.28934  Biso   1.000  C
  C46      1.0000 0.82625  0.79480  0.30810  Biso   1.000  C
  C47      1.0000 0.04858  0.80880  0.26856  Biso   1.000  C
  C48      1.0000 0.04015  0.70020  0.24790  Biso   1.000  C
  C49      1.0000 0.91750  0.63870  0.25960  Biso   1.000  C
  C50      1.0000 0.16130  0.65200  0.21460  Biso   1.000  C
  N13      1.0000 0.84320  0.86860  0.60960  Biso   1.000  N
  N14      1.0000 0.63195  0.84630  0.53230  Biso   1.000  N
  N15      1.0000 0.73497  0.76340  0.53094  Biso   1.000  N
  N16      1.0000 0.05467  0.14310  0.70134  Biso   1.000  N
  N17      1.0000 0.15680  0.13140  0.39040  Biso   1.000  N
  N18      1.0000 0.36805  0.15370  0.46770  Biso   1.000  N
  N19      1.0000 0.26503  0.23660  0.46906  Biso   1.000  N
  N20      1.0000 0.94533  0.85690  0.29866  Biso   1.000  N
  O1       1.0000 0.33894  0.47870  0.71508  Biso   1.000  O
  O2       1.0000 0.43125  0.32970  0.67650  Biso   1.000  O
  O3       1.0000 0.82660  0.44730  0.79000  Biso   1.000  O
  O4       1.0000 0.75350  0.28650  0.80460  Biso   1.000  O
  O5       1.0000 0.66106  0.52130  0.28492  Biso   1.000  O
  O6       1.0000 0.56875  0.67030  0.32350  Biso   1.000  O
  O7       1.0000 0.17340  0.55270  0.21000  Biso   1.000  O
  O8       1.0000 0.24650  0.71350  0.19540  Biso   1.000  O
  Ag7      1.0000 0.36661  0.53689  0.32784  Biso   1.000  Ag
  Ag8      1.0000 0.63339  0.46311  0.67216  Biso   1.000  Ag
  H43      1.0000 0.35710  0.76960  0.41580  Biso   1.000  H
  H44      1.0000 0.06680  0.52780  0.40620  Biso   1.000  H
  H45      1.0000 0.33000  0.85330  0.52280  Biso   1.000  H
  H46      1.0000 0.22000  0.78930  0.55760  Biso   1.000  H
  H47      1.0000 0.94890  0.84060  0.43920  Biso   1.000  H
  H48      1.0000 0.22990  0.01780  0.57300  Biso   1.000  H
  H49      1.0000 0.57540  0.32710  0.32820  Biso   1.000  H
  H50      1.0000 0.13060  0.35130  0.26120  Biso   1.000  H
  H51      1.0000 0.33800  0.06470  0.24720  Biso   1.000  H
  H52      1.0000 0.64290  0.23040  0.58420  Biso   1.000  H
  H53      1.0000 0.93320  0.47220  0.59380  Biso   1.000  H
  H54      1.0000 0.67000  0.14670  0.47720  Biso   1.000  H
  H55      1.0000 0.78000  0.21070  0.44240  Biso   1.000  H
  H56      1.0000 0.05110  0.15940  0.56080  Biso   1.000  H
  H57      1.0000 0.77010  0.98220  0.42700  Biso   1.000  H
  H58      1.0000 0.42460  0.67290  0.67180  Biso   1.000  H
  H59      1.0000 0.86940  0.64870  0.73880  Biso   1.000  H
  H60      1.0000 0.66200  0.93530  0.75280  Biso   1.000  H
  C51      1.0000 0.28057  0.72220  0.42354  Biso   1.000  C
  C52      1.0000 0.12225  0.59230  0.41930  Biso   1.000  C
  C53      1.0000 0.22635  0.82240  0.51850  Biso   1.000  C
  C54      1.0000 0.10838  0.91490  0.50716  Biso   1.000  C
  C55      1.0000 0.97006  0.90480  0.46372  Biso   1.000  C
  C56      1.0000 0.13773  0.01010  0.54346  Biso   1.000  C
  C57      1.0000 0.63040  0.12050  0.30060  Biso   1.000  C
  C58      1.0000 0.48147  0.18460  0.28934  Biso   1.000  C
  C59      1.0000 0.48185  0.29480  0.30810  Biso   1.000  C
  C60      1.0000 0.21998  0.30880  0.26856  Biso   1.000  C
  C61      1.0000 0.20775  0.20020  0.24790  Biso   1.000  C
  C62      1.0000 0.34210  0.13870  0.25960  Biso   1.000  C
  C63      1.0000 0.05330  0.15200  0.21460  Biso   1.000  C
  C64      1.0000 0.71943  0.27780  0.57646  Biso   1.000  C
  C65      1.0000 0.87775  0.40770  0.58070  Biso   1.000  C
  C66      1.0000 0.77365  0.17760  0.48150  Biso   1.000  C
  C67      1.0000 0.89162  0.08510  0.49284  Biso   1.000  C
  C68      1.0000 0.02994  0.09520  0.53628  Biso   1.000  C
  C69      1.0000 0.86227  0.98990  0.45654  Biso   1.000  C
  C70      1.0000 0.36960  0.87950  0.69940  Biso   1.000  C
  C71      1.0000 0.51853  0.81540  0.71066  Biso   1.000  C
  C72      1.0000 0.51815  0.70520  0.69190  Biso   1.000  C
  C73      1.0000 0.78002  0.69120  0.73144  Biso   1.000  C
  C74      1.0000 0.79225  0.79980  0.75210  Biso   1.000  C
  C75      1.0000 0.65790  0.86130  0.74040  Biso   1.000  C
  C76      1.0000 0.94670  0.84800  0.78540  Biso   1.000  C
  N21      1.0000 0.23360  0.63140  0.39040  Biso   1.000  N
  N22      1.0000 0.09965  0.65370  0.46770  Biso   1.000  N
  N23      1.0000 0.20403  0.73660  0.46906  Biso   1.000  N
  N24      1.0000 0.35333  0.35690  0.29866  Biso   1.000  N
  N25      1.0000 0.76640  0.36860  0.60960  Biso   1.000  N
  N26      1.0000 0.90035  0.34630  0.53230  Biso   1.000  N
  N27      1.0000 0.79597  0.26340  0.53094  Biso   1.000  N
  N28      1.0000 0.64667  0.64310  0.70134  Biso   1.000  N
  O9       1.0000 0.62386  0.02130  0.28492  Biso   1.000  O
  O10      1.0000 0.75475  0.17030  0.32350  Biso   1.000  O
  O11      1.0000 0.03660  0.05270  0.21000  Biso   1.000  O
  O12      1.0000 0.94890  0.21350  0.19540  Biso   1.000  O
  O13      1.0000 0.37614  0.97870  0.71508  Biso   1.000  O
  O14      1.0000 0.24525  0.82970  0.67650  Biso   1.000  O
  O15      1.0000 0.96340  0.94730  0.79000  Biso   1.000  O
  O16      1.0000 0.05110  0.78650  0.80460  Biso   1.000  O
