data_QUGPAJ_charged
_audit_creation_date              2014-07-02
_audit_creation_method            'Materials Studio'
_symmetry_space_group_name_H-M    'P1'
_symmetry_Int_Tables_number       1
_symmetry_cell_setting            triclinic
loop_
_symmetry_equiv_pos_as_xyz
  x,y,z
_cell_length_a                    20.5732
_cell_length_b                    20.5732
_cell_length_c                    20.5732
_cell_angle_alpha                 104.4090
_cell_angle_beta                  104.4090
_cell_angle_gamma                 104.4090
loop_
_atom_site_label
_atom_site_type_symbol
_atom_site_fract_x
_atom_site_fract_y
_atom_site_fract_z
_atom_site_U_iso_or_equiv
_atom_site_adp_type
_atom_site_occupancy
Nd1    Nd    0.78139   0.47732   0.31855   0.01267  Uiso   1.00
Nd2    Nd    0.31855   0.78139   0.47732   0.01267  Uiso   1.00
Nd3    Nd    0.47732   0.31855   0.78139   0.01267  Uiso   1.00
Nd4    Nd    0.97732   0.28139   0.81855   0.01267  Uiso   1.00
Nd5    Nd    0.28139   0.81855   0.97732   0.01267  Uiso   1.00
Nd6    Nd    0.81855   0.97732   0.28139   0.01267  Uiso   1.00
Re1    Re    0.56097   0.10360   0.02223   0.01267  Uiso   1.00
Re2    Re    0.67680   0.21641   0.08117   0.01267  Uiso   1.00
Re3    Re    0.61974   0.04379   0.93492   0.01267  Uiso   1.00
Re4    Re    0.61177   0.17111   0.94292   0.01267  Uiso   1.00
Re5    Re    0.68497   0.08894   0.07339   0.01267  Uiso   1.00
Re6    Re    0.73589   0.15634   0.99437   0.01267  Uiso   1.00
Re7    Re    0.02223   0.56097   0.10360   0.01267  Uiso   1.00
Re8    Re    0.08117   0.67680   0.21641   0.01267  Uiso   1.00
Re9    Re    0.93492   0.61974   0.04379   0.01267  Uiso   1.00
Re10   Re    0.94292   0.61177   0.17111   0.01267  Uiso   1.00
Re11   Re    0.07339   0.68497   0.08894   0.01267  Uiso   1.00
Re12   Re    0.99437   0.73589   0.15634   0.01267  Uiso   1.00
Re13   Re    0.10360   0.02223   0.56097   0.01267  Uiso   1.00
Re14   Re    0.21641   0.08117   0.67680   0.01267  Uiso   1.00
Re15   Re    0.04379   0.93492   0.61974   0.01267  Uiso   1.00
Re16   Re    0.17111   0.94292   0.61177   0.01267  Uiso   1.00
Re17   Re    0.08894   0.07339   0.68497   0.01267  Uiso   1.00
Re18   Re    0.15634   0.99437   0.73589   0.01267  Uiso   1.00
Re19   Re    0.60360   0.06097   0.52223   0.01267  Uiso   1.00
Re20   Re    0.71641   0.17680   0.58117   0.01267  Uiso   1.00
Re21   Re    0.54379   0.11974   0.43492   0.01267  Uiso   1.00
Re22   Re    0.67111   0.11177   0.44292   0.01267  Uiso   1.00
Re23   Re    0.58894   0.18497   0.57339   0.01267  Uiso   1.00
Re24   Re    0.65634   0.23589   0.49437   0.01267  Uiso   1.00
Re25   Re    0.06097   0.52223   0.60360   0.01267  Uiso   1.00
Re26   Re    0.17680   0.58117   0.71641   0.01267  Uiso   1.00
Re27   Re    0.11974   0.43492   0.54379   0.01267  Uiso   1.00
Re28   Re    0.11177   0.44292   0.67111   0.01267  Uiso   1.00
Re29   Re    0.18497   0.57339   0.58894   0.01267  Uiso   1.00
Re30   Re    0.23589   0.49437   0.65634   0.01267  Uiso   1.00
Re31   Re    0.52223   0.60360   0.06097   0.01267  Uiso   1.00
Re32   Re    0.58117   0.71641   0.17680   0.01267  Uiso   1.00
Re33   Re    0.43492   0.54379   0.11974   0.01267  Uiso   1.00
Re34   Re    0.44292   0.67111   0.11177   0.01267  Uiso   1.00
Re35   Re    0.57339   0.58894   0.18497   0.01267  Uiso   1.00
Re36   Re    0.49437   0.65634   0.23589   0.01267  Uiso   1.00
H1     H     0.84120   0.39910   0.19110   0.01267  Uiso   1.00
H2     H     0.88910   0.35640   0.11030   0.01267  Uiso   1.00
H3     H     0.93120   0.30720   0.13480   0.01267  Uiso   1.00
H4     H     0.97320   0.38610   0.14290   0.01267  Uiso   1.00
H5     H     0.96200   0.41300   0.31920   0.01267  Uiso   1.00
H6     H     0.02290   0.42550   0.28480   0.01267  Uiso   1.00
H7     H     0.98450   0.34820   0.28380   0.01267  Uiso   1.00
H8     H     0.96240   0.56620   0.36600   0.01267  Uiso   1.00
H9     H     0.07580   0.65130   0.40060   0.01267  Uiso   1.00
H10    H     0.10570   0.68050   0.48490   0.01267  Uiso   1.00
H11    H     0.08160   0.72960   0.44220   0.01267  Uiso   1.00
H12    H     0.93250   0.67000   0.50210   0.01267  Uiso   1.00
H13    H     0.99120   0.74000   0.50870   0.01267  Uiso   1.00
H14    H     0.01270   0.68780   0.54840   0.01267  Uiso   1.00
H15    H     0.19110   0.84120   0.39910   0.01267  Uiso   1.00
H16    H     0.11030   0.88910   0.35640   0.01267  Uiso   1.00
H17    H     0.13480   0.93120   0.30720   0.01267  Uiso   1.00
H18    H     0.14290   0.97320   0.38610   0.01267  Uiso   1.00
H19    H     0.31920   0.96200   0.41300   0.01267  Uiso   1.00
H20    H     0.28480   0.02290   0.42550   0.01267  Uiso   1.00
H21    H     0.28380   0.98450   0.34820   0.01267  Uiso   1.00
H22    H     0.36600   0.96240   0.56620   0.01267  Uiso   1.00
H23    H     0.40060   0.07580   0.65130   0.01267  Uiso   1.00
H24    H     0.48490   0.10570   0.68050   0.01267  Uiso   1.00
H25    H     0.44220   0.08160   0.72960   0.01267  Uiso   1.00
H26    H     0.50210   0.93250   0.67000   0.01267  Uiso   1.00
H27    H     0.50870   0.99120   0.74000   0.01267  Uiso   1.00
H28    H     0.54840   0.01270   0.68780   0.01267  Uiso   1.00
H29    H     0.39910   0.19110   0.84120   0.01267  Uiso   1.00
H30    H     0.35640   0.11030   0.88910   0.01267  Uiso   1.00
H31    H     0.30720   0.13480   0.93120   0.01267  Uiso   1.00
H32    H     0.38610   0.14290   0.97320   0.01267  Uiso   1.00
H33    H     0.41300   0.31920   0.96200   0.01267  Uiso   1.00
H34    H     0.42550   0.28480   0.02290   0.01267  Uiso   1.00
H35    H     0.34820   0.28380   0.98450   0.01267  Uiso   1.00
H36    H     0.56620   0.36600   0.96240   0.01267  Uiso   1.00
H37    H     0.65130   0.40060   0.07580   0.01267  Uiso   1.00
H38    H     0.68050   0.48490   0.10570   0.01267  Uiso   1.00
H39    H     0.72960   0.44220   0.08160   0.01267  Uiso   1.00
H40    H     0.67000   0.50210   0.93250   0.01267  Uiso   1.00
H41    H     0.74000   0.50870   0.99120   0.01267  Uiso   1.00
H42    H     0.68780   0.54840   0.01270   0.01267  Uiso   1.00
H43    H     0.89910   0.34120   0.69110   0.01267  Uiso   1.00
H44    H     0.85640   0.38910   0.61030   0.01267  Uiso   1.00
H45    H     0.80720   0.43120   0.63480   0.01267  Uiso   1.00
H46    H     0.88610   0.47320   0.64290   0.01267  Uiso   1.00
H47    H     0.91300   0.46200   0.81920   0.01267  Uiso   1.00
H48    H     0.92550   0.52290   0.78480   0.01267  Uiso   1.00
H49    H     0.84820   0.48450   0.78380   0.01267  Uiso   1.00
H50    H     0.06620   0.46240   0.86600   0.01267  Uiso   1.00
H51    H     0.15130   0.57580   0.90060   0.01267  Uiso   1.00
H52    H     0.18050   0.60570   0.98490   0.01267  Uiso   1.00
H53    H     0.22960   0.58160   0.94220   0.01267  Uiso   1.00
H54    H     0.17000   0.43250   0.00210   0.01267  Uiso   1.00
H55    H     0.24000   0.49120   0.00870   0.01267  Uiso   1.00
H56    H     0.18780   0.51270   0.04840   0.01267  Uiso   1.00
H57    H     0.34120   0.69110   0.89910   0.01267  Uiso   1.00
H58    H     0.38910   0.61030   0.85640   0.01267  Uiso   1.00
H59    H     0.43120   0.63480   0.80720   0.01267  Uiso   1.00
H60    H     0.47320   0.64290   0.88610   0.01267  Uiso   1.00
H61    H     0.46200   0.81920   0.91300   0.01267  Uiso   1.00
H62    H     0.52290   0.78480   0.92550   0.01267  Uiso   1.00
H63    H     0.48450   0.78380   0.84820   0.01267  Uiso   1.00
H64    H     0.46240   0.86600   0.06620   0.01267  Uiso   1.00
H65    H     0.57580   0.90060   0.15130   0.01267  Uiso   1.00
H66    H     0.60570   0.98490   0.18050   0.01267  Uiso   1.00
H67    H     0.58160   0.94220   0.22960   0.01267  Uiso   1.00
H68    H     0.43250   0.00210   0.17000   0.01267  Uiso   1.00
H69    H     0.49120   0.00870   0.24000   0.01267  Uiso   1.00
H70    H     0.51270   0.04840   0.18780   0.01267  Uiso   1.00
H71    H     0.69110   0.89910   0.34120   0.01267  Uiso   1.00
H72    H     0.61030   0.85640   0.38910   0.01267  Uiso   1.00
H73    H     0.63480   0.80720   0.43120   0.01267  Uiso   1.00
H74    H     0.64290   0.88610   0.47320   0.01267  Uiso   1.00
H75    H     0.81920   0.91300   0.46200   0.01267  Uiso   1.00
H76    H     0.78480   0.92550   0.52290   0.01267  Uiso   1.00
H77    H     0.78380   0.84820   0.48450   0.01267  Uiso   1.00
H78    H     0.86600   0.06620   0.46240   0.01267  Uiso   1.00
H79    H     0.90060   0.15130   0.57580   0.01267  Uiso   1.00
H80    H     0.98490   0.18050   0.60570   0.01267  Uiso   1.00
H81    H     0.94220   0.22960   0.58160   0.01267  Uiso   1.00
H82    H     0.00210   0.17000   0.43250   0.01267  Uiso   1.00
H83    H     0.00870   0.24000   0.49120   0.01267  Uiso   1.00
H84    H     0.04840   0.18780   0.51270   0.01267  Uiso   1.00
C1     C     0.46480   0.07830   0.04080   0.01267  Uiso   1.00
C2     C     0.70730   0.31380   0.16370   0.01267  Uiso   1.00
C3     C     0.58840   0.94640   0.85020   0.01267  Uiso   1.00
C4     C     0.56660   0.22190   0.86890   0.01267  Uiso   1.00
C5     C     0.73120   0.04370   0.14830   0.01267  Uiso   1.00
C6     C     0.83270   0.18380   0.98230   0.01267  Uiso   1.00
C7     C     0.88120   0.40630   0.22970   0.01267  Uiso   1.00
C8     C     0.93010   0.35540   0.14500   0.01267  Uiso   1.00
C9     C     0.97800   0.39300   0.28000   0.01267  Uiso   1.00
C10    C     0.94660   0.59240   0.39940   0.01267  Uiso   1.00
C11    C     0.07180   0.68130   0.44300   0.01267  Uiso   1.00
C12    C     0.98200   0.69100   0.50600   0.01267  Uiso   1.00
C13    C     0.85000   0.35200   0.38600   0.01267  Uiso   1.00
C14    C     0.88600   0.24600   0.37800   0.01267  Uiso   1.00
C15    C     0.76700   0.23300   0.29400   0.01267  Uiso   1.00
C16    C     0.04080   0.46480   0.07830   0.01267  Uiso   1.00
C17    C     0.16370   0.70730   0.31380   0.01267  Uiso   1.00
C18    C     0.85020   0.58840   0.94640   0.01267  Uiso   1.00
C19    C     0.86890   0.56660   0.22190   0.01267  Uiso   1.00
C20    C     0.14830   0.73120   0.04370   0.01267  Uiso   1.00
C21    C     0.98230   0.83270   0.18380   0.01267  Uiso   1.00
C22    C     0.22970   0.88120   0.40630   0.01267  Uiso   1.00
C23    C     0.14500   0.93010   0.35540   0.01267  Uiso   1.00
C24    C     0.28000   0.97800   0.39300   0.01267  Uiso   1.00
C25    C     0.39940   0.94660   0.59240   0.01267  Uiso   1.00
C26    C     0.44300   0.07180   0.68130   0.01267  Uiso   1.00
C27    C     0.50600   0.98200   0.69100   0.01267  Uiso   1.00
C28    C     0.38600   0.85000   0.35200   0.01267  Uiso   1.00
C29    C     0.37800   0.88600   0.24600   0.01267  Uiso   1.00
C30    C     0.29400   0.76700   0.23300   0.01267  Uiso   1.00
C31    C     0.07830   0.04080   0.46480   0.01267  Uiso   1.00
C32    C     0.31380   0.16370   0.70730   0.01267  Uiso   1.00
C33    C     0.94640   0.85020   0.58840   0.01267  Uiso   1.00
C34    C     0.22190   0.86890   0.56660   0.01267  Uiso   1.00
C35    C     0.04370   0.14830   0.73120   0.01267  Uiso   1.00
C36    C     0.18380   0.98230   0.83270   0.01267  Uiso   1.00
C37    C     0.40630   0.22970   0.88120   0.01267  Uiso   1.00
C38    C     0.35540   0.14500   0.93010   0.01267  Uiso   1.00
C39    C     0.39300   0.28000   0.97800   0.01267  Uiso   1.00
C40    C     0.59240   0.39940   0.94660   0.01267  Uiso   1.00
C41    C     0.68130   0.44300   0.07180   0.01267  Uiso   1.00
C42    C     0.69100   0.50600   0.98200   0.01267  Uiso   1.00
C43    C     0.35200   0.38600   0.85000   0.01267  Uiso   1.00
C44    C     0.24600   0.37800   0.88600   0.01267  Uiso   1.00
C45    C     0.23300   0.29400   0.76700   0.01267  Uiso   1.00
C46    C     0.57830   0.96480   0.54080   0.01267  Uiso   1.00
C47    C     0.81380   0.20730   0.66370   0.01267  Uiso   1.00
C48    C     0.44640   0.08840   0.35020   0.01267  Uiso   1.00
C49    C     0.72190   0.06660   0.36890   0.01267  Uiso   1.00
C50    C     0.54370   0.23120   0.64830   0.01267  Uiso   1.00
C51    C     0.68380   0.33270   0.48230   0.01267  Uiso   1.00
C52    C     0.90630   0.38120   0.72970   0.01267  Uiso   1.00
C53    C     0.85540   0.43010   0.64500   0.01267  Uiso   1.00
C54    C     0.89300   0.47800   0.78000   0.01267  Uiso   1.00
C55    C     0.09240   0.44660   0.89940   0.01267  Uiso   1.00
C56    C     0.18130   0.57180   0.94300   0.01267  Uiso   1.00
C57    C     0.19100   0.48200   0.00600   0.01267  Uiso   1.00
C58    C     0.85200   0.35000   0.88600   0.01267  Uiso   1.00
C59    C     0.74600   0.38600   0.87800   0.01267  Uiso   1.00
C60    C     0.73300   0.26700   0.79400   0.01267  Uiso   1.00
C61    C     0.96480   0.54080   0.57830   0.01267  Uiso   1.00
C62    C     0.20730   0.66370   0.81380   0.01267  Uiso   1.00
C63    C     0.08840   0.35020   0.44640   0.01267  Uiso   1.00
C64    C     0.06660   0.36890   0.72190   0.01267  Uiso   1.00
C65    C     0.23120   0.64830   0.54370   0.01267  Uiso   1.00
C66    C     0.33270   0.48230   0.68380   0.01267  Uiso   1.00
C67    C     0.38120   0.72970   0.90630   0.01267  Uiso   1.00
C68    C     0.43010   0.64500   0.85540   0.01267  Uiso   1.00
C69    C     0.47800   0.78000   0.89300   0.01267  Uiso   1.00
C70    C     0.44660   0.89940   0.09240   0.01267  Uiso   1.00
C71    C     0.57180   0.94300   0.18130   0.01267  Uiso   1.00
C72    C     0.48200   0.00600   0.19100   0.01267  Uiso   1.00
C73    C     0.35000   0.88600   0.85200   0.01267  Uiso   1.00
C74    C     0.38600   0.87800   0.74600   0.01267  Uiso   1.00
C75    C     0.26700   0.79400   0.73300   0.01267  Uiso   1.00
C76    C     0.54080   0.57830   0.96480   0.01267  Uiso   1.00
C77    C     0.66370   0.81380   0.20730   0.01267  Uiso   1.00
C78    C     0.35020   0.44640   0.08840   0.01267  Uiso   1.00
C79    C     0.36890   0.72190   0.06660   0.01267  Uiso   1.00
C80    C     0.64830   0.54370   0.23120   0.01267  Uiso   1.00
C81    C     0.48230   0.68380   0.33270   0.01267  Uiso   1.00
C82    C     0.72970   0.90630   0.38120   0.01267  Uiso   1.00
C83    C     0.64500   0.85540   0.43010   0.01267  Uiso   1.00
C84    C     0.78000   0.89300   0.47800   0.01267  Uiso   1.00
C85    C     0.89940   0.09240   0.44660   0.01267  Uiso   1.00
C86    C     0.94300   0.18130   0.57180   0.01267  Uiso   1.00
C87    C     0.00600   0.19100   0.48200   0.01267  Uiso   1.00
C88    C     0.88600   0.85200   0.35000   0.01267  Uiso   1.00
C89    C     0.87800   0.74600   0.38600   0.01267  Uiso   1.00
C90    C     0.79400   0.73300   0.26700   0.01267  Uiso   1.00
Se1    Se    0.79436   0.19813   0.12772   0.01267  Uiso   1.00
Se2    Se    0.66942   0.11139   0.86165   0.01267  Uiso   1.00
Se3    Se    0.72515   0.27703   0.00199   0.01267  Uiso   1.00
Se4    Se    0.55685   0.22685   0.02880   0.01267  Uiso   1.00
Se5    Se    0.57216   0.98255   0.01335   0.01267  Uiso   1.00
Se6    Se    0.62729   0.14814   0.15431   0.01267  Uiso   1.00
Se7    Se    0.50188   0.06231   0.88957   0.01267  Uiso   1.00
Se8    Se    0.74006   0.03353   0.98713   0.01267  Uiso   1.00
Se9    Se    0.12772   0.79436   0.19813   0.01267  Uiso   1.00
Se10   Se    0.86165   0.66942   0.11139   0.01267  Uiso   1.00
Se11   Se    0.00199   0.72515   0.27703   0.01267  Uiso   1.00
Se12   Se    0.02880   0.55685   0.22685   0.01267  Uiso   1.00
Se13   Se    0.01335   0.57216   0.98255   0.01267  Uiso   1.00
Se14   Se    0.15431   0.62729   0.14814   0.01267  Uiso   1.00
Se15   Se    0.88957   0.50188   0.06231   0.01267  Uiso   1.00
Se16   Se    0.98713   0.74006   0.03353   0.01267  Uiso   1.00
Se17   Se    0.19813   0.12772   0.79436   0.01267  Uiso   1.00
Se18   Se    0.11139   0.86165   0.66942   0.01267  Uiso   1.00
Se19   Se    0.27703   0.00199   0.72515   0.01267  Uiso   1.00
Se20   Se    0.22685   0.02880   0.55685   0.01267  Uiso   1.00
Se21   Se    0.98255   0.01335   0.57216   0.01267  Uiso   1.00
Se22   Se    0.14814   0.15431   0.62729   0.01267  Uiso   1.00
Se23   Se    0.06231   0.88957   0.50188   0.01267  Uiso   1.00
Se24   Se    0.03353   0.98713   0.74006   0.01267  Uiso   1.00
Se25   Se    0.69813   0.29436   0.62772   0.01267  Uiso   1.00
Se26   Se    0.61139   0.16942   0.36165   0.01267  Uiso   1.00
Se27   Se    0.77703   0.22515   0.50199   0.01267  Uiso   1.00
Se28   Se    0.72685   0.05685   0.52880   0.01267  Uiso   1.00
Se29   Se    0.48255   0.07216   0.51335   0.01267  Uiso   1.00
Se30   Se    0.64814   0.12729   0.65431   0.01267  Uiso   1.00
Se31   Se    0.56231   0.00188   0.38957   0.01267  Uiso   1.00
Se32   Se    0.53353   0.24006   0.48713   0.01267  Uiso   1.00
Se33   Se    0.29436   0.62772   0.69813   0.01267  Uiso   1.00
Se34   Se    0.16942   0.36165   0.61139   0.01267  Uiso   1.00
Se35   Se    0.22515   0.50199   0.77703   0.01267  Uiso   1.00
Se36   Se    0.05685   0.52880   0.72685   0.01267  Uiso   1.00
Se37   Se    0.07216   0.51335   0.48255   0.01267  Uiso   1.00
Se38   Se    0.12729   0.65431   0.64814   0.01267  Uiso   1.00
Se39   Se    0.00188   0.38957   0.56231   0.01267  Uiso   1.00
Se40   Se    0.24006   0.48713   0.53353   0.01267  Uiso   1.00
Se41   Se    0.62772   0.69813   0.29436   0.01267  Uiso   1.00
Se42   Se    0.36165   0.61139   0.16942   0.01267  Uiso   1.00
Se43   Se    0.50199   0.77703   0.22515   0.01267  Uiso   1.00
Se44   Se    0.52880   0.72685   0.05685   0.01267  Uiso   1.00
Se45   Se    0.51335   0.48255   0.07216   0.01267  Uiso   1.00
Se46   Se    0.65431   0.64814   0.12729   0.01267  Uiso   1.00
Se47   Se    0.38957   0.56231   0.00188   0.01267  Uiso   1.00
Se48   Se    0.48713   0.53353   0.24006   0.01267  Uiso   1.00
N1     N     0.41380   0.05970   0.05190   0.01267  Uiso   1.00
N2     N     0.72560   0.37500   0.20540   0.01267  Uiso   1.00
N3     N     0.57620   0.90110   0.81080   0.01267  Uiso   1.00
N4     N     0.53900   0.23970   0.83040   0.01267  Uiso   1.00
N5     N     0.75760   0.01860   0.18660   0.01267  Uiso   1.00
N6     N     0.88550   0.19580   0.97570   0.01267  Uiso   1.00
N7     N     0.92560   0.37950   0.21330   0.01267  Uiso   1.00
N8     N     0.99440   0.65250   0.44510   0.01267  Uiso   1.00
N9     N     0.83180   0.28590   0.35420   0.01267  Uiso   1.00
N10    N     0.05190   0.41380   0.05970   0.01267  Uiso   1.00
N11    N     0.20540   0.72560   0.37500   0.01267  Uiso   1.00
N12    N     0.81080   0.57620   0.90110   0.01267  Uiso   1.00
N13    N     0.83040   0.53900   0.23970   0.01267  Uiso   1.00
N14    N     0.18660   0.75760   0.01860   0.01267  Uiso   1.00
N15    N     0.97570   0.88550   0.19580   0.01267  Uiso   1.00
N16    N     0.21330   0.92560   0.37950   0.01267  Uiso   1.00
N17    N     0.44510   0.99440   0.65250   0.01267  Uiso   1.00
N18    N     0.35420   0.83180   0.28590   0.01267  Uiso   1.00
N19    N     0.05970   0.05190   0.41380   0.01267  Uiso   1.00
N20    N     0.37500   0.20540   0.72560   0.01267  Uiso   1.00
N21    N     0.90110   0.81080   0.57620   0.01267  Uiso   1.00
N22    N     0.23970   0.83040   0.53900   0.01267  Uiso   1.00
N23    N     0.01860   0.18660   0.75760   0.01267  Uiso   1.00
N24    N     0.19580   0.97570   0.88550   0.01267  Uiso   1.00
N25    N     0.37950   0.21330   0.92560   0.01267  Uiso   1.00
N26    N     0.65250   0.44510   0.99440   0.01267  Uiso   1.00
N27    N     0.28590   0.35420   0.83180   0.01267  Uiso   1.00
N28    N     0.55970   0.91380   0.55190   0.01267  Uiso   1.00
N29    N     0.87500   0.22560   0.70540   0.01267  Uiso   1.00
N30    N     0.40110   0.07620   0.31080   0.01267  Uiso   1.00
N31    N     0.73970   0.03900   0.33040   0.01267  Uiso   1.00
N32    N     0.51860   0.25760   0.68660   0.01267  Uiso   1.00
N33    N     0.69580   0.38550   0.47570   0.01267  Uiso   1.00
N34    N     0.87950   0.42560   0.71330   0.01267  Uiso   1.00
N35    N     0.15250   0.49440   0.94510   0.01267  Uiso   1.00
N36    N     0.78590   0.33180   0.85420   0.01267  Uiso   1.00
N37    N     0.91380   0.55190   0.55970   0.01267  Uiso   1.00
N38    N     0.22560   0.70540   0.87500   0.01267  Uiso   1.00
N39    N     0.07620   0.31080   0.40110   0.01267  Uiso   1.00
N40    N     0.03900   0.33040   0.73970   0.01267  Uiso   1.00
N41    N     0.25760   0.68660   0.51860   0.01267  Uiso   1.00
N42    N     0.38550   0.47570   0.69580   0.01267  Uiso   1.00
N43    N     0.42560   0.71330   0.87950   0.01267  Uiso   1.00
N44    N     0.49440   0.94510   0.15250   0.01267  Uiso   1.00
N45    N     0.33180   0.85420   0.78590   0.01267  Uiso   1.00
N46    N     0.55190   0.55970   0.91380   0.01267  Uiso   1.00
N47    N     0.70540   0.87500   0.22560   0.01267  Uiso   1.00
N48    N     0.31080   0.40110   0.07620   0.01267  Uiso   1.00
N49    N     0.33040   0.73970   0.03900   0.01267  Uiso   1.00
N50    N     0.68660   0.51860   0.25760   0.01267  Uiso   1.00
N51    N     0.47570   0.69580   0.38550   0.01267  Uiso   1.00
N52    N     0.71330   0.87950   0.42560   0.01267  Uiso   1.00
N53    N     0.94510   0.15250   0.49440   0.01267  Uiso   1.00
N54    N     0.85420   0.78590   0.33180   0.01267  Uiso   1.00
O1     O     0.88110   0.44170   0.29010   0.01267  Uiso   1.00
O2     O     0.65910   0.40520   0.32270   0.01267  Uiso   1.00
O3     O     0.88670   0.56680   0.39490   0.01267  Uiso   1.00
O4     O     0.77820   0.50590   0.44280   0.01267  Uiso   1.00
O5     O     0.79830   0.38170   0.36600   0.01267  Uiso   1.00
O6     O     0.76000   0.59870   0.37930   0.01267  Uiso   1.00
O7     O     0.29010   0.88110   0.44170   0.01267  Uiso   1.00
O8     O     0.32270   0.65910   0.40520   0.01267  Uiso   1.00
O9     O     0.39490   0.88670   0.56680   0.01267  Uiso   1.00
O10    O     0.44280   0.77820   0.50590   0.01267  Uiso   1.00
O11    O     0.36600   0.79830   0.38170   0.01267  Uiso   1.00
O12    O     0.37930   0.76000   0.59870   0.01267  Uiso   1.00
O13    O     0.44170   0.29010   0.88110   0.01267  Uiso   1.00
O14    O     0.40520   0.32270   0.65910   0.01267  Uiso   1.00
O15    O     0.56680   0.39490   0.88670   0.01267  Uiso   1.00
O16    O     0.50590   0.44280   0.77820   0.01267  Uiso   1.00
O17    O     0.38170   0.36600   0.79830   0.01267  Uiso   1.00
O18    O     0.59870   0.37930   0.76000   0.01267  Uiso   1.00
O19    O     0.94170   0.38110   0.79010   0.01267  Uiso   1.00
O20    O     0.90520   0.15910   0.82270   0.01267  Uiso   1.00
O21    O     0.06680   0.38670   0.89490   0.01267  Uiso   1.00
O22    O     0.00590   0.27820   0.94280   0.01267  Uiso   1.00
O23    O     0.88170   0.29830   0.86600   0.01267  Uiso   1.00
O24    O     0.09870   0.26000   0.87930   0.01267  Uiso   1.00
O25    O     0.38110   0.79010   0.94170   0.01267  Uiso   1.00
O26    O     0.15910   0.82270   0.90520   0.01267  Uiso   1.00
O27    O     0.38670   0.89490   0.06680   0.01267  Uiso   1.00
O28    O     0.27820   0.94280   0.00590   0.01267  Uiso   1.00
O29    O     0.29830   0.86600   0.88170   0.01267  Uiso   1.00
O30    O     0.26000   0.87930   0.09870   0.01267  Uiso   1.00
O31    O     0.79010   0.94170   0.38110   0.01267  Uiso   1.00
O32    O     0.82270   0.90520   0.15910   0.01267  Uiso   1.00
O33    O     0.89490   0.06680   0.38670   0.01267  Uiso   1.00
O34    O     0.94280   0.00590   0.27820   0.01267  Uiso   1.00
O35    O     0.86600   0.88170   0.29830   0.01267  Uiso   1.00
O36    O     0.87930   0.09870   0.26000   0.01267  Uiso   1.00
