data_image0
_cell_length_a       17.1065
_cell_length_b       17.1065
_cell_length_c       17.1065
_cell_angle_alpha    90
_cell_angle_beta     90
_cell_angle_gamma    90

_symmetry_space_group_name_H-M    "P 1"
_symmetry_int_tables_number       1

loop_
  _symmetry_equiv_pos_as_xyz
  'x, y, z'

loop_
  _atom_site_label
  _atom_site_occupancy
  _atom_site_fract_x
  _atom_site_fract_y
  _atom_site_fract_z
  _atom_site_thermal_displace_type
  _atom_site_B_iso_or_equiv
  _atom_site_type_symbol
  N1       1.0000 0.93800  0.39560  0.22940  Biso   1.000  N
  N2       1.0000 0.92070  0.44610  0.17380  Biso   1.000  N
  N3       1.0000 0.01080  0.36700  0.21460  Biso   1.000  N
  N4       1.0000 0.97910  0.45040  0.12110  Biso   1.000  N
  C1       1.0000 0.03280  0.40340  0.14950  Biso   1.000  C
  N5       1.0000 0.56200  0.10440  0.22940  Biso   1.000  N
  N6       1.0000 0.57930  0.05390  0.17380  Biso   1.000  N
  N7       1.0000 0.48920  0.13300  0.21460  Biso   1.000  N
  N8       1.0000 0.52090  0.04960  0.12110  Biso   1.000  N
  C2       1.0000 0.46720  0.09660  0.14950  Biso   1.000  C
  N9       1.0000 0.56200  0.39560  0.27060  Biso   1.000  N
  N10      1.0000 0.57930  0.44610  0.32620  Biso   1.000  N
  N11      1.0000 0.48920  0.36700  0.28540  Biso   1.000  N
  N12      1.0000 0.52090  0.45040  0.37890  Biso   1.000  N
  C3       1.0000 0.46720  0.40340  0.35050  Biso   1.000  C
  N13      1.0000 0.93800  0.10440  0.27060  Biso   1.000  N
  N14      1.0000 0.92070  0.05390  0.32620  Biso   1.000  N
  N15      1.0000 0.01080  0.13300  0.28540  Biso   1.000  N
  N16      1.0000 0.97910  0.04960  0.37890  Biso   1.000  N
  C4       1.0000 0.03280  0.09660  0.35050  Biso   1.000  C
  N17      1.0000 0.22940  0.93800  0.39560  Biso   1.000  N
  N18      1.0000 0.17380  0.92070  0.44610  Biso   1.000  N
  N19      1.0000 0.21460  0.01080  0.36700  Biso   1.000  N
  N20      1.0000 0.12110  0.97910  0.45040  Biso   1.000  N
  C5       1.0000 0.14950  0.03280  0.40340  Biso   1.000  C
  N21      1.0000 0.22940  0.56200  0.10440  Biso   1.000  N
  N22      1.0000 0.17380  0.57930  0.05390  Biso   1.000  N
  N23      1.0000 0.21460  0.48920  0.13300  Biso   1.000  N
  N24      1.0000 0.12110  0.52090  0.04960  Biso   1.000  N
  C6       1.0000 0.14950  0.46720  0.09660  Biso   1.000  C
  N25      1.0000 0.27060  0.56200  0.39560  Biso   1.000  N
  N26      1.0000 0.32620  0.57930  0.44610  Biso   1.000  N
  N27      1.0000 0.28540  0.48920  0.36700  Biso   1.000  N
  N28      1.0000 0.37890  0.52090  0.45040  Biso   1.000  N
  C7       1.0000 0.35050  0.46720  0.40340  Biso   1.000  C
  N29      1.0000 0.27060  0.93800  0.10440  Biso   1.000  N
  N30      1.0000 0.32620  0.92070  0.05390  Biso   1.000  N
  N31      1.0000 0.28540  0.01080  0.13300  Biso   1.000  N
  N32      1.0000 0.37890  0.97910  0.04960  Biso   1.000  N
  C8       1.0000 0.35050  0.03280  0.09660  Biso   1.000  C
  N33      1.0000 0.39560  0.22940  0.93800  Biso   1.000  N
  N34      1.0000 0.44610  0.17380  0.92070  Biso   1.000  N
  N35      1.0000 0.36700  0.21460  0.01080  Biso   1.000  N
  N36      1.0000 0.45040  0.12110  0.97910  Biso   1.000  N
  C9       1.0000 0.40340  0.14950  0.03280  Biso   1.000  C
  N37      1.0000 0.10440  0.22940  0.56200  Biso   1.000  N
  N38      1.0000 0.05390  0.17380  0.57930  Biso   1.000  N
  N39      1.0000 0.13300  0.21460  0.48920  Biso   1.000  N
  N40      1.0000 0.04960  0.12110  0.52090  Biso   1.000  N
  C10      1.0000 0.09660  0.14950  0.46720  Biso   1.000  C
  N41      1.0000 0.39560  0.27060  0.56200  Biso   1.000  N
  N42      1.0000 0.44610  0.32620  0.57930  Biso   1.000  N
  N43      1.0000 0.36700  0.28540  0.48920  Biso   1.000  N
  N44      1.0000 0.45040  0.37890  0.52090  Biso   1.000  N
  C11      1.0000 0.40340  0.35050  0.46720  Biso   1.000  C
  N45      1.0000 0.10440  0.27060  0.93800  Biso   1.000  N
  N46      1.0000 0.05390  0.32620  0.92070  Biso   1.000  N
  N47      1.0000 0.13300  0.28540  0.01080  Biso   1.000  N
  N48      1.0000 0.04960  0.37890  0.97910  Biso   1.000  N
  C12      1.0000 0.09660  0.35050  0.03280  Biso   1.000  C
  N49      1.0000 0.39560  0.93800  0.27060  Biso   1.000  N
  N50      1.0000 0.44610  0.92070  0.32620  Biso   1.000  N
  N51      1.0000 0.36700  0.01080  0.28540  Biso   1.000  N
  N52      1.0000 0.45040  0.97910  0.37890  Biso   1.000  N
  C13      1.0000 0.40340  0.03280  0.35050  Biso   1.000  C
  N53      1.0000 0.10440  0.56200  0.27060  Biso   1.000  N
  N54      1.0000 0.05390  0.57930  0.32620  Biso   1.000  N
  N55      1.0000 0.13300  0.48920  0.28540  Biso   1.000  N
  N56      1.0000 0.04960  0.52090  0.37890  Biso   1.000  N
  C14      1.0000 0.09660  0.46720  0.35050  Biso   1.000  C
  N57      1.0000 0.39560  0.56200  0.22940  Biso   1.000  N
  N58      1.0000 0.44610  0.57930  0.17380  Biso   1.000  N
  N59      1.0000 0.36700  0.48920  0.21460  Biso   1.000  N
  N60      1.0000 0.45040  0.52090  0.12110  Biso   1.000  N
  C15      1.0000 0.40340  0.46720  0.14950  Biso   1.000  C
  N61      1.0000 0.10440  0.93800  0.22940  Biso   1.000  N
  N62      1.0000 0.05390  0.92070  0.17380  Biso   1.000  N
  N63      1.0000 0.13300  0.01080  0.21460  Biso   1.000  N
  N64      1.0000 0.04960  0.97910  0.12110  Biso   1.000  N
  C16      1.0000 0.09660  0.03280  0.14950  Biso   1.000  C
  N65      1.0000 0.93800  0.22940  0.10440  Biso   1.000  N
  N66      1.0000 0.92070  0.17380  0.05390  Biso   1.000  N
  N67      1.0000 0.01080  0.21460  0.13300  Biso   1.000  N
  N68      1.0000 0.97910  0.12110  0.04960  Biso   1.000  N
  C17      1.0000 0.03280  0.14950  0.09660  Biso   1.000  C
  N69      1.0000 0.56200  0.22940  0.39560  Biso   1.000  N
  N70      1.0000 0.57930  0.17380  0.44610  Biso   1.000  N
  N71      1.0000 0.48920  0.21460  0.36700  Biso   1.000  N
  N72      1.0000 0.52090  0.12110  0.45040  Biso   1.000  N
  C18      1.0000 0.46720  0.14950  0.40340  Biso   1.000  C
  N73      1.0000 0.56200  0.27060  0.10440  Biso   1.000  N
  N74      1.0000 0.57930  0.32620  0.05390  Biso   1.000  N
  N75      1.0000 0.48920  0.28540  0.13300  Biso   1.000  N
  N76      1.0000 0.52090  0.37890  0.04960  Biso   1.000  N
  C19      1.0000 0.46720  0.35050  0.09660  Biso   1.000  C
  N77      1.0000 0.93800  0.27060  0.39560  Biso   1.000  N
  N78      1.0000 0.92070  0.32620  0.44610  Biso   1.000  N
  N79      1.0000 0.01080  0.28540  0.36700  Biso   1.000  N
  N80      1.0000 0.97910  0.37890  0.45040  Biso   1.000  N
  C20      1.0000 0.03280  0.35050  0.40340  Biso   1.000  C
  N81      1.0000 0.22940  0.39560  0.56200  Biso   1.000  N
  N82      1.0000 0.17380  0.44610  0.57930  Biso   1.000  N
  N83      1.0000 0.21460  0.36700  0.48920  Biso   1.000  N
  N84      1.0000 0.12110  0.45040  0.52090  Biso   1.000  N
  C21      1.0000 0.14950  0.40340  0.46720  Biso   1.000  C
  N85      1.0000 0.22940  0.10440  0.93800  Biso   1.000  N
  N86      1.0000 0.17380  0.05390  0.92070  Biso   1.000  N
  N87      1.0000 0.21460  0.13300  0.01080  Biso   1.000  N
  N88      1.0000 0.12110  0.04960  0.97910  Biso   1.000  N
  C22      1.0000 0.14950  0.09660  0.03280  Biso   1.000  C
  N89      1.0000 0.27060  0.39560  0.93800  Biso   1.000  N
  N90      1.0000 0.32620  0.44610  0.92070  Biso   1.000  N
  N91      1.0000 0.28540  0.36700  0.01080  Biso   1.000  N
  N92      1.0000 0.37890  0.45040  0.97910  Biso   1.000  N
  C23      1.0000 0.35050  0.40340  0.03280  Biso   1.000  C
  N93      1.0000 0.27060  0.10440  0.56200  Biso   1.000  N
  N94      1.0000 0.32620  0.05390  0.57930  Biso   1.000  N
  N95      1.0000 0.28540  0.13300  0.48920  Biso   1.000  N
  N96      1.0000 0.37890  0.04960  0.52090  Biso   1.000  N
  C24      1.0000 0.35050  0.09660  0.46720  Biso   1.000  C
  N97      1.0000 0.06200  0.60440  0.77060  Biso   1.000  N
  N98      1.0000 0.07930  0.55390  0.82620  Biso   1.000  N
  N99      1.0000 0.98920  0.63300  0.78540  Biso   1.000  N
  N100     1.0000 0.02090  0.54960  0.87890  Biso   1.000  N
  C25      1.0000 0.96720  0.59660  0.85050  Biso   1.000  C
  N101     1.0000 0.43800  0.89560  0.77060  Biso   1.000  N
  N102     1.0000 0.42070  0.94610  0.82620  Biso   1.000  N
  N103     1.0000 0.51080  0.86700  0.78540  Biso   1.000  N
  N104     1.0000 0.47910  0.95040  0.87890  Biso   1.000  N
  C26      1.0000 0.53280  0.90340  0.85050  Biso   1.000  C
  N105     1.0000 0.43800  0.60440  0.72940  Biso   1.000  N
  N106     1.0000 0.42070  0.55390  0.67380  Biso   1.000  N
  N107     1.0000 0.51080  0.63300  0.71460  Biso   1.000  N
  N108     1.0000 0.47910  0.54960  0.62110  Biso   1.000  N
  C27      1.0000 0.53280  0.59660  0.64950  Biso   1.000  C
  N109     1.0000 0.06200  0.89560  0.72940  Biso   1.000  N
  N110     1.0000 0.07930  0.94610  0.67380  Biso   1.000  N
  N111     1.0000 0.98920  0.86700  0.71460  Biso   1.000  N
  N112     1.0000 0.02090  0.95040  0.62110  Biso   1.000  N
  C28      1.0000 0.96720  0.90340  0.64950  Biso   1.000  C
  N113     1.0000 0.77060  0.06200  0.60440  Biso   1.000  N
  N114     1.0000 0.82620  0.07930  0.55390  Biso   1.000  N
  N115     1.0000 0.78540  0.98920  0.63300  Biso   1.000  N
  N116     1.0000 0.87890  0.02090  0.54960  Biso   1.000  N
  C29      1.0000 0.85050  0.96720  0.59660  Biso   1.000  C
  N117     1.0000 0.77060  0.43800  0.89560  Biso   1.000  N
  N118     1.0000 0.82620  0.42070  0.94610  Biso   1.000  N
  N119     1.0000 0.78540  0.51080  0.86700  Biso   1.000  N
  N120     1.0000 0.87890  0.47910  0.95040  Biso   1.000  N
  C30      1.0000 0.85050  0.53280  0.90340  Biso   1.000  C
  N121     1.0000 0.72940  0.43800  0.60440  Biso   1.000  N
  N122     1.0000 0.67380  0.42070  0.55390  Biso   1.000  N
  N123     1.0000 0.71460  0.51080  0.63300  Biso   1.000  N
  N124     1.0000 0.62110  0.47910  0.54960  Biso   1.000  N
  C31      1.0000 0.64950  0.53280  0.59660  Biso   1.000  C
  N125     1.0000 0.72940  0.06200  0.89560  Biso   1.000  N
  N126     1.0000 0.67380  0.07930  0.94610  Biso   1.000  N
  N127     1.0000 0.71460  0.98920  0.86700  Biso   1.000  N
  N128     1.0000 0.62110  0.02090  0.95040  Biso   1.000  N
  C32      1.0000 0.64950  0.96720  0.90340  Biso   1.000  C
  N129     1.0000 0.60440  0.77060  0.06200  Biso   1.000  N
  N130     1.0000 0.55390  0.82620  0.07930  Biso   1.000  N
  N131     1.0000 0.63300  0.78540  0.98920  Biso   1.000  N
  N132     1.0000 0.54960  0.87890  0.02090  Biso   1.000  N
  C33      1.0000 0.59660  0.85050  0.96720  Biso   1.000  C
  N133     1.0000 0.89560  0.77060  0.43800  Biso   1.000  N
  N134     1.0000 0.94610  0.82620  0.42070  Biso   1.000  N
  N135     1.0000 0.86700  0.78540  0.51080  Biso   1.000  N
  N136     1.0000 0.95040  0.87890  0.47910  Biso   1.000  N
  C34      1.0000 0.90340  0.85050  0.53280  Biso   1.000  C
  N137     1.0000 0.60440  0.72940  0.43800  Biso   1.000  N
  N138     1.0000 0.55390  0.67380  0.42070  Biso   1.000  N
  N139     1.0000 0.63300  0.71460  0.51080  Biso   1.000  N
  N140     1.0000 0.54960  0.62110  0.47910  Biso   1.000  N
  C35      1.0000 0.59660  0.64950  0.53280  Biso   1.000  C
  N141     1.0000 0.89560  0.72940  0.06200  Biso   1.000  N
  N142     1.0000 0.94610  0.67380  0.07930  Biso   1.000  N
  N143     1.0000 0.86700  0.71460  0.98920  Biso   1.000  N
  N144     1.0000 0.95040  0.62110  0.02090  Biso   1.000  N
  C36      1.0000 0.90340  0.64950  0.96720  Biso   1.000  C
  N145     1.0000 0.60440  0.06200  0.72940  Biso   1.000  N
  N146     1.0000 0.55390  0.07930  0.67380  Biso   1.000  N
  N147     1.0000 0.63300  0.98920  0.71460  Biso   1.000  N
  N148     1.0000 0.54960  0.02090  0.62110  Biso   1.000  N
  C37      1.0000 0.59660  0.96720  0.64950  Biso   1.000  C
  N149     1.0000 0.89560  0.43800  0.72940  Biso   1.000  N
  N150     1.0000 0.94610  0.42070  0.67380  Biso   1.000  N
  N151     1.0000 0.86700  0.51080  0.71460  Biso   1.000  N
  N152     1.0000 0.95040  0.47910  0.62110  Biso   1.000  N
  C38      1.0000 0.90340  0.53280  0.64950  Biso   1.000  C
  N153     1.0000 0.60440  0.43800  0.77060  Biso   1.000  N
  N154     1.0000 0.55390  0.42070  0.82620  Biso   1.000  N
  N155     1.0000 0.63300  0.51080  0.78540  Biso   1.000  N
  N156     1.0000 0.54960  0.47910  0.87890  Biso   1.000  N
  C39      1.0000 0.59660  0.53280  0.85050  Biso   1.000  C
  N157     1.0000 0.89560  0.06200  0.77060  Biso   1.000  N
  N158     1.0000 0.94610  0.07930  0.82620  Biso   1.000  N
  N159     1.0000 0.86700  0.98920  0.78540  Biso   1.000  N
  N160     1.0000 0.95040  0.02090  0.87890  Biso   1.000  N
  C40      1.0000 0.90340  0.96720  0.85050  Biso   1.000  C
  N161     1.0000 0.06200  0.77060  0.89560  Biso   1.000  N
  N162     1.0000 0.07930  0.82620  0.94610  Biso   1.000  N
  N163     1.0000 0.98920  0.78540  0.86700  Biso   1.000  N
  N164     1.0000 0.02090  0.87890  0.95040  Biso   1.000  N
  C41      1.0000 0.96720  0.85050  0.90340  Biso   1.000  C
  N165     1.0000 0.43800  0.77060  0.60440  Biso   1.000  N
  N166     1.0000 0.42070  0.82620  0.55390  Biso   1.000  N
  N167     1.0000 0.51080  0.78540  0.63300  Biso   1.000  N
  N168     1.0000 0.47910  0.87890  0.54960  Biso   1.000  N
  C42      1.0000 0.53280  0.85050  0.59660  Biso   1.000  C
  N169     1.0000 0.43800  0.72940  0.89560  Biso   1.000  N
  N170     1.0000 0.42070  0.67380  0.94610  Biso   1.000  N
  N171     1.0000 0.51080  0.71460  0.86700  Biso   1.000  N
  N172     1.0000 0.47910  0.62110  0.95040  Biso   1.000  N
  C43      1.0000 0.53280  0.64950  0.90340  Biso   1.000  C
  N173     1.0000 0.06200  0.72940  0.60440  Biso   1.000  N
  N174     1.0000 0.07930  0.67380  0.55390  Biso   1.000  N
  N175     1.0000 0.98920  0.71460  0.63300  Biso   1.000  N
  N176     1.0000 0.02090  0.62110  0.54960  Biso   1.000  N
  C44      1.0000 0.96720  0.64950  0.59660  Biso   1.000  C
  N177     1.0000 0.77060  0.60440  0.43800  Biso   1.000  N
  N178     1.0000 0.82620  0.55390  0.42070  Biso   1.000  N
  N179     1.0000 0.78540  0.63300  0.51080  Biso   1.000  N
  N180     1.0000 0.87890  0.54960  0.47910  Biso   1.000  N
  C45      1.0000 0.85050  0.59660  0.53280  Biso   1.000  C
  N181     1.0000 0.77060  0.89560  0.06200  Biso   1.000  N
  N182     1.0000 0.82620  0.94610  0.07930  Biso   1.000  N
  N183     1.0000 0.78540  0.86700  0.98920  Biso   1.000  N
  N184     1.0000 0.87890  0.95040  0.02090  Biso   1.000  N
  C46      1.0000 0.85050  0.90340  0.96720  Biso   1.000  C
  N185     1.0000 0.72940  0.60440  0.06200  Biso   1.000  N
  N186     1.0000 0.67380  0.55390  0.07930  Biso   1.000  N
  N187     1.0000 0.71460  0.63300  0.98920  Biso   1.000  N
  N188     1.0000 0.62110  0.54960  0.02090  Biso   1.000  N
  C47      1.0000 0.64950  0.59660  0.96720  Biso   1.000  C
  N189     1.0000 0.72940  0.89560  0.43800  Biso   1.000  N
  N190     1.0000 0.67380  0.94610  0.42070  Biso   1.000  N
  N191     1.0000 0.71460  0.86700  0.51080  Biso   1.000  N
  N192     1.0000 0.62110  0.95040  0.47910  Biso   1.000  N
  C48      1.0000 0.64950  0.90340  0.53280  Biso   1.000  C
  Gd1      1.0000 0.09161  0.25000  0.25000  Biso   1.000  Gd
  Gd2      1.0000 0.40839  0.25000  0.25000  Biso   1.000  Gd
  Gd3      1.0000 0.25000  0.09161  0.25000  Biso   1.000  Gd
  Gd4      1.0000 0.25000  0.40839  0.25000  Biso   1.000  Gd
  Gd5      1.0000 0.25000  0.25000  0.09161  Biso   1.000  Gd
  Gd6      1.0000 0.25000  0.25000  0.40839  Biso   1.000  Gd
  Gd7      1.0000 0.90839  0.75000  0.75000  Biso   1.000  Gd
  Gd8      1.0000 0.59161  0.75000  0.75000  Biso   1.000  Gd
  Gd9      1.0000 0.75000  0.90839  0.75000  Biso   1.000  Gd
  Gd10     1.0000 0.75000  0.59161  0.75000  Biso   1.000  Gd
  Gd11     1.0000 0.75000  0.75000  0.90839  Biso   1.000  Gd
  Gd12     1.0000 0.75000  0.75000  0.59161  Biso   1.000  Gd
  C49      1.0000 0.11060  0.38940  0.11060  Biso   1.000  C
  O1       1.0000 0.15760  0.34240  0.15760  Biso   1.000  O
  C50      1.0000 0.38940  0.11060  0.11060  Biso   1.000  C
  O2       1.0000 0.34240  0.15760  0.15760  Biso   1.000  O
  C51      1.0000 0.38940  0.38940  0.38940  Biso   1.000  C
  O3       1.0000 0.34240  0.34240  0.34240  Biso   1.000  O
  C52      1.0000 0.11060  0.11060  0.38940  Biso   1.000  C
  O4       1.0000 0.15760  0.15760  0.34240  Biso   1.000  O
  C53      1.0000 0.38940  0.11060  0.38940  Biso   1.000  C
  O5       1.0000 0.34240  0.15760  0.34240  Biso   1.000  O
  C54      1.0000 0.11060  0.38940  0.38940  Biso   1.000  C
  O6       1.0000 0.15760  0.34240  0.34240  Biso   1.000  O
  C55      1.0000 0.38940  0.38940  0.11060  Biso   1.000  C
  O7       1.0000 0.34240  0.34240  0.15760  Biso   1.000  O
  C56      1.0000 0.11060  0.11060  0.11060  Biso   1.000  C
  O8       1.0000 0.15760  0.15760  0.15760  Biso   1.000  O
  C57      1.0000 0.88940  0.61060  0.88940  Biso   1.000  C
  O9       1.0000 0.84240  0.65760  0.84240  Biso   1.000  O
  C58      1.0000 0.61060  0.88940  0.88940  Biso   1.000  C
  O10      1.0000 0.65760  0.84240  0.84240  Biso   1.000  O
  C59      1.0000 0.61060  0.61060  0.61060  Biso   1.000  C
  O11      1.0000 0.65760  0.65760  0.65760  Biso   1.000  O
  C60      1.0000 0.88940  0.88940  0.61060  Biso   1.000  C
  O12      1.0000 0.84240  0.84240  0.65760  Biso   1.000  O
  C61      1.0000 0.61060  0.88940  0.61060  Biso   1.000  C
  O13      1.0000 0.65760  0.84240  0.65760  Biso   1.000  O
  C62      1.0000 0.88940  0.61060  0.61060  Biso   1.000  C
  O14      1.0000 0.84240  0.65760  0.65760  Biso   1.000  O
  C63      1.0000 0.61060  0.61060  0.88940  Biso   1.000  C
  O15      1.0000 0.65760  0.65760  0.84240  Biso   1.000  O
  C64      1.0000 0.88940  0.88940  0.88940  Biso   1.000  C
  O16      1.0000 0.84240  0.84240  0.84240  Biso   1.000  O
  Mn1      1.0000 0.00000  0.50000  0.00000  Biso   1.000  Mn
  Mn2      1.0000 0.50000  0.00000  0.00000  Biso   1.000  Mn
  Mn3      1.0000 0.50000  0.50000  0.50000  Biso   1.000  Mn
  Mn4      1.0000 0.00000  0.00000  0.50000  Biso   1.000  Mn
  Mn5      1.0000 0.50000  0.00000  0.50000  Biso   1.000  Mn
  Mn6      1.0000 0.00000  0.50000  0.50000  Biso   1.000  Mn
  Mn7      1.0000 0.50000  0.50000  0.00000  Biso   1.000  Mn
  Mn8      1.0000 0.00000  0.00000  0.00000  Biso   1.000  Mn
