data_image0
_cell_length_a       22.425
_cell_length_b       22.425
_cell_length_c       22.425
_cell_angle_alpha    90
_cell_angle_beta     90
_cell_angle_gamma    90

_symmetry_space_group_name_H-M    "P 1"
_symmetry_int_tables_number       1

loop_
  _symmetry_equiv_pos_as_xyz
  'x, y, z'

loop_
  _atom_site_label
  _atom_site_occupancy
  _atom_site_fract_x
  _atom_site_fract_y
  _atom_site_fract_z
  _atom_site_thermal_displace_type
  _atom_site_B_iso_or_equiv
  _atom_site_type_symbol
  Br1      1.0000 0.66427  0.42066  0.12080  Biso   1.000  Br
  C1       1.0000 0.71200  0.41730  0.05220  Biso   1.000  C
  C2       1.0000 0.68500  0.41600  0.99710  Biso   1.000  C
  C3       1.0000 0.77400  0.41520  0.05980  Biso   1.000  C
  O1       1.0000 0.62980  0.41560  0.98760  Biso   1.000  O
  O2       1.0000 0.80240  0.41120  0.10830  Biso   1.000  O
  Br2      1.0000 0.16427  0.92066  0.62080  Biso   1.000  Br
  C4       1.0000 0.21200  0.91730  0.55220  Biso   1.000  C
  C5       1.0000 0.18500  0.91600  0.49710  Biso   1.000  C
  C6       1.0000 0.27400  0.91520  0.55980  Biso   1.000  C
  O3       1.0000 0.12980  0.91560  0.48760  Biso   1.000  O
  O4       1.0000 0.30240  0.91120  0.60830  Biso   1.000  O
  Br3      1.0000 0.83573  0.57934  0.62080  Biso   1.000  Br
  C7       1.0000 0.78800  0.58270  0.55220  Biso   1.000  C
  C8       1.0000 0.81500  0.58400  0.49710  Biso   1.000  C
  C9       1.0000 0.72600  0.58480  0.55980  Biso   1.000  C
  O5       1.0000 0.87020  0.58440  0.48760  Biso   1.000  O
  O6       1.0000 0.69760  0.58880  0.60830  Biso   1.000  O
  Br4      1.0000 0.33573  0.07934  0.12080  Biso   1.000  Br
  C10      1.0000 0.28800  0.08270  0.05220  Biso   1.000  C
  C11      1.0000 0.31500  0.08400  0.99710  Biso   1.000  C
  C12      1.0000 0.22600  0.08480  0.05980  Biso   1.000  C
  O7       1.0000 0.37020  0.08440  0.98760  Biso   1.000  O
  O8       1.0000 0.19760  0.08880  0.10830  Biso   1.000  O
  Br5      1.0000 0.33573  0.92066  0.37920  Biso   1.000  Br
  C13      1.0000 0.28800  0.91730  0.44780  Biso   1.000  C
  C14      1.0000 0.31500  0.91600  0.50290  Biso   1.000  C
  C15      1.0000 0.22600  0.91520  0.44020  Biso   1.000  C
  O9       1.0000 0.37020  0.91560  0.51240  Biso   1.000  O
  O10      1.0000 0.19760  0.91120  0.39170  Biso   1.000  O
  Br6      1.0000 0.83573  0.42066  0.87920  Biso   1.000  Br
  C16      1.0000 0.78800  0.41730  0.94780  Biso   1.000  C
  C17      1.0000 0.81500  0.41600  0.00290  Biso   1.000  C
  C18      1.0000 0.72600  0.41520  0.94020  Biso   1.000  C
  O11      1.0000 0.87020  0.41560  0.01240  Biso   1.000  O
  O12      1.0000 0.69760  0.41120  0.89170  Biso   1.000  O
  Br7      1.0000 0.16427  0.07934  0.87920  Biso   1.000  Br
  C19      1.0000 0.21200  0.08270  0.94780  Biso   1.000  C
  C20      1.0000 0.18500  0.08400  0.00290  Biso   1.000  C
  C21      1.0000 0.27400  0.08480  0.94020  Biso   1.000  C
  O13      1.0000 0.12980  0.08440  0.01240  Biso   1.000  O
  O14      1.0000 0.30240  0.08880  0.89170  Biso   1.000  O
  Br8      1.0000 0.66427  0.57934  0.37920  Biso   1.000  Br
  C22      1.0000 0.71200  0.58270  0.44780  Biso   1.000  C
  C23      1.0000 0.68500  0.58400  0.50290  Biso   1.000  C
  C24      1.0000 0.77400  0.58480  0.44020  Biso   1.000  C
  O15      1.0000 0.62980  0.58440  0.51240  Biso   1.000  O
  O16      1.0000 0.80240  0.58880  0.39170  Biso   1.000  O
  Br9      1.0000 0.12080  0.66427  0.42066  Biso   1.000  Br
  C25      1.0000 0.05220  0.71200  0.41730  Biso   1.000  C
  C26      1.0000 0.99710  0.68500  0.41600  Biso   1.000  C
  C27      1.0000 0.05980  0.77400  0.41520  Biso   1.000  C
  O17      1.0000 0.98760  0.62980  0.41560  Biso   1.000  O
  O18      1.0000 0.10830  0.80240  0.41120  Biso   1.000  O
  Br10     1.0000 0.62080  0.16427  0.92066  Biso   1.000  Br
  C28      1.0000 0.55220  0.21200  0.91730  Biso   1.000  C
  C29      1.0000 0.49710  0.18500  0.91600  Biso   1.000  C
  C30      1.0000 0.55980  0.27400  0.91520  Biso   1.000  C
  O19      1.0000 0.48760  0.12980  0.91560  Biso   1.000  O
  O20      1.0000 0.60830  0.30240  0.91120  Biso   1.000  O
  Br11     1.0000 0.62080  0.83573  0.57934  Biso   1.000  Br
  C31      1.0000 0.55220  0.78800  0.58270  Biso   1.000  C
  C32      1.0000 0.49710  0.81500  0.58400  Biso   1.000  C
  C33      1.0000 0.55980  0.72600  0.58480  Biso   1.000  C
  O21      1.0000 0.48760  0.87020  0.58440  Biso   1.000  O
  O22      1.0000 0.60830  0.69760  0.58880  Biso   1.000  O
  Br12     1.0000 0.12080  0.33573  0.07934  Biso   1.000  Br
  C34      1.0000 0.05220  0.28800  0.08270  Biso   1.000  C
  C35      1.0000 0.99710  0.31500  0.08400  Biso   1.000  C
  C36      1.0000 0.05980  0.22600  0.08480  Biso   1.000  C
  O23      1.0000 0.98760  0.37020  0.08440  Biso   1.000  O
  O24      1.0000 0.10830  0.19760  0.08880  Biso   1.000  O
  Br13     1.0000 0.37920  0.33573  0.92066  Biso   1.000  Br
  C37      1.0000 0.44780  0.28800  0.91730  Biso   1.000  C
  C38      1.0000 0.50290  0.31500  0.91600  Biso   1.000  C
  C39      1.0000 0.44020  0.22600  0.91520  Biso   1.000  C
  O25      1.0000 0.51240  0.37020  0.91560  Biso   1.000  O
  O26      1.0000 0.39170  0.19760  0.91120  Biso   1.000  O
  Br14     1.0000 0.87920  0.83573  0.42066  Biso   1.000  Br
  C40      1.0000 0.94780  0.78800  0.41730  Biso   1.000  C
  C41      1.0000 0.00290  0.81500  0.41600  Biso   1.000  C
  C42      1.0000 0.94020  0.72600  0.41520  Biso   1.000  C
  O27      1.0000 0.01240  0.87020  0.41560  Biso   1.000  O
  O28      1.0000 0.89170  0.69760  0.41120  Biso   1.000  O
  Br15     1.0000 0.87920  0.16427  0.07934  Biso   1.000  Br
  C43      1.0000 0.94780  0.21200  0.08270  Biso   1.000  C
  C44      1.0000 0.00290  0.18500  0.08400  Biso   1.000  C
  C45      1.0000 0.94020  0.27400  0.08480  Biso   1.000  C
  O29      1.0000 0.01240  0.12980  0.08440  Biso   1.000  O
  O30      1.0000 0.89170  0.30240  0.08880  Biso   1.000  O
  Br16     1.0000 0.37920  0.66427  0.57934  Biso   1.000  Br
  C46      1.0000 0.44780  0.71200  0.58270  Biso   1.000  C
  C47      1.0000 0.50290  0.68500  0.58400  Biso   1.000  C
  C48      1.0000 0.44020  0.77400  0.58480  Biso   1.000  C
  O31      1.0000 0.51240  0.62980  0.58440  Biso   1.000  O
  O32      1.0000 0.39170  0.80240  0.58880  Biso   1.000  O
  Br17     1.0000 0.42066  0.12080  0.66427  Biso   1.000  Br
  C49      1.0000 0.41730  0.05220  0.71200  Biso   1.000  C
  C50      1.0000 0.41600  0.99710  0.68500  Biso   1.000  C
  C51      1.0000 0.41520  0.05980  0.77400  Biso   1.000  C
  O33      1.0000 0.41560  0.98760  0.62980  Biso   1.000  O
  O34      1.0000 0.41120  0.10830  0.80240  Biso   1.000  O
  Br18     1.0000 0.92066  0.62080  0.16427  Biso   1.000  Br
  C52      1.0000 0.91730  0.55220  0.21200  Biso   1.000  C
  C53      1.0000 0.91600  0.49710  0.18500  Biso   1.000  C
  C54      1.0000 0.91520  0.55980  0.27400  Biso   1.000  C
  O35      1.0000 0.91560  0.48760  0.12980  Biso   1.000  O
  O36      1.0000 0.91120  0.60830  0.30240  Biso   1.000  O
  Br19     1.0000 0.57934  0.62080  0.83573  Biso   1.000  Br
  C55      1.0000 0.58270  0.55220  0.78800  Biso   1.000  C
  C56      1.0000 0.58400  0.49710  0.81500  Biso   1.000  C
  C57      1.0000 0.58480  0.55980  0.72600  Biso   1.000  C
  O37      1.0000 0.58440  0.48760  0.87020  Biso   1.000  O
  O38      1.0000 0.58880  0.60830  0.69760  Biso   1.000  O
  Br20     1.0000 0.07934  0.12080  0.33573  Biso   1.000  Br
  C58      1.0000 0.08270  0.05220  0.28800  Biso   1.000  C
  C59      1.0000 0.08400  0.99710  0.31500  Biso   1.000  C
  C60      1.0000 0.08480  0.05980  0.22600  Biso   1.000  C
  O39      1.0000 0.08440  0.98760  0.37020  Biso   1.000  O
  O40      1.0000 0.08880  0.10830  0.19760  Biso   1.000  O
  Br21     1.0000 0.92066  0.37920  0.33573  Biso   1.000  Br
  C61      1.0000 0.91730  0.44780  0.28800  Biso   1.000  C
  C62      1.0000 0.91600  0.50290  0.31500  Biso   1.000  C
  C63      1.0000 0.91520  0.44020  0.22600  Biso   1.000  C
  O41      1.0000 0.91560  0.51240  0.37020  Biso   1.000  O
  O42      1.0000 0.91120  0.39170  0.19760  Biso   1.000  O
  Br22     1.0000 0.42066  0.87920  0.83573  Biso   1.000  Br
  C64      1.0000 0.41730  0.94780  0.78800  Biso   1.000  C
  C65      1.0000 0.41600  0.00290  0.81500  Biso   1.000  C
  C66      1.0000 0.41520  0.94020  0.72600  Biso   1.000  C
  O43      1.0000 0.41560  0.01240  0.87020  Biso   1.000  O
  O44      1.0000 0.41120  0.89170  0.69760  Biso   1.000  O
  Br23     1.0000 0.07934  0.87920  0.16427  Biso   1.000  Br
  C67      1.0000 0.08270  0.94780  0.21200  Biso   1.000  C
  C68      1.0000 0.08400  0.00290  0.18500  Biso   1.000  C
  C69      1.0000 0.08480  0.94020  0.27400  Biso   1.000  C
  O45      1.0000 0.08440  0.01240  0.12980  Biso   1.000  O
  O46      1.0000 0.08880  0.89170  0.30240  Biso   1.000  O
  Br24     1.0000 0.57934  0.37920  0.66427  Biso   1.000  Br
  C70      1.0000 0.58270  0.44780  0.71200  Biso   1.000  C
  C71      1.0000 0.58400  0.50290  0.68500  Biso   1.000  C
  C72      1.0000 0.58480  0.44020  0.77400  Biso   1.000  C
  O47      1.0000 0.58440  0.51240  0.62980  Biso   1.000  O
  O48      1.0000 0.58880  0.39170  0.80240  Biso   1.000  O
  Na1      1.0000 0.60353  0.39647  0.89647  Biso   1.000  Na
  Na2      1.0000 0.10353  0.89647  0.39647  Biso   1.000  Na
  Na3      1.0000 0.89647  0.60353  0.39647  Biso   1.000  Na
  Na4      1.0000 0.39647  0.10353  0.89647  Biso   1.000  Na
  Na5      1.0000 0.39647  0.89647  0.60353  Biso   1.000  Na
  Na6      1.0000 0.89647  0.39647  0.10353  Biso   1.000  Na
  Na7      1.0000 0.10353  0.10353  0.10353  Biso   1.000  Na
  Na8      1.0000 0.60353  0.60353  0.60353  Biso   1.000  Na
  Br25     1.0000 0.67066  0.91427  0.37080  Biso   1.000  Br
  C73      1.0000 0.66730  0.96200  0.30220  Biso   1.000  C
  C74      1.0000 0.66600  0.93500  0.24710  Biso   1.000  C
  C75      1.0000 0.66520  0.02400  0.30980  Biso   1.000  C
  O49      1.0000 0.66560  0.87980  0.23760  Biso   1.000  O
  O50      1.0000 0.66120  0.05240  0.35830  Biso   1.000  O
  Br26     1.0000 0.17066  0.41427  0.87080  Biso   1.000  Br
  C76      1.0000 0.16730  0.46200  0.80220  Biso   1.000  C
  C77      1.0000 0.16600  0.43500  0.74710  Biso   1.000  C
  C78      1.0000 0.16520  0.52400  0.80980  Biso   1.000  C
  O51      1.0000 0.16560  0.37980  0.73760  Biso   1.000  O
  O52      1.0000 0.16120  0.55240  0.85830  Biso   1.000  O
  Br27     1.0000 0.82934  0.08573  0.87080  Biso   1.000  Br
  C79      1.0000 0.83270  0.03800  0.80220  Biso   1.000  C
  C80      1.0000 0.83400  0.06500  0.74710  Biso   1.000  C
  C81      1.0000 0.83480  0.97600  0.80980  Biso   1.000  C
  O53      1.0000 0.83440  0.12020  0.73760  Biso   1.000  O
  O54      1.0000 0.83880  0.94760  0.85830  Biso   1.000  O
  Br28     1.0000 0.32934  0.58573  0.37080  Biso   1.000  Br
  C82      1.0000 0.33270  0.53800  0.30220  Biso   1.000  C
  C83      1.0000 0.33400  0.56500  0.24710  Biso   1.000  C
  C84      1.0000 0.33480  0.47600  0.30980  Biso   1.000  C
  O55      1.0000 0.33440  0.62020  0.23760  Biso   1.000  O
  O56      1.0000 0.33880  0.44760  0.35830  Biso   1.000  O
  Br29     1.0000 0.17066  0.58573  0.62920  Biso   1.000  Br
  C85      1.0000 0.16730  0.53800  0.69780  Biso   1.000  C
  C86      1.0000 0.16600  0.56500  0.75290  Biso   1.000  C
  C87      1.0000 0.16520  0.47600  0.69020  Biso   1.000  C
  O57      1.0000 0.16560  0.62020  0.76240  Biso   1.000  O
  O58      1.0000 0.16120  0.44760  0.64170  Biso   1.000  O
  Br30     1.0000 0.67066  0.08573  0.12920  Biso   1.000  Br
  C88      1.0000 0.66730  0.03800  0.19780  Biso   1.000  C
  C89      1.0000 0.66600  0.06500  0.25290  Biso   1.000  C
  C90      1.0000 0.66520  0.97600  0.19020  Biso   1.000  C
  O59      1.0000 0.66560  0.12020  0.26240  Biso   1.000  O
  O60      1.0000 0.66120  0.94760  0.14170  Biso   1.000  O
  Br31     1.0000 0.32934  0.41427  0.12920  Biso   1.000  Br
  C91      1.0000 0.33270  0.46200  0.19780  Biso   1.000  C
  C92      1.0000 0.33400  0.43500  0.25290  Biso   1.000  C
  C93      1.0000 0.33480  0.52400  0.19020  Biso   1.000  C
  O61      1.0000 0.33440  0.37980  0.26240  Biso   1.000  O
  O62      1.0000 0.33880  0.55240  0.14170  Biso   1.000  O
  Br32     1.0000 0.82934  0.91427  0.62920  Biso   1.000  Br
  C94      1.0000 0.83270  0.96200  0.69780  Biso   1.000  C
  C95      1.0000 0.83400  0.93500  0.75290  Biso   1.000  C
  C96      1.0000 0.83480  0.02400  0.69020  Biso   1.000  C
  O63      1.0000 0.83440  0.87980  0.76240  Biso   1.000  O
  O64      1.0000 0.83880  0.05240  0.64170  Biso   1.000  O
  Br33     1.0000 0.91427  0.37080  0.67066  Biso   1.000  Br
  C97      1.0000 0.96200  0.30220  0.66730  Biso   1.000  C
  C98      1.0000 0.93500  0.24710  0.66600  Biso   1.000  C
  C99      1.0000 0.02400  0.30980  0.66520  Biso   1.000  C
  O65      1.0000 0.87980  0.23760  0.66560  Biso   1.000  O
  O66      1.0000 0.05240  0.35830  0.66120  Biso   1.000  O
  Br34     1.0000 0.41427  0.87080  0.17066  Biso   1.000  Br
  C100     1.0000 0.46200  0.80220  0.16730  Biso   1.000  C
  C101     1.0000 0.43500  0.74710  0.16600  Biso   1.000  C
  C102     1.0000 0.52400  0.80980  0.16520  Biso   1.000  C
  O67      1.0000 0.37980  0.73760  0.16560  Biso   1.000  O
  O68      1.0000 0.55240  0.85830  0.16120  Biso   1.000  O
  Br35     1.0000 0.08573  0.87080  0.82934  Biso   1.000  Br
  C103     1.0000 0.03800  0.80220  0.83270  Biso   1.000  C
  C104     1.0000 0.06500  0.74710  0.83400  Biso   1.000  C
  C105     1.0000 0.97600  0.80980  0.83480  Biso   1.000  C
  O69      1.0000 0.12020  0.73760  0.83440  Biso   1.000  O
  O70      1.0000 0.94760  0.85830  0.83880  Biso   1.000  O
  Br36     1.0000 0.58573  0.37080  0.32934  Biso   1.000  Br
  C106     1.0000 0.53800  0.30220  0.33270  Biso   1.000  C
  C107     1.0000 0.56500  0.24710  0.33400  Biso   1.000  C
  C108     1.0000 0.47600  0.30980  0.33480  Biso   1.000  C
  O71      1.0000 0.62020  0.23760  0.33440  Biso   1.000  O
  O72      1.0000 0.44760  0.35830  0.33880  Biso   1.000  O
  Br37     1.0000 0.58573  0.62920  0.17066  Biso   1.000  Br
  C109     1.0000 0.53800  0.69780  0.16730  Biso   1.000  C
  C110     1.0000 0.56500  0.75290  0.16600  Biso   1.000  C
  C111     1.0000 0.47600  0.69020  0.16520  Biso   1.000  C
  O73      1.0000 0.62020  0.76240  0.16560  Biso   1.000  O
  O74      1.0000 0.44760  0.64170  0.16120  Biso   1.000  O
  Br38     1.0000 0.08573  0.12920  0.67066  Biso   1.000  Br
  C112     1.0000 0.03800  0.19780  0.66730  Biso   1.000  C
  C113     1.0000 0.06500  0.25290  0.66600  Biso   1.000  C
  C114     1.0000 0.97600  0.19020  0.66520  Biso   1.000  C
  O75      1.0000 0.12020  0.26240  0.66560  Biso   1.000  O
  O76      1.0000 0.94760  0.14170  0.66120  Biso   1.000  O
  Br39     1.0000 0.41427  0.12920  0.32934  Biso   1.000  Br
  C115     1.0000 0.46200  0.19780  0.33270  Biso   1.000  C
  C116     1.0000 0.43500  0.25290  0.33400  Biso   1.000  C
  C117     1.0000 0.52400  0.19020  0.33480  Biso   1.000  C
  O77      1.0000 0.37980  0.26240  0.33440  Biso   1.000  O
  O78      1.0000 0.55240  0.14170  0.33880  Biso   1.000  O
  Br40     1.0000 0.91427  0.62920  0.82934  Biso   1.000  Br
  C118     1.0000 0.96200  0.69780  0.83270  Biso   1.000  C
  C119     1.0000 0.93500  0.75290  0.83400  Biso   1.000  C
  C120     1.0000 0.02400  0.69020  0.83480  Biso   1.000  C
  O79      1.0000 0.87980  0.76240  0.83440  Biso   1.000  O
  O80      1.0000 0.05240  0.64170  0.83880  Biso   1.000  O
  Br41     1.0000 0.37080  0.67066  0.91427  Biso   1.000  Br
  C121     1.0000 0.30220  0.66730  0.96200  Biso   1.000  C
  C122     1.0000 0.24710  0.66600  0.93500  Biso   1.000  C
  C123     1.0000 0.30980  0.66520  0.02400  Biso   1.000  C
  O81      1.0000 0.23760  0.66560  0.87980  Biso   1.000  O
  O82      1.0000 0.35830  0.66120  0.05240  Biso   1.000  O
  Br42     1.0000 0.87080  0.17066  0.41427  Biso   1.000  Br
  C124     1.0000 0.80220  0.16730  0.46200  Biso   1.000  C
  C125     1.0000 0.74710  0.16600  0.43500  Biso   1.000  C
  C126     1.0000 0.80980  0.16520  0.52400  Biso   1.000  C
  O83      1.0000 0.73760  0.16560  0.37980  Biso   1.000  O
  O84      1.0000 0.85830  0.16120  0.55240  Biso   1.000  O
  Br43     1.0000 0.87080  0.82934  0.08573  Biso   1.000  Br
  C127     1.0000 0.80220  0.83270  0.03800  Biso   1.000  C
  C128     1.0000 0.74710  0.83400  0.06500  Biso   1.000  C
  C129     1.0000 0.80980  0.83480  0.97600  Biso   1.000  C
  O85      1.0000 0.73760  0.83440  0.12020  Biso   1.000  O
  O86      1.0000 0.85830  0.83880  0.94760  Biso   1.000  O
  Br44     1.0000 0.37080  0.32934  0.58573  Biso   1.000  Br
  C130     1.0000 0.30220  0.33270  0.53800  Biso   1.000  C
  C131     1.0000 0.24710  0.33400  0.56500  Biso   1.000  C
  C132     1.0000 0.30980  0.33480  0.47600  Biso   1.000  C
  O87      1.0000 0.23760  0.33440  0.62020  Biso   1.000  O
  O88      1.0000 0.35830  0.33880  0.44760  Biso   1.000  O
  Br45     1.0000 0.62920  0.17066  0.58573  Biso   1.000  Br
  C133     1.0000 0.69780  0.16730  0.53800  Biso   1.000  C
  C134     1.0000 0.75290  0.16600  0.56500  Biso   1.000  C
  C135     1.0000 0.69020  0.16520  0.47600  Biso   1.000  C
  O89      1.0000 0.76240  0.16560  0.62020  Biso   1.000  O
  O90      1.0000 0.64170  0.16120  0.44760  Biso   1.000  O
  Br46     1.0000 0.12920  0.67066  0.08573  Biso   1.000  Br
  C136     1.0000 0.19780  0.66730  0.03800  Biso   1.000  C
  C137     1.0000 0.25290  0.66600  0.06500  Biso   1.000  C
  C138     1.0000 0.19020  0.66520  0.97600  Biso   1.000  C
  O91      1.0000 0.26240  0.66560  0.12020  Biso   1.000  O
  O92      1.0000 0.14170  0.66120  0.94760  Biso   1.000  O
  Br47     1.0000 0.12920  0.32934  0.41427  Biso   1.000  Br
  C139     1.0000 0.19780  0.33270  0.46200  Biso   1.000  C
  C140     1.0000 0.25290  0.33400  0.43500  Biso   1.000  C
  C141     1.0000 0.19020  0.33480  0.52400  Biso   1.000  C
  O93      1.0000 0.26240  0.33440  0.37980  Biso   1.000  O
  O94      1.0000 0.14170  0.33880  0.55240  Biso   1.000  O
  Br48     1.0000 0.62920  0.82934  0.91427  Biso   1.000  Br
  C142     1.0000 0.69780  0.83270  0.96200  Biso   1.000  C
  C143     1.0000 0.75290  0.83400  0.93500  Biso   1.000  C
  C144     1.0000 0.69020  0.83480  0.02400  Biso   1.000  C
  O95      1.0000 0.76240  0.83440  0.87980  Biso   1.000  O
  O96      1.0000 0.64170  0.83880  0.05240  Biso   1.000  O
  Na9      1.0000 0.64647  0.85353  0.14647  Biso   1.000  Na
  Na10     1.0000 0.14647  0.35353  0.64647  Biso   1.000  Na
  Na11     1.0000 0.85353  0.14647  0.64647  Biso   1.000  Na
  Na12     1.0000 0.35353  0.64647  0.14647  Biso   1.000  Na
  Na13     1.0000 0.14647  0.64647  0.85353  Biso   1.000  Na
  Na14     1.0000 0.64647  0.14647  0.35353  Biso   1.000  Na
  Na15     1.0000 0.35353  0.35353  0.35353  Biso   1.000  Na
  Na16     1.0000 0.85353  0.85353  0.85353  Biso   1.000  Na
