data_image0
_cell_length_a       8.3028
_cell_length_b       9.463
_cell_length_c       20.6398
_cell_angle_alpha    90
_cell_angle_beta     90
_cell_angle_gamma    109.867

_symmetry_space_group_name_H-M    P 1
_symmetry_int_tables_number       1

loop_
  _symmetry_equiv_pos_as_xyz
  'x, y, z'

loop_
  _atom_site_label
  _atom_site_occupancy
  _atom_site_fract_x
  _atom_site_fract_y
  _atom_site_fract_z
  _atom_site_thermal_displace_type
  _atom_site_B_iso_or_equiv
  _atom_site_type_symbol
  La1      1.0000 0.37685  0.39893  0.64839  Biso   1.000  La
  La2      1.0000 0.62315  0.10107  0.14839  Biso   1.000  La
  La3      1.0000 0.62315  0.60107  0.35161  Biso   1.000  La
  La4      1.0000 0.37685  0.89893  0.85161  Biso   1.000  La
  Cu1      1.0000 0.03685  0.94895  0.70321  Biso   1.000  Cu
  Cu2      1.0000 0.96315  0.55105  0.20321  Biso   1.000  Cu
  Cu3      1.0000 0.96315  0.05105  0.29679  Biso   1.000  Cu
  Cu4      1.0000 0.03685  0.44895  0.79679  Biso   1.000  Cu
  P1       1.0000 0.20913  0.69441  0.69982  Biso   1.000  P
  P2       1.0000 0.79087  0.80559  0.19982  Biso   1.000  P
  P3       1.0000 0.79087  0.30559  0.30018  Biso   1.000  P
  P4       1.0000 0.20913  0.19441  0.80018  Biso   1.000  P
  H1       1.0000 0.77930  0.73920  0.59300  Biso   1.000  H
  H2       1.0000 0.86720  0.61420  0.60350  Biso   1.000  H
  H3       1.0000 0.10620  0.90110  0.53020  Biso   1.000  H
  H4       1.0000 0.94510  0.94430  0.55420  Biso   1.000  H
  H5       1.0000 0.14300  0.68040  0.59040  Biso   1.000  H
  H6       1.0000 0.27710  0.84250  0.60740  Biso   1.000  H
  H7       1.0000 0.98940  0.26000  0.63940  Biso   1.000  H
  H8       1.0000 0.99570  0.40580  0.64750  Biso   1.000  H
  H9       1.0000 0.51550  0.18530  0.72600  Biso   1.000  H
  H10      1.0000 0.65220  0.26630  0.68850  Biso   1.000  H
  H11      1.0000 0.22070  0.76080  0.09300  Biso   1.000  H
  H12      1.0000 0.13280  0.88580  0.10350  Biso   1.000  H
  H13      1.0000 0.89380  0.59890  0.03020  Biso   1.000  H
  H14      1.0000 0.05490  0.55570  0.05420  Biso   1.000  H
  H15      1.0000 0.85700  0.81960  0.09040  Biso   1.000  H
  H16      1.0000 0.72290  0.65750  0.10740  Biso   1.000  H
  H17      1.0000 0.01060  0.24000  0.13940  Biso   1.000  H
  H18      1.0000 0.00430  0.09420  0.14750  Biso   1.000  H
  H19      1.0000 0.48450  0.31470  0.22600  Biso   1.000  H
  H20      1.0000 0.34780  0.23370  0.18850  Biso   1.000  H
  H21      1.0000 0.22070  0.26080  0.40700  Biso   1.000  H
  H22      1.0000 0.13280  0.38580  0.39650  Biso   1.000  H
  H23      1.0000 0.89380  0.09890  0.46980  Biso   1.000  H
  H24      1.0000 0.05490  0.05570  0.44580  Biso   1.000  H
  H25      1.0000 0.85700  0.31960  0.40960  Biso   1.000  H
  H26      1.0000 0.72290  0.15750  0.39260  Biso   1.000  H
  H27      1.0000 0.01060  0.74000  0.36060  Biso   1.000  H
  H28      1.0000 0.00430  0.59420  0.35250  Biso   1.000  H
  H29      1.0000 0.48450  0.81470  0.27400  Biso   1.000  H
  H30      1.0000 0.34780  0.73370  0.31150  Biso   1.000  H
  H31      1.0000 0.77930  0.23920  0.90700  Biso   1.000  H
  H32      1.0000 0.86720  0.11420  0.89650  Biso   1.000  H
  H33      1.0000 0.10620  0.40110  0.96980  Biso   1.000  H
  H34      1.0000 0.94510  0.44430  0.94580  Biso   1.000  H
  H35      1.0000 0.14300  0.18040  0.90960  Biso   1.000  H
  H36      1.0000 0.27710  0.34250  0.89260  Biso   1.000  H
  H37      1.0000 0.98940  0.76000  0.86060  Biso   1.000  H
  H38      1.0000 0.99570  0.90580  0.85250  Biso   1.000  H
  H39      1.0000 0.51550  0.68530  0.77400  Biso   1.000  H
  H40      1.0000 0.65220  0.76630  0.81150  Biso   1.000  H
  C1       1.0000 0.78080  0.67750  0.68952  Biso   1.000  C
  C2       1.0000 0.85700  0.70780  0.62146  Biso   1.000  C
  C3       1.0000 0.05600  0.93630  0.56777  Biso   1.000  C
  C4       1.0000 0.17650  0.08930  0.59003  Biso   1.000  C
  C5       1.0000 0.17060  0.76370  0.62177  Biso   1.000  C
  C6       1.0000 0.56920  0.46190  0.50243  Biso   1.000  C
  C7       1.0000 0.21920  0.82250  0.18952  Biso   1.000  C
  C8       1.0000 0.14300  0.79220  0.12146  Biso   1.000  C
  C9       1.0000 0.94400  0.56370  0.06777  Biso   1.000  C
  C10      1.0000 0.82350  0.41070  0.09003  Biso   1.000  C
  C11      1.0000 0.82940  0.73630  0.12177  Biso   1.000  C
  C12      1.0000 0.43080  0.03810  0.00243  Biso   1.000  C
  C13      1.0000 0.21920  0.32250  0.31048  Biso   1.000  C
  C14      1.0000 0.14300  0.29220  0.37854  Biso   1.000  C
  C15      1.0000 0.94400  0.06370  0.43223  Biso   1.000  C
  C16      1.0000 0.82350  0.91070  0.40997  Biso   1.000  C
  C17      1.0000 0.82940  0.23630  0.37823  Biso   1.000  C
  C18      1.0000 0.43080  0.53810  0.49757  Biso   1.000  C
  C19      1.0000 0.78080  0.17750  0.81048  Biso   1.000  C
  C20      1.0000 0.85700  0.20780  0.87854  Biso   1.000  C
  C21      1.0000 0.05600  0.43630  0.93223  Biso   1.000  C
  C22      1.0000 0.17650  0.58930  0.90997  Biso   1.000  C
  C23      1.0000 0.17060  0.26370  0.87823  Biso   1.000  C
  C24      1.0000 0.56920  0.96190  0.99757  Biso   1.000  C
  N1       1.0000 0.02870  0.82730  0.62213  Biso   1.000  N
  N2       1.0000 0.97130  0.67270  0.12213  Biso   1.000  N
  N3       1.0000 0.97130  0.17270  0.37787  Biso   1.000  N
  N4       1.0000 0.02870  0.32730  0.87787  Biso   1.000  N
  O1       1.0000 0.84250  0.77830  0.73291  Biso   1.000  O
  O2       1.0000 0.65840  0.55890  0.69929  Biso   1.000  O
  O3       1.0000 0.19930  0.10880  0.65176  Biso   1.000  O
  O4       1.0000 0.24480  0.19080  0.55110  Biso   1.000  O
  O5       1.0000 0.35670  0.63630  0.69051  Biso   1.000  O
  O6       1.0000 0.04350  0.56490  0.71906  Biso   1.000  O
  O7       1.0000 0.24840  0.83030  0.74420  Biso   1.000  O
  O8       1.0000 0.04840  0.35110  0.63147  Biso   1.000  O
  O9       1.0000 0.54360  0.23570  0.69119  Biso   1.000  O
  O10      1.0000 0.59130  0.41230  0.55738  Biso   1.000  O
  O11      1.0000 0.64990  0.45670  0.45198  Biso   1.000  O
  O12      1.0000 0.15750  0.72170  0.23291  Biso   1.000  O
  O13      1.0000 0.34160  0.94110  0.19929  Biso   1.000  O
  O14      1.0000 0.80070  0.39120  0.15176  Biso   1.000  O
  O15      1.0000 0.75520  0.30920  0.05110  Biso   1.000  O
  O16      1.0000 0.64330  0.86370  0.19051  Biso   1.000  O
  O17      1.0000 0.95650  0.93510  0.21906  Biso   1.000  O
  O18      1.0000 0.75160  0.66970  0.24420  Biso   1.000  O
  O19      1.0000 0.95160  0.14890  0.13147  Biso   1.000  O
  O20      1.0000 0.45640  0.26430  0.19119  Biso   1.000  O
  O21      1.0000 0.40870  0.08770  0.05738  Biso   1.000  O
  O22      1.0000 0.35010  0.04330  0.95198  Biso   1.000  O
  O23      1.0000 0.15750  0.22170  0.26709  Biso   1.000  O
  O24      1.0000 0.34160  0.44110  0.30071  Biso   1.000  O
  O25      1.0000 0.80070  0.89120  0.34824  Biso   1.000  O
  O26      1.0000 0.75520  0.80920  0.44890  Biso   1.000  O
  O27      1.0000 0.64330  0.36370  0.30949  Biso   1.000  O
  O28      1.0000 0.95650  0.43510  0.28094  Biso   1.000  O
  O29      1.0000 0.75160  0.16970  0.25580  Biso   1.000  O
  O30      1.0000 0.95160  0.64890  0.36853  Biso   1.000  O
  O31      1.0000 0.45640  0.76430  0.30881  Biso   1.000  O
  O32      1.0000 0.40870  0.58770  0.44262  Biso   1.000  O
  O33      1.0000 0.35010  0.54330  0.54802  Biso   1.000  O
  O34      1.0000 0.84250  0.27830  0.76709  Biso   1.000  O
  O35      1.0000 0.65840  0.05890  0.80071  Biso   1.000  O
  O36      1.0000 0.19930  0.60880  0.84824  Biso   1.000  O
  O37      1.0000 0.24480  0.69080  0.94890  Biso   1.000  O
  O38      1.0000 0.35670  0.13630  0.80949  Biso   1.000  O
  O39      1.0000 0.04350  0.06490  0.78094  Biso   1.000  O
  O40      1.0000 0.24840  0.33030  0.75580  Biso   1.000  O
  O41      1.0000 0.04840  0.85110  0.86853  Biso   1.000  O
  O42      1.0000 0.54360  0.73570  0.80881  Biso   1.000  O
  O43      1.0000 0.59130  0.91230  0.94262  Biso   1.000  O
  O44      1.0000 0.64990  0.95670  0.04802  Biso   1.000  O
