data_QULKIS_charged
_audit_creation_date              2014-07-02
_audit_creation_method            'Materials Studio'
_symmetry_space_group_name_H-M    'P1'
_symmetry_Int_Tables_number       1
_symmetry_cell_setting            triclinic
loop_
_symmetry_equiv_pos_as_xyz
  x,y,z
_cell_length_a                    13.3350
_cell_length_b                    13.3350
_cell_length_c                    18.4109
_cell_angle_alpha                 68.7677
_cell_angle_beta                  68.7677
_cell_angle_gamma                 89.9999
loop_
_atom_site_label
_atom_site_type_symbol
_atom_site_fract_x
_atom_site_fract_y
_atom_site_fract_z
_atom_site_U_iso_or_equiv
_atom_site_adp_type
_atom_site_occupancy
Cu1    Cu    0.54556   0.54555   0.90889   0.01267  Uiso   1.00
Cu2    Cu    0.45445   0.45444   0.09111   0.01267  Uiso   1.00
Cu3    Cu    0.20444   0.70445   0.59111   0.01267  Uiso   1.00
Cu4    Cu    0.29555   0.79555   0.40890   0.01267  Uiso   1.00
H1     H     0.62380   0.88770   0.85940   0.01267  Uiso   1.00
H2     H     0.67670   0.05400   0.85980   0.01267  Uiso   1.00
H3     H     0.68850   0.89700   0.08780   0.01267  Uiso   1.00
H4     H     0.62090   0.73460   0.09180   0.01267  Uiso   1.00
H5     H     0.81150   0.10620   0.94860   0.01267  Uiso   1.00
H6     H     0.71370   0.15790   0.92940   0.01267  Uiso   1.00
H7     H     0.54860   0.14480   0.04800   0.01267  Uiso   1.00
H8     H     0.47700   0.16000   0.17740   0.01267  Uiso   1.00
H9     H     0.75200   0.07560   0.21040   0.01267  Uiso   1.00
H10    H     0.81920   0.06960   0.07800   0.01267  Uiso   1.00
H11    H     0.51680   0.25290   0.85940   0.01267  Uiso   1.00
H12    H     0.46350   0.08620   0.85980   0.01267  Uiso   1.00
H13    H     0.22370   0.01520   0.08780   0.01267  Uiso   1.00
H14    H     0.28730   0.17360   0.09180   0.01267  Uiso   1.00
H15    H     0.23990   0.94520   0.94860   0.01267  Uiso   1.00
H16    H     0.35690   0.91270   0.92940   0.01267  Uiso   1.00
H17    H     0.40340   0.80720   0.04800   0.01267  Uiso   1.00
H18    H     0.34560   0.66260   0.17740   0.01267  Uiso   1.00
H19    H     0.03760   0.71400   0.21040   0.01267  Uiso   1.00
H20    H     0.10280   0.85240   0.07800   0.01267  Uiso   1.00
H21    H     0.11230   0.48320   0.14060   0.01267  Uiso   1.00
H22    H     0.94600   0.53650   0.14020   0.01267  Uiso   1.00
H23    H     0.10300   0.77630   0.91220   0.01267  Uiso   1.00
H24    H     0.26540   0.71270   0.90820   0.01267  Uiso   1.00
H25    H     0.89380   0.76010   0.05140   0.01267  Uiso   1.00
H26    H     0.84210   0.64310   0.07060   0.01267  Uiso   1.00
H27    H     0.85520   0.59660   0.95200   0.01267  Uiso   1.00
H28    H     0.84000   0.65440   0.82260   0.01267  Uiso   1.00
H29    H     0.92440   0.96240   0.78960   0.01267  Uiso   1.00
H30    H     0.93040   0.89720   0.92200   0.01267  Uiso   1.00
H31    H     0.74710   0.37620   0.14060   0.01267  Uiso   1.00
H32    H     0.91380   0.32330   0.14020   0.01267  Uiso   1.00
H33    H     0.98480   0.31150   0.91220   0.01267  Uiso   1.00
H34    H     0.82640   0.37910   0.90820   0.01267  Uiso   1.00
H35    H     0.05480   0.18850   0.05140   0.01267  Uiso   1.00
H36    H     0.08730   0.28630   0.07060   0.01267  Uiso   1.00
H37    H     0.19280   0.45140   0.95200   0.01267  Uiso   1.00
H38    H     0.33740   0.52300   0.82260   0.01267  Uiso   1.00
H39    H     0.28600   0.24800   0.78960   0.01267  Uiso   1.00
H40    H     0.14760   0.18080   0.92200   0.01267  Uiso   1.00
H41    H     0.23320   0.36230   0.64060   0.01267  Uiso   1.00
H42    H     0.28650   0.19600   0.64020   0.01267  Uiso   1.00
H43    H     0.52630   0.35300   0.41220   0.01267  Uiso   1.00
H44    H     0.46270   0.51540   0.40820   0.01267  Uiso   1.00
H45    H     0.51010   0.14380   0.55140   0.01267  Uiso   1.00
H46    H     0.39310   0.09210   0.57060   0.01267  Uiso   1.00
H47    H     0.34660   0.10520   0.45200   0.01267  Uiso   1.00
H48    H     0.40440   0.09000   0.32260   0.01267  Uiso   1.00
H49    H     0.71240   0.17440   0.28960   0.01267  Uiso   1.00
H50    H     0.64720   0.18040   0.42200   0.01267  Uiso   1.00
H51    H     0.12620   0.99710   0.64060   0.01267  Uiso   1.00
H52    H     0.07330   0.16380   0.64020   0.01267  Uiso   1.00
H53    H     0.06150   0.23480   0.41220   0.01267  Uiso   1.00
H54    H     0.12910   0.07640   0.40820   0.01267  Uiso   1.00
H55    H     0.93850   0.30480   0.55140   0.01267  Uiso   1.00
H56    H     0.03630   0.33730   0.57060   0.01267  Uiso   1.00
H57    H     0.20140   0.44280   0.45200   0.01267  Uiso   1.00
H58    H     0.27300   0.58740   0.32260   0.01267  Uiso   1.00
H59    H     0.99800   0.53600   0.28960   0.01267  Uiso   1.00
H60    H     0.93080   0.39760   0.42200   0.01267  Uiso   1.00
H61    H     0.00290   0.76680   0.35940   0.01267  Uiso   1.00
H62    H     0.83620   0.71350   0.35980   0.01267  Uiso   1.00
H63    H     0.76520   0.47370   0.58780   0.01267  Uiso   1.00
H64    H     0.92360   0.53730   0.59180   0.01267  Uiso   1.00
H65    H     0.69520   0.48990   0.44860   0.01267  Uiso   1.00
H66    H     0.66270   0.60690   0.42940   0.01267  Uiso   1.00
H67    H     0.55720   0.65340   0.54800   0.01267  Uiso   1.00
H68    H     0.41260   0.59560   0.67740   0.01267  Uiso   1.00
H69    H     0.46400   0.28760   0.71040   0.01267  Uiso   1.00
H70    H     0.60240   0.35280   0.57800   0.01267  Uiso   1.00
H71    H     0.63770   0.87380   0.35940   0.01267  Uiso   1.00
H72    H     0.80400   0.92670   0.35980   0.01267  Uiso   1.00
H73    H     0.64700   0.93850   0.58780   0.01267  Uiso   1.00
H74    H     0.48460   0.87090   0.59180   0.01267  Uiso   1.00
H75    H     0.85620   0.06150   0.44860   0.01267  Uiso   1.00
H76    H     0.90790   0.96370   0.42940   0.01267  Uiso   1.00
H77    H     0.89480   0.79860   0.54800   0.01267  Uiso   1.00
H78    H     0.91000   0.72700   0.67740   0.01267  Uiso   1.00
H79    H     0.82560   0.00200   0.71040   0.01267  Uiso   1.00
H80    H     0.81960   0.06920   0.57800   0.01267  Uiso   1.00
C1     C     0.57478   0.68778   0.97904   0.01267  Uiso   1.00
C2     C     0.61564   0.79384   0.97592   0.01267  Uiso   1.00
C3     C     0.63414   0.88974   0.90612   0.01267  Uiso   1.00
C4     C     0.66824   0.98974   0.90552   0.01267  Uiso   1.00
C5     C     0.68904   0.99244   0.97292   0.01267  Uiso   1.00
C6     C     0.67317   0.89577   0.04266   0.01267  Uiso   1.00
C7     C     0.63450   0.79820   0.04420   0.01267  Uiso   1.00
C8     C     0.73282   0.09862   0.96916   0.01267  Uiso   1.00
C9     C     0.58950   0.13240   0.08120   0.01267  Uiso   1.00
C10    C     0.54590   0.14060   0.15880   0.01267  Uiso   1.00
C11    C     0.60650   0.11950   0.20860   0.01267  Uiso   1.00
C12    C     0.71016   0.09126   0.17788   0.01267  Uiso   1.00
C13    C     0.74972   0.08682   0.09916   0.01267  Uiso   1.00
C14    C     0.44618   0.33318   0.97904   0.01267  Uiso   1.00
C15    C     0.40844   0.23024   0.97592   0.01267  Uiso   1.00
C16    C     0.45974   0.20414   0.90612   0.01267  Uiso   1.00
C17    C     0.42624   0.10474   0.90552   0.01267  Uiso   1.00
C18    C     0.33804   0.03464   0.97292   0.01267  Uiso   1.00
C19    C     0.28417   0.06157   0.04266   0.01267  Uiso   1.00
C20    C     0.32130   0.15760   0.04420   0.01267  Uiso   1.00
C21    C     0.29802   0.93222   0.96916   0.01267  Uiso   1.00
C22    C     0.32930   0.78640   0.08120   0.01267  Uiso   1.00
C23    C     0.29530   0.70060   0.15880   0.01267  Uiso   1.00
C24    C     0.18490   0.67190   0.20860   0.01267  Uiso   1.00
C25    C     0.11196   0.73086   0.17788   0.01267  Uiso   1.00
C26    C     0.15112   0.81402   0.09916   0.01267  Uiso   1.00
C27    C     0.31222   0.55382   0.02096   0.01267  Uiso   1.00
C28    C     0.20616   0.59156   0.02408   0.01267  Uiso   1.00
C29    C     0.11026   0.54026   0.09388   0.01267  Uiso   1.00
C30    C     0.01026   0.57376   0.09448   0.01267  Uiso   1.00
C31    C     0.00756   0.66196   0.02708   0.01267  Uiso   1.00
C32    C     0.10423   0.71583   0.95734   0.01267  Uiso   1.00
C33    C     0.20180   0.67870   0.95580   0.01267  Uiso   1.00
C34    C     0.90138   0.70198   0.03084   0.01267  Uiso   1.00
C35    C     0.86760   0.67070   0.91880   0.01267  Uiso   1.00
C36    C     0.85940   0.70470   0.84120   0.01267  Uiso   1.00
C37    C     0.88050   0.81510   0.79140   0.01267  Uiso   1.00
C38    C     0.90874   0.88804   0.82212   0.01267  Uiso   1.00
C39    C     0.91318   0.84888   0.90084   0.01267  Uiso   1.00
C40    C     0.66682   0.42522   0.02096   0.01267  Uiso   1.00
C41    C     0.76976   0.38436   0.02408   0.01267  Uiso   1.00
C42    C     0.79586   0.36586   0.09388   0.01267  Uiso   1.00
C43    C     0.89526   0.33176   0.09448   0.01267  Uiso   1.00
C44    C     0.96536   0.31096   0.02708   0.01267  Uiso   1.00
C45    C     0.93843   0.32683   0.95734   0.01267  Uiso   1.00
C46    C     0.84240   0.36550   0.95580   0.01267  Uiso   1.00
C47    C     0.06778   0.26718   0.03084   0.01267  Uiso   1.00
C48    C     0.21360   0.41050   0.91880   0.01267  Uiso   1.00
C49    C     0.29940   0.45410   0.84120   0.01267  Uiso   1.00
C50    C     0.32810   0.39350   0.79140   0.01267  Uiso   1.00
C51    C     0.26914   0.28984   0.82212   0.01267  Uiso   1.00
C52    C     0.18598   0.25028   0.90084   0.01267  Uiso   1.00
C53    C     0.30382   0.56222   0.52096   0.01267  Uiso   1.00
C54    C     0.34156   0.45616   0.52408   0.01267  Uiso   1.00
C55    C     0.29026   0.36026   0.59388   0.01267  Uiso   1.00
C56    C     0.32376   0.26026   0.59448   0.01267  Uiso   1.00
C57    C     0.41196   0.25756   0.52708   0.01267  Uiso   1.00
C58    C     0.46583   0.35423   0.45734   0.01267  Uiso   1.00
C59    C     0.42870   0.45180   0.45580   0.01267  Uiso   1.00
C60    C     0.45198   0.15138   0.53084   0.01267  Uiso   1.00
C61    C     0.42070   0.11760   0.41880   0.01267  Uiso   1.00
C62    C     0.45470   0.10940   0.34120   0.01267  Uiso   1.00
C63    C     0.56510   0.13050   0.29140   0.01267  Uiso   1.00
C64    C     0.63804   0.15874   0.32212   0.01267  Uiso   1.00
C65    C     0.59888   0.16318   0.40084   0.01267  Uiso   1.00
C66    C     0.17522   0.91682   0.52096   0.01267  Uiso   1.00
C67    C     0.13436   0.01976   0.52408   0.01267  Uiso   1.00
C68    C     0.11586   0.04586   0.59388   0.01267  Uiso   1.00
C69    C     0.08176   0.14526   0.59448   0.01267  Uiso   1.00
C70    C     0.06096   0.21536   0.52708   0.01267  Uiso   1.00
C71    C     0.07683   0.18843   0.45734   0.01267  Uiso   1.00
C72    C     0.11550   0.09240   0.45580   0.01267  Uiso   1.00
C73    C     0.01718   0.31778   0.53084   0.01267  Uiso   1.00
C74    C     0.16050   0.46360   0.41880   0.01267  Uiso   1.00
C75    C     0.20410   0.54940   0.34120   0.01267  Uiso   1.00
C76    C     0.14350   0.57810   0.29140   0.01267  Uiso   1.00
C77    C     0.03984   0.51914   0.32212   0.01267  Uiso   1.00
C78    C     0.00028   0.43598   0.40084   0.01267  Uiso   1.00
C79    C     0.08318   0.69618   0.47904   0.01267  Uiso   1.00
C80    C     0.98024   0.65844   0.47592   0.01267  Uiso   1.00
C81    C     0.95414   0.70974   0.40612   0.01267  Uiso   1.00
C82    C     0.85474   0.67624   0.40552   0.01267  Uiso   1.00
C83    C     0.78464   0.58804   0.47292   0.01267  Uiso   1.00
C84    C     0.81157   0.53417   0.54266   0.01267  Uiso   1.00
C85    C     0.90760   0.57130   0.54420   0.01267  Uiso   1.00
C86    C     0.68222   0.54802   0.46916   0.01267  Uiso   1.00
C87    C     0.53640   0.57930   0.58120   0.01267  Uiso   1.00
C88    C     0.45060   0.54530   0.65880   0.01267  Uiso   1.00
C89    C     0.42190   0.43490   0.70860   0.01267  Uiso   1.00
C90    C     0.48086   0.36196   0.67788   0.01267  Uiso   1.00
C91    C     0.56402   0.40112   0.59916   0.01267  Uiso   1.00
C92    C     0.43778   0.82478   0.47904   0.01267  Uiso   1.00
C93    C     0.54384   0.86564   0.47592   0.01267  Uiso   1.00
C94    C     0.63974   0.88414   0.40612   0.01267  Uiso   1.00
C95    C     0.73974   0.91824   0.40552   0.01267  Uiso   1.00
C96    C     0.74244   0.93904   0.47292   0.01267  Uiso   1.00
C97    C     0.64577   0.92317   0.54266   0.01267  Uiso   1.00
C98    C     0.54820   0.88450   0.54420   0.01267  Uiso   1.00
C99    C     0.84862   0.98282   0.46916   0.01267  Uiso   1.00
C100   C     0.88240   0.83950   0.58120   0.01267  Uiso   1.00
C101   C     0.89060   0.79590   0.65880   0.01267  Uiso   1.00
C102   C     0.86950   0.85650   0.70860   0.01267  Uiso   1.00
C103   C     0.84126   0.96016   0.67788   0.01267  Uiso   1.00
C104   C     0.83682   0.99972   0.59916   0.01267  Uiso   1.00
N1     N     0.68957   0.10687   0.05286   0.01267  Uiso   1.00
N2     N     0.25757   0.84027   0.05286   0.01267  Uiso   1.00
N3     N     0.89313   0.74243   0.94714   0.01267  Uiso   1.00
N4     N     0.15973   0.31043   0.94714   0.01267  Uiso   1.00
N5     N     0.49243   0.14313   0.44714   0.01267  Uiso   1.00
N6     N     0.06043   0.40973   0.44714   0.01267  Uiso   1.00
N7     N     0.59027   0.50757   0.55286   0.01267  Uiso   1.00
N8     N     0.85687   0.93957   0.55286   0.01267  Uiso   1.00
N9     N     0.63457   0.63457   0.73086   0.01267  Uiso   1.00
N10    N     0.36543   0.36543   0.26914   0.01267  Uiso   1.00
N11    N     0.11543   0.61543   0.76914   0.01267  Uiso   1.00
N12    N     0.38457   0.88457   0.23086   0.01267  Uiso   1.00
O1     O     0.59358   0.68148   0.90864   0.01267  Uiso   1.00
O2     O     0.52450   0.61310   0.05120   0.01267  Uiso   1.00
O3     O     0.54680   0.63450   0.77440   0.01267  Uiso   1.00
O4     O     0.49778   0.40988   0.90864   0.01267  Uiso   1.00
O5     O     0.42430   0.33570   0.05120   0.01267  Uiso   1.00
O6     O     0.67880   0.59110   0.77440   0.01267  Uiso   1.00
O7     O     0.31852   0.50222   0.09136   0.01267  Uiso   1.00
O8     O     0.38690   0.57570   0.94880   0.01267  Uiso   1.00
O9     O     0.36550   0.32120   0.22560   0.01267  Uiso   1.00
O10    O     0.59012   0.40642   0.09136   0.01267  Uiso   1.00
O11    O     0.66430   0.47550   0.94880   0.01267  Uiso   1.00
O12    O     0.40890   0.45320   0.22560   0.01267  Uiso   1.00
O13    O     0.25222   0.56852   0.59136   0.01267  Uiso   1.00
O14    O     0.32570   0.63690   0.44880   0.01267  Uiso   1.00
O15    O     0.07120   0.61550   0.72560   0.01267  Uiso   1.00
O16    O     0.15642   0.84012   0.59136   0.01267  Uiso   1.00
O17    O     0.22550   0.91430   0.44880   0.01267  Uiso   1.00
O18    O     0.20320   0.65890   0.72560   0.01267  Uiso   1.00
O19    O     0.15988   0.74778   0.40864   0.01267  Uiso   1.00
O20    O     0.08570   0.67430   0.55120   0.01267  Uiso   1.00
O21    O     0.34110   0.92880   0.27440   0.01267  Uiso   1.00
O22    O     0.43148   0.84358   0.40864   0.01267  Uiso   1.00
O23    O     0.36310   0.77450   0.55120   0.01267  Uiso   1.00
O24    O     0.38450   0.79680   0.27440   0.01267  Uiso   1.00
O25    O     0.67237   0.67237   0.65526   0.01267  Uiso   1.00
O26    O     0.32763   0.32763   0.34474   0.01267  Uiso   1.00
O27    O     0.07763   0.57763   0.84474   0.01267  Uiso   1.00
O28    O     0.42237   0.92237   0.15526   0.01267  Uiso   1.00
Cl1    Cl    0.00000   0.00000   0.00000   0.01267  Uiso   1.00
Cl2    Cl    0.75000   0.25000   0.50000   0.01267  Uiso   1.00
