data_image0
_cell_length_a       9.6755
_cell_length_b       12.264
_cell_length_c       28.899
_cell_angle_alpha    90
_cell_angle_beta     90
_cell_angle_gamma    90

_symmetry_space_group_name_H-M    P 1
_symmetry_int_tables_number       1

loop_
  _symmetry_equiv_pos_as_xyz
  'x, y, z'

loop_
  _atom_site_label
  _atom_site_occupancy
  _atom_site_fract_x
  _atom_site_fract_y
  _atom_site_fract_z
  _atom_site_thermal_displace_type
  _atom_site_B_iso_or_equiv
  _atom_site_type_symbol
  Cd1      1.0000 0.50061  0.84551  0.02635  Biso   1.000  Cd
  Cd2      1.0000 0.50061  0.15449  0.97365  Biso   1.000  Cd
  Cd3      1.0000 0.00061  0.84551  0.47365  Biso   1.000  Cd
  Cd4      1.0000 0.00061  0.15449  0.52635  Biso   1.000  Cd
  H1       1.0000 0.73770  0.51820  0.08960  Biso   1.000  H
  H2       1.0000 0.79440  0.39450  0.14740  Biso   1.000  H
  H3       1.0000 0.57840  0.56910  0.23930  Biso   1.000  H
  H4       1.0000 0.52030  0.69040  0.18210  Biso   1.000  H
  H5       1.0000 0.72760  0.47360  0.29000  Biso   1.000  H
  H6       1.0000 0.58890  0.41010  0.28020  Biso   1.000  H
  H7       1.0000 0.70080  0.04870  0.32010  Biso   1.000  H
  H8       1.0000 0.90370  0.07070  0.36170  Biso   1.000  H
  H9       1.0000 0.00830  0.23730  0.36610  Biso   1.000  H
  H10      1.0000 0.90470  0.38810  0.33240  Biso   1.000  H
  H11      1.0000 0.58040  0.18320  0.23790  Biso   1.000  H
  H12      1.0000 0.49460  0.25110  0.27370  Biso   1.000  H
  H13      1.0000 0.46080  0.23610  0.35030  Biso   1.000  H
  H14      1.0000 0.30190  0.95430  0.30440  Biso   1.000  H
  H15      1.0000 0.32580  0.22250  0.41620  Biso   1.000  H
  H16      1.0000 0.16010  0.94570  0.36880  Biso   1.000  H
  H17      1.0000 0.53510  0.63190  0.95620  Biso   1.000  H
  H18      1.0000 0.40840  0.49650  0.92090  Biso   1.000  H
  H19      1.0000 0.17100  0.49310  0.92950  Biso   1.000  H
  H20      1.0000 0.95750  0.57960  0.96340  Biso   1.000  H
  H21      1.0000 0.86000  0.71060  0.00620  Biso   1.000  H
  H22      1.0000 0.88760  0.88420  0.05330  Biso   1.000  H
  H23      1.0000 0.02740  0.01790  0.08300  Biso   1.000  H
  H24      1.0000 0.26440  0.00650  0.07070  Biso   1.000  H
  H25      1.0000 0.73770  0.48180  0.91040  Biso   1.000  H
  H26      1.0000 0.79440  0.60550  0.85260  Biso   1.000  H
  H27      1.0000 0.57840  0.43090  0.76070  Biso   1.000  H
  H28      1.0000 0.52030  0.30960  0.81790  Biso   1.000  H
  H29      1.0000 0.72760  0.52640  0.71000  Biso   1.000  H
  H30      1.0000 0.58890  0.58990  0.71980  Biso   1.000  H
  H31      1.0000 0.70080  0.95130  0.67990  Biso   1.000  H
  H32      1.0000 0.90370  0.92930  0.63830  Biso   1.000  H
  H33      1.0000 0.00830  0.76270  0.63390  Biso   1.000  H
  H34      1.0000 0.90470  0.61190  0.66760  Biso   1.000  H
  H35      1.0000 0.58040  0.81680  0.76210  Biso   1.000  H
  H36      1.0000 0.49460  0.74890  0.72630  Biso   1.000  H
  H37      1.0000 0.46080  0.76390  0.64970  Biso   1.000  H
  H38      1.0000 0.30190  0.04570  0.69560  Biso   1.000  H
  H39      1.0000 0.32580  0.77750  0.58380  Biso   1.000  H
  H40      1.0000 0.16010  0.05430  0.63120  Biso   1.000  H
  H41      1.0000 0.53510  0.36810  0.04380  Biso   1.000  H
  H42      1.0000 0.40840  0.50350  0.07910  Biso   1.000  H
  H43      1.0000 0.17100  0.50690  0.07050  Biso   1.000  H
  H44      1.0000 0.95750  0.42040  0.03660  Biso   1.000  H
  H45      1.0000 0.86000  0.28940  0.99380  Biso   1.000  H
  H46      1.0000 0.88760  0.11580  0.94670  Biso   1.000  H
  H47      1.0000 0.02740  0.98210  0.91700  Biso   1.000  H
  H48      1.0000 0.26440  0.99350  0.92930  Biso   1.000  H
  H49      1.0000 0.23770  0.51820  0.41040  Biso   1.000  H
  H50      1.0000 0.29440  0.39450  0.35260  Biso   1.000  H
  H51      1.0000 0.07840  0.56910  0.26070  Biso   1.000  H
  H52      1.0000 0.02030  0.69040  0.31790  Biso   1.000  H
  H53      1.0000 0.22760  0.47360  0.21000  Biso   1.000  H
  H54      1.0000 0.08890  0.41010  0.21980  Biso   1.000  H
  H55      1.0000 0.20080  0.04870  0.17990  Biso   1.000  H
  H56      1.0000 0.40370  0.07070  0.13830  Biso   1.000  H
  H57      1.0000 0.50830  0.23730  0.13390  Biso   1.000  H
  H58      1.0000 0.40470  0.38810  0.16760  Biso   1.000  H
  H59      1.0000 0.08040  0.18320  0.26210  Biso   1.000  H
  H60      1.0000 0.99460  0.25110  0.22630  Biso   1.000  H
  H61      1.0000 0.96080  0.23610  0.14970  Biso   1.000  H
  H62      1.0000 0.80190  0.95430  0.19560  Biso   1.000  H
  H63      1.0000 0.82580  0.22250  0.08380  Biso   1.000  H
  H64      1.0000 0.66010  0.94570  0.13120  Biso   1.000  H
  H65      1.0000 0.03510  0.63190  0.54380  Biso   1.000  H
  H66      1.0000 0.90840  0.49650  0.57910  Biso   1.000  H
  H67      1.0000 0.67100  0.49310  0.57050  Biso   1.000  H
  H68      1.0000 0.45750  0.57960  0.53660  Biso   1.000  H
  H69      1.0000 0.36000  0.71060  0.49380  Biso   1.000  H
  H70      1.0000 0.38760  0.88420  0.44670  Biso   1.000  H
  H71      1.0000 0.52740  0.01790  0.41700  Biso   1.000  H
  H72      1.0000 0.76440  0.00650  0.42930  Biso   1.000  H
  H73      1.0000 0.23770  0.48180  0.58960  Biso   1.000  H
  H74      1.0000 0.29440  0.60550  0.64740  Biso   1.000  H
  H75      1.0000 0.07840  0.43090  0.73930  Biso   1.000  H
  H76      1.0000 0.02030  0.30960  0.68210  Biso   1.000  H
  H77      1.0000 0.22760  0.52640  0.79000  Biso   1.000  H
  H78      1.0000 0.08890  0.58990  0.78020  Biso   1.000  H
  H79      1.0000 0.20080  0.95130  0.82010  Biso   1.000  H
  H80      1.0000 0.40370  0.92930  0.86170  Biso   1.000  H
  H81      1.0000 0.50830  0.76270  0.86610  Biso   1.000  H
  H82      1.0000 0.40470  0.61190  0.83240  Biso   1.000  H
  H83      1.0000 0.08040  0.81680  0.73790  Biso   1.000  H
  H84      1.0000 0.99460  0.74890  0.77370  Biso   1.000  H
  H85      1.0000 0.96080  0.76390  0.85030  Biso   1.000  H
  H86      1.0000 0.80190  0.04570  0.80440  Biso   1.000  H
  H87      1.0000 0.82580  0.77750  0.91620  Biso   1.000  H
  H88      1.0000 0.66010  0.05430  0.86880  Biso   1.000  H
  H89      1.0000 0.03510  0.36810  0.45620  Biso   1.000  H
  H90      1.0000 0.90840  0.50350  0.42090  Biso   1.000  H
  H91      1.0000 0.67100  0.50690  0.42950  Biso   1.000  H
  H92      1.0000 0.45750  0.42040  0.46340  Biso   1.000  H
  H93      1.0000 0.36000  0.28940  0.50620  Biso   1.000  H
  H94      1.0000 0.38760  0.11580  0.55330  Biso   1.000  H
  H95      1.0000 0.52740  0.98210  0.58300  Biso   1.000  H
  H96      1.0000 0.76440  0.99350  0.57070  Biso   1.000  H
  C1       1.0000 0.58590  0.69810  0.09309  Biso   1.000  C
  C2       1.0000 0.62270  0.61930  0.12965  Biso   1.000  C
  C3       1.0000 0.70520  0.52880  0.11957  Biso   1.000  C
  C4       1.0000 0.73910  0.45440  0.15422  Biso   1.000  C
  C5       1.0000 0.69050  0.46940  0.19875  Biso   1.000  C
  C6       1.0000 0.60990  0.55830  0.20921  Biso   1.000  C
  C7       1.0000 0.57620  0.63110  0.17484  Biso   1.000  C
  C8       1.0000 0.68880  0.40690  0.27754  Biso   1.000  C
  C9       1.0000 0.74600  0.30730  0.30291  Biso   1.000  C
  C10      1.0000 0.68270  0.20480  0.29909  Biso   1.000  C
  C11      1.0000 0.74230  0.11700  0.32170  Biso   1.000  C
  C12      1.0000 0.86420  0.13040  0.34685  Biso   1.000  C
  C13      1.0000 0.92580  0.22960  0.34996  Biso   1.000  C
  C14      1.0000 0.86510  0.31940  0.32900  Biso   1.000  C
  C15      1.0000 0.55390  0.18790  0.27025  Biso   1.000  C
  C16      1.0000 0.39620  0.09570  0.32123  Biso   1.000  C
  C17      1.0000 0.40210  0.17680  0.35423  Biso   1.000  C
  C18      1.0000 0.30600  0.00890  0.32665  Biso   1.000  C
  C19      1.0000 0.31940  0.16910  0.39342  Biso   1.000  C
  C20      1.0000 0.22140  0.00360  0.36550  Biso   1.000  C
  C21      1.0000 0.22740  0.08350  0.39929  Biso   1.000  C
  C22      1.0000 0.13740  0.07930  0.44147  Biso   1.000  C
  C23      1.0000 0.43940  0.63240  0.95920  Biso   1.000  C
  C24      1.0000 0.36380  0.55010  0.93810  Biso   1.000  C
  C25      1.0000 0.22300  0.54860  0.94280  Biso   1.000  C
  C26      1.0000 0.15900  0.63120  0.96793  Biso   1.000  C
  C27      1.0000 0.01300  0.63380  0.97609  Biso   1.000  C
  C28      1.0000 0.95500  0.71180  0.00140  Biso   1.000  C
  C29      1.0000 0.03520  0.79740  0.02151  Biso   1.000  C
  C30      1.0000 0.98230  0.88160  0.04780  Biso   1.000  C
  C31      1.0000 0.06460  0.96080  0.06580  Biso   1.000  C
  C32      1.0000 0.20690  0.95390  0.05788  Biso   1.000  C
  C33      1.0000 0.18050  0.79810  0.01464  Biso   1.000  C
  C34      1.0000 0.24240  0.71190  0.98779  Biso   1.000  C
  C35      1.0000 0.58590  0.30190  0.90691  Biso   1.000  C
  C36      1.0000 0.62270  0.38070  0.87035  Biso   1.000  C
  C37      1.0000 0.70520  0.47120  0.88043  Biso   1.000  C
  C38      1.0000 0.73910  0.54560  0.84578  Biso   1.000  C
  C39      1.0000 0.69050  0.53060  0.80125  Biso   1.000  C
  C40      1.0000 0.60990  0.44170  0.79079  Biso   1.000  C
  C41      1.0000 0.57620  0.36890  0.82516  Biso   1.000  C
  C42      1.0000 0.68880  0.59310  0.72246  Biso   1.000  C
  C43      1.0000 0.74600  0.69270  0.69709  Biso   1.000  C
  C44      1.0000 0.68270  0.79520  0.70091  Biso   1.000  C
  C45      1.0000 0.74230  0.88300  0.67830  Biso   1.000  C
  C46      1.0000 0.86420  0.86960  0.65315  Biso   1.000  C
  C47      1.0000 0.92580  0.77040  0.65004  Biso   1.000  C
  C48      1.0000 0.86510  0.68060  0.67100  Biso   1.000  C
  C49      1.0000 0.55390  0.81210  0.72975  Biso   1.000  C
  C50      1.0000 0.39620  0.90430  0.67877  Biso   1.000  C
  C51      1.0000 0.40210  0.82320  0.64577  Biso   1.000  C
  C52      1.0000 0.30600  0.99110  0.67335  Biso   1.000  C
  C53      1.0000 0.31940  0.83090  0.60658  Biso   1.000  C
  C54      1.0000 0.22140  0.99640  0.63450  Biso   1.000  C
  C55      1.0000 0.22740  0.91650  0.60071  Biso   1.000  C
  C56      1.0000 0.13740  0.92070  0.55853  Biso   1.000  C
  C57      1.0000 0.43940  0.36760  0.04080  Biso   1.000  C
  C58      1.0000 0.36380  0.44990  0.06190  Biso   1.000  C
  C59      1.0000 0.22300  0.45140  0.05720  Biso   1.000  C
  C60      1.0000 0.15900  0.36880  0.03207  Biso   1.000  C
  C61      1.0000 0.01300  0.36620  0.02391  Biso   1.000  C
  C62      1.0000 0.95500  0.28820  0.99860  Biso   1.000  C
  C63      1.0000 0.03520  0.20260  0.97849  Biso   1.000  C
  C64      1.0000 0.98230  0.11840  0.95220  Biso   1.000  C
  C65      1.0000 0.06460  0.03920  0.93420  Biso   1.000  C
  C66      1.0000 0.20690  0.04610  0.94212  Biso   1.000  C
  C67      1.0000 0.18050  0.20190  0.98536  Biso   1.000  C
  C68      1.0000 0.24240  0.28810  0.01221  Biso   1.000  C
  C69      1.0000 0.08590  0.69810  0.40691  Biso   1.000  C
  C70      1.0000 0.12270  0.61930  0.37035  Biso   1.000  C
  C71      1.0000 0.20520  0.52880  0.38043  Biso   1.000  C
  C72      1.0000 0.23910  0.45440  0.34578  Biso   1.000  C
  C73      1.0000 0.19050  0.46940  0.30125  Biso   1.000  C
  C74      1.0000 0.10990  0.55830  0.29079  Biso   1.000  C
  C75      1.0000 0.07620  0.63110  0.32516  Biso   1.000  C
  C76      1.0000 0.18880  0.40690  0.22246  Biso   1.000  C
  C77      1.0000 0.24600  0.30730  0.19709  Biso   1.000  C
  C78      1.0000 0.18270  0.20480  0.20091  Biso   1.000  C
  C79      1.0000 0.24230  0.11700  0.17830  Biso   1.000  C
  C80      1.0000 0.36420  0.13040  0.15315  Biso   1.000  C
  C81      1.0000 0.42580  0.22960  0.15004  Biso   1.000  C
  C82      1.0000 0.36510  0.31940  0.17100  Biso   1.000  C
  C83      1.0000 0.05390  0.18790  0.22975  Biso   1.000  C
  C84      1.0000 0.89620  0.09570  0.17877  Biso   1.000  C
  C85      1.0000 0.90210  0.17680  0.14577  Biso   1.000  C
  C86      1.0000 0.80600  0.00890  0.17335  Biso   1.000  C
  C87      1.0000 0.81940  0.16910  0.10658  Biso   1.000  C
  C88      1.0000 0.72140  0.00360  0.13450  Biso   1.000  C
  C89      1.0000 0.72740  0.08350  0.10071  Biso   1.000  C
  C90      1.0000 0.63740  0.07930  0.05853  Biso   1.000  C
  C91      1.0000 0.93940  0.63240  0.54080  Biso   1.000  C
  C92      1.0000 0.86380  0.55010  0.56190  Biso   1.000  C
  C93      1.0000 0.72300  0.54860  0.55720  Biso   1.000  C
  C94      1.0000 0.65900  0.63120  0.53207  Biso   1.000  C
  C95      1.0000 0.51300  0.63380  0.52391  Biso   1.000  C
  C96      1.0000 0.45500  0.71180  0.49860  Biso   1.000  C
  C97      1.0000 0.53520  0.79740  0.47849  Biso   1.000  C
  C98      1.0000 0.48230  0.88160  0.45220  Biso   1.000  C
  C99      1.0000 0.56460  0.96080  0.43420  Biso   1.000  C
  C100     1.0000 0.70690  0.95390  0.44212  Biso   1.000  C
  C101     1.0000 0.68050  0.79810  0.48536  Biso   1.000  C
  C102     1.0000 0.74240  0.71190  0.51221  Biso   1.000  C
  C103     1.0000 0.08590  0.30190  0.59309  Biso   1.000  C
  C104     1.0000 0.12270  0.38070  0.62965  Biso   1.000  C
  C105     1.0000 0.20520  0.47120  0.61957  Biso   1.000  C
  C106     1.0000 0.23910  0.54560  0.65422  Biso   1.000  C
  C107     1.0000 0.19050  0.53060  0.69875  Biso   1.000  C
  C108     1.0000 0.10990  0.44170  0.70921  Biso   1.000  C
  C109     1.0000 0.07620  0.36890  0.67484  Biso   1.000  C
  C110     1.0000 0.18880  0.59310  0.77754  Biso   1.000  C
  C111     1.0000 0.24600  0.69270  0.80291  Biso   1.000  C
  C112     1.0000 0.18270  0.79520  0.79909  Biso   1.000  C
  C113     1.0000 0.24230  0.88300  0.82170  Biso   1.000  C
  C114     1.0000 0.36420  0.86960  0.84685  Biso   1.000  C
  C115     1.0000 0.42580  0.77040  0.84996  Biso   1.000  C
  C116     1.0000 0.36510  0.68060  0.82900  Biso   1.000  C
  C117     1.0000 0.05390  0.81210  0.77025  Biso   1.000  C
  C118     1.0000 0.89620  0.90430  0.82123  Biso   1.000  C
  C119     1.0000 0.90210  0.82320  0.85423  Biso   1.000  C
  C120     1.0000 0.80600  0.99110  0.82665  Biso   1.000  C
  C121     1.0000 0.81940  0.83090  0.89342  Biso   1.000  C
  C122     1.0000 0.72140  0.99640  0.86550  Biso   1.000  C
  C123     1.0000 0.72740  0.91650  0.89929  Biso   1.000  C
  C124     1.0000 0.63740  0.92070  0.94147  Biso   1.000  C
  C125     1.0000 0.93940  0.36760  0.45920  Biso   1.000  C
  C126     1.0000 0.86380  0.44990  0.43810  Biso   1.000  C
  C127     1.0000 0.72300  0.45140  0.44280  Biso   1.000  C
  C128     1.0000 0.65900  0.36880  0.46793  Biso   1.000  C
  C129     1.0000 0.51300  0.36620  0.47609  Biso   1.000  C
  C130     1.0000 0.45500  0.28820  0.50140  Biso   1.000  C
  C131     1.0000 0.53520  0.20260  0.52151  Biso   1.000  C
  C132     1.0000 0.48230  0.11840  0.54780  Biso   1.000  C
  C133     1.0000 0.56460  0.03920  0.56580  Biso   1.000  C
  C134     1.0000 0.70690  0.04610  0.55788  Biso   1.000  C
  C135     1.0000 0.68050  0.20190  0.51464  Biso   1.000  C
  C136     1.0000 0.74240  0.28810  0.48779  Biso   1.000  C
  N1       1.0000 0.38140  0.71130  0.98331  Biso   1.000  N
  N2       1.0000 0.26290  0.87520  0.03274  Biso   1.000  N
  N3       1.0000 0.38140  0.28870  0.01669  Biso   1.000  N
  N4       1.0000 0.26290  0.12480  0.96726  Biso   1.000  N
  N5       1.0000 0.88140  0.71130  0.51669  Biso   1.000  N
  N6       1.0000 0.76290  0.87520  0.46726  Biso   1.000  N
  N7       1.0000 0.88140  0.28870  0.48331  Biso   1.000  N
  N8       1.0000 0.76290  0.12480  0.53274  Biso   1.000  N
  O1       1.0000 0.16260  0.14740  0.47279  Biso   1.000  O
  O2       1.0000 0.63920  0.68850  0.05397  Biso   1.000  O
  O3       1.0000 0.03760  0.01360  0.44296  Biso   1.000  O
  O4       1.0000 0.49880  0.77200  0.10099  Biso   1.000  O
  O5       1.0000 0.73010  0.39180  0.22991  Biso   1.000  O
  O6       1.0000 0.47750  0.09340  0.28206  Biso   1.000  O
  O7       1.0000 0.16260  0.85260  0.52721  Biso   1.000  O
  O8       1.0000 0.63920  0.31150  0.94603  Biso   1.000  O
  O9       1.0000 0.03760  0.98640  0.55704  Biso   1.000  O
  O10      1.0000 0.49880  0.22800  0.89901  Biso   1.000  O
  O11      1.0000 0.73010  0.60820  0.77009  Biso   1.000  O
  O12      1.0000 0.47750  0.90660  0.71794  Biso   1.000  O
  O13      1.0000 0.66260  0.14740  0.02721  Biso   1.000  O
  O14      1.0000 0.13920  0.68850  0.44603  Biso   1.000  O
  O15      1.0000 0.53760  0.01360  0.05704  Biso   1.000  O
  O16      1.0000 0.99880  0.77200  0.39901  Biso   1.000  O
  O17      1.0000 0.23010  0.39180  0.27009  Biso   1.000  O
  O18      1.0000 0.97750  0.09340  0.21794  Biso   1.000  O
  O19      1.0000 0.66260  0.85260  0.97279  Biso   1.000  O
  O20      1.0000 0.13920  0.31150  0.55397  Biso   1.000  O
  O21      1.0000 0.53760  0.98640  0.94296  Biso   1.000  O
  O22      1.0000 0.99880  0.22800  0.60099  Biso   1.000  O
  O23      1.0000 0.23010  0.60820  0.72991  Biso   1.000  O
  O24      1.0000 0.97750  0.90660  0.78206  Biso   1.000  O
