data_image0
_cell_length_a       8.11605
_cell_length_b       17.1946
_cell_length_c       17.1946
_cell_angle_alpha    62.4277
_cell_angle_beta     80.9476
_cell_angle_gamma    99.0524

_symmetry_space_group_name_H-M    P 1
_symmetry_int_tables_number       1

loop_
  _symmetry_equiv_pos_as_xyz
  'x, y, z'

loop_
  _atom_site_label
  _atom_site_occupancy
  _atom_site_fract_x
  _atom_site_fract_y
  _atom_site_fract_z
  _atom_site_thermal_displace_type
  _atom_site_B_iso_or_equiv
  _atom_site_type_symbol
  In1      1.0000 0.07595  0.29999  0.26869  Biso   1.000  In
  In2      1.0000 0.34464  0.26869  0.43132  Biso   1.000  In
  In3      1.0000 0.77596  0.43132  0.29999  Biso   1.000  In
  In4      1.0000 0.92405  0.70001  0.73131  Biso   1.000  In
  In5      1.0000 0.65536  0.73131  0.56868  Biso   1.000  In
  In6      1.0000 0.22404  0.56868  0.70001  Biso   1.000  In
  H1       1.0000 0.94380  0.72850  0.86290  Biso   1.000  H
  H2       1.0000 0.09910  0.80130  0.79800  Biso   1.000  H
  H3       1.0000 0.75150  0.26180  0.36670  Biso   1.000  H
  H4       1.0000 0.37750  0.55050  0.03290  Biso   1.000  H
  H5       1.0000 0.36650  0.74390  0.78650  Biso   1.000  H
  H6       1.0000 0.93420  0.61700  0.99170  Biso   1.000  H
  H7       1.0000 0.80670  0.86290  0.40860  Biso   1.000  H
  H8       1.0000 0.89710  0.79800  0.40070  Biso   1.000  H
  H9       1.0000 0.11820  0.36670  0.37150  Biso   1.000  H
  H10      1.0000 0.41040  0.03290  0.41660  Biso   1.000  H
  H11      1.0000 0.15300  0.78650  0.46960  Biso   1.000  H
  H12      1.0000 0.92590  0.99170  0.39130  Biso   1.000  H
  H13      1.0000 0.21530  0.40860  0.72850  Biso   1.000  H
  H14      1.0000 0.29780  0.40070  0.80130  Biso   1.000  H
  H15      1.0000 0.48970  0.37150  0.26180  Biso   1.000  H
  H16      1.0000 0.82700  0.41660  0.55050  Biso   1.000  H
  H17      1.0000 0.62260  0.46960  0.74390  Biso   1.000  H
  H18      1.0000 0.31720  0.39130  0.61700  Biso   1.000  H
  H19      1.0000 0.05620  0.27150  0.13710  Biso   1.000  H
  H20      1.0000 0.90090  0.19870  0.20200  Biso   1.000  H
  H21      1.0000 0.24850  0.73820  0.63330  Biso   1.000  H
  H22      1.0000 0.62250  0.44950  0.96710  Biso   1.000  H
  H23      1.0000 0.63350  0.25610  0.21350  Biso   1.000  H
  H24      1.0000 0.06580  0.38300  0.00830  Biso   1.000  H
  H25      1.0000 0.19330  0.13710  0.59140  Biso   1.000  H
  H26      1.0000 0.10290  0.20200  0.59930  Biso   1.000  H
  H27      1.0000 0.88180  0.63330  0.62850  Biso   1.000  H
  H28      1.0000 0.58960  0.96710  0.58340  Biso   1.000  H
  H29      1.0000 0.84700  0.21350  0.53040  Biso   1.000  H
  H30      1.0000 0.07410  0.00830  0.60870  Biso   1.000  H
  H31      1.0000 0.78470  0.59140  0.27150  Biso   1.000  H
  H32      1.0000 0.70220  0.59930  0.19870  Biso   1.000  H
  H33      1.0000 0.51030  0.62850  0.73820  Biso   1.000  H
  H34      1.0000 0.17300  0.58340  0.44950  Biso   1.000  H
  H35      1.0000 0.37740  0.53040  0.25610  Biso   1.000  H
  H36      1.0000 0.68280  0.60870  0.38300  Biso   1.000  H
  C1       1.0000 0.05022  0.49814  0.12208  Biso   1.000  C
  C2       1.0000 0.14194  0.57068  0.02626  Biso   1.000  C
  C3       1.0000 0.31685  0.58505  0.99440  Biso   1.000  C
  C4       1.0000 0.40283  0.65023  0.90574  Biso   1.000  C
  C5       1.0000 0.59570  0.66860  0.87380  Biso   1.000  C
  C6       1.0000 0.31093  0.70193  0.84704  Biso   1.000  C
  C7       1.0000 0.13680  0.68931  0.88071  Biso   1.000  C
  C8       1.0000 0.05116  0.62456  0.96968  Biso   1.000  C
  C9       1.0000 0.17230  0.12208  0.37978  Biso   1.000  C
  C10      1.0000 0.16820  0.02626  0.40306  Biso   1.000  C
  C11      1.0000 0.31125  0.99440  0.42055  Biso   1.000  C
  C12      1.0000 0.30857  0.90574  0.44403  Biso   1.000  C
  C13      1.0000 0.46950  0.87380  0.45760  Biso   1.000  C
  C14      1.0000 0.15797  0.84704  0.45103  Biso   1.000  C
  C15      1.0000 0.01751  0.88071  0.42998  Biso   1.000  C
  C16      1.0000 0.02084  0.96968  0.40576  Biso   1.000  C
  C17      1.0000 0.55208  0.37978  0.49814  Biso   1.000  C
  C18      1.0000 0.57126  0.40306  0.57068  Biso   1.000  C
  C19      1.0000 0.73180  0.42055  0.58505  Biso   1.000  C
  C20      1.0000 0.75260  0.44403  0.65023  Biso   1.000  C
  C21      1.0000 0.92710  0.45760  0.66860  Biso   1.000  C
  C22      1.0000 0.60900  0.45103  0.70193  Biso   1.000  C
  C23      1.0000 0.44749  0.42998  0.68931  Biso   1.000  C
  C24      1.0000 0.42660  0.40576  0.62456  Biso   1.000  C
  C25      1.0000 0.94978  0.50186  0.87792  Biso   1.000  C
  C26      1.0000 0.85806  0.42932  0.97374  Biso   1.000  C
  C27      1.0000 0.68315  0.41495  0.00560  Biso   1.000  C
  C28      1.0000 0.59717  0.34977  0.09426  Biso   1.000  C
  C29      1.0000 0.40430  0.33140  0.12620  Biso   1.000  C
  C30      1.0000 0.68907  0.29807  0.15296  Biso   1.000  C
  C31      1.0000 0.86320  0.31069  0.11929  Biso   1.000  C
  C32      1.0000 0.94884  0.37544  0.03032  Biso   1.000  C
  C33      1.0000 0.82770  0.87792  0.62022  Biso   1.000  C
  C34      1.0000 0.83180  0.97374  0.59694  Biso   1.000  C
  C35      1.0000 0.68875  0.00560  0.57945  Biso   1.000  C
  C36      1.0000 0.69143  0.09426  0.55597  Biso   1.000  C
  C37      1.0000 0.53050  0.12620  0.54240  Biso   1.000  C
  C38      1.0000 0.84203  0.15296  0.54897  Biso   1.000  C
  C39      1.0000 0.98249  0.11929  0.57002  Biso   1.000  C
  C40      1.0000 0.97916  0.03032  0.59424  Biso   1.000  C
  C41      1.0000 0.44792  0.62022  0.50186  Biso   1.000  C
  C42      1.0000 0.42874  0.59694  0.42932  Biso   1.000  C
  C43      1.0000 0.26820  0.57945  0.41495  Biso   1.000  C
  C44      1.0000 0.24740  0.55597  0.34977  Biso   1.000  C
  C45      1.0000 0.07290  0.54240  0.33140  Biso   1.000  C
  C46      1.0000 0.39100  0.54897  0.29807  Biso   1.000  C
  C47      1.0000 0.55251  0.57002  0.31069  Biso   1.000  C
  C48      1.0000 0.57340  0.59424  0.37544  Biso   1.000  C
  N1       1.0000 0.04154  0.74468  0.82166  Biso   1.000  N
  N2       1.0000 0.86320  0.82166  0.43366  Biso   1.000  N
  N3       1.0000 0.29686  0.43366  0.74468  Biso   1.000  N
  N4       1.0000 0.95846  0.25532  0.17834  Biso   1.000  N
  N5       1.0000 0.13680  0.17834  0.56634  Biso   1.000  N
  N6       1.0000 0.70314  0.56634  0.25532  Biso   1.000  N
  O1       1.0000 0.13050  0.44138  0.16408  Biso   1.000  O
  O2       1.0000 0.89887  0.49875  0.15584  Biso   1.000  O
  O3       1.0000 0.65554  0.68320  0.79378  Biso   1.000  O
  O4       1.0000 0.68466  0.66806  0.92558  Biso   1.000  O
  O5       1.0000 0.83245  0.30868  0.32103  Biso   1.000  O
  O6       1.0000 0.29458  0.16408  0.39454  Biso   1.000  O
  O7       1.0000 0.05471  0.15584  0.34541  Biso   1.000  O
  O8       1.0000 0.44932  0.79378  0.52302  Biso   1.000  O
  O9       1.0000 0.61024  0.92558  0.40636  Biso   1.000  O
  O10      1.0000 0.15348  0.32103  0.37029  Biso   1.000  O
  O11      1.0000 0.68912  0.39454  0.44138  Biso   1.000  O
  O12      1.0000 0.40012  0.34541  0.49875  Biso   1.000  O
  O13      1.0000 0.97234  0.52302  0.68320  Biso   1.000  O
  O14      1.0000 0.01660  0.40636  0.66806  Biso   1.000  O
  O15      1.0000 0.52377  0.37029  0.30868  Biso   1.000  O
  O16      1.0000 0.86950  0.55862  0.83592  Biso   1.000  O
  O17      1.0000 0.10113  0.50125  0.84416  Biso   1.000  O
  O18      1.0000 0.34446  0.31680  0.20622  Biso   1.000  O
  O19      1.0000 0.31534  0.33194  0.07442  Biso   1.000  O
  O20      1.0000 0.16755  0.69132  0.67897  Biso   1.000  O
  O21      1.0000 0.70542  0.83592  0.60546  Biso   1.000  O
  O22      1.0000 0.94529  0.84416  0.65459  Biso   1.000  O
  O23      1.0000 0.55068  0.20622  0.47698  Biso   1.000  O
  O24      1.0000 0.38976  0.07442  0.59364  Biso   1.000  O
  O25      1.0000 0.84652  0.67897  0.62971  Biso   1.000  O
  O26      1.0000 0.31088  0.60546  0.55862  Biso   1.000  O
  O27      1.0000 0.59988  0.65459  0.50125  Biso   1.000  O
  O28      1.0000 0.02766  0.47698  0.31680  Biso   1.000  O
  O29      1.0000 0.98340  0.59364  0.33194  Biso   1.000  O
  O30      1.0000 0.47623  0.62971  0.69132  Biso   1.000  O
