data_image0
_cell_length_a       10.4
_cell_length_b       11.48
_cell_length_c       12.407
_cell_angle_alpha    112.591
_cell_angle_beta     107.961
_cell_angle_gamma    101.658

_symmetry_space_group_name_H-M    "P 1"
_symmetry_int_tables_number       1

loop_
  _symmetry_equiv_pos_as_xyz
  'x, y, z'

loop_
  _atom_site_label
  _atom_site_occupancy
  _atom_site_fract_x
  _atom_site_fract_y
  _atom_site_fract_z
  _atom_site_thermal_displace_type
  _atom_site_B_iso_or_equiv
  _atom_site_type_symbol
  Cd1      1.0000 0.93637  0.30162  0.42988  Biso   1.000  Cd
  C1       1.0000 0.92880  0.42900  0.28130  Biso   1.000  C
  C2       1.0000 0.92090  0.49210  0.19470  Biso   1.000  C
  C3       1.0000 0.79390  0.44420  0.08700  Biso   1.000  C
  H1       1.0000 0.71570  0.37130  0.06700  Biso   1.000  H
  C4       1.0000 0.78110  0.50460  0.00660  Biso   1.000  C
  C5       1.0000 0.89910  0.61080  0.03510  Biso   1.000  C
  C6       1.0000 0.02620  0.65780  0.14290  Biso   1.000  C
  H2       1.0000 0.10540  0.72900  0.16170  Biso   1.000  H
  C7       1.0000 0.03800  0.60020  0.22420  Biso   1.000  C
  H3       1.0000 0.12370  0.63410  0.29780  Biso   1.000  H
  C8       1.0000 0.53580  0.35810  0.86900  Biso   1.000  C
  H4       1.0000 0.51720  0.37570  0.94460  Biso   1.000  H
  H5       1.0000 0.55360  0.27400  0.84150  Biso   1.000  H
  C9       1.0000 0.40470  0.34600  0.76100  Biso   1.000  C
  C10      1.0000 0.27580  0.24330  0.70990  Biso   1.000  C
  H6       1.0000 0.27000  0.17870  0.73780  Biso   1.000  H
  C11      1.0000 0.15560  0.23450  0.61860  Biso   1.000  C
  H7       1.0000 0.06890  0.16340  0.58540  Biso   1.000  H
  C12      1.0000 0.28230  0.42330  0.62320  Biso   1.000  C
  H8       1.0000 0.28570  0.48660  0.59380  Biso   1.000  H
  C13      1.0000 0.40920  0.43780  0.71630  Biso   1.000  C
  H9       1.0000 0.49560  0.50860  0.74760  Biso   1.000  H
  C14      1.0000 0.98580  0.78050  0.98020  Biso   1.000  C
  H10      1.0000 0.96900  0.79140  0.90390  Biso   1.000  H
  H11      1.0000 0.08120  0.77510  0.01000  Biso   1.000  H
  C15      1.0000 0.98270  0.90220  0.08380  Biso   1.000  C
  C16      1.0000 0.84970  0.90780  0.07930  Biso   1.000  C
  H12      1.0000 0.76410  0.83740  0.01380  Biso   1.000  H
  C17      1.0000 0.84590  0.01940  0.17320  Biso   1.000  C
  H13      1.0000 0.75600  0.02330  0.16850  Biso   1.000  H
  C18      1.0000 0.09470  0.11540  0.27300  Biso   1.000  C
  H14      1.0000 0.17950  0.18660  0.33900  Biso   1.000  H
  C19      1.0000 0.10640  0.00780  0.18220  Biso   1.000  C
  H15      1.0000 0.19720  0.00660  0.18750  Biso   1.000  H
  C20      1.0000 0.71040  0.15110  0.44990  Biso   1.000  C
  C21      1.0000 0.59950  0.07310  0.47470  Biso   1.000  C
  C22      1.0000 0.62910  0.98630  0.51820  Biso   1.000  C
  H16      1.0000 0.71890  0.97710  0.53370  Biso   1.000  H
  C23      1.0000 0.47170  0.09010  0.45960  Biso   1.000  C
  H17      1.0000 0.45090  0.15310  0.43430  Biso   1.000  H
  N1       1.0000 0.15740  0.32470  0.57450  Biso   1.000  N
  N2       1.0000 0.96660  0.12300  0.27140  Biso   1.000  N
  O1       1.0000 0.82650  0.32440  0.24570  Biso   1.000  O
  O2       1.0000 0.03770  0.48620  0.39000  Biso   1.000  O
  O3       1.0000 0.65970  0.46670  0.89970  Biso   1.000  O
  O4       1.0000 0.87880  0.65740  0.94700  Biso   1.000  O
  O5       1.0000 0.82500  0.12930  0.46470  Biso   1.000  O
  O6       1.0000 0.69110  0.24040  0.41980  Biso   1.000  O
  Cd2      1.0000 0.06363  0.69838  0.57012  Biso   1.000  Cd
  C24      1.0000 0.07120  0.57100  0.71870  Biso   1.000  C
  C25      1.0000 0.07910  0.50790  0.80530  Biso   1.000  C
  C26      1.0000 0.20610  0.55580  0.91300  Biso   1.000  C
  H18      1.0000 0.28430  0.62870  0.93300  Biso   1.000  H
  C27      1.0000 0.21890  0.49540  0.99340  Biso   1.000  C
  C28      1.0000 0.10090  0.38920  0.96490  Biso   1.000  C
  C29      1.0000 0.97380  0.34220  0.85710  Biso   1.000  C
  H19      1.0000 0.89460  0.27100  0.83830  Biso   1.000  H
  C30      1.0000 0.96200  0.39980  0.77580  Biso   1.000  C
  H20      1.0000 0.87630  0.36590  0.70220  Biso   1.000  H
  C31      1.0000 0.46420  0.64190  0.13100  Biso   1.000  C
  H21      1.0000 0.48280  0.62430  0.05540  Biso   1.000  H
  H22      1.0000 0.44640  0.72600  0.15850  Biso   1.000  H
  C32      1.0000 0.59530  0.65400  0.23900  Biso   1.000  C
  C33      1.0000 0.72420  0.75670  0.29010  Biso   1.000  C
  H23      1.0000 0.73000  0.82130  0.26220  Biso   1.000  H
  C34      1.0000 0.84440  0.76550  0.38140  Biso   1.000  C
  H24      1.0000 0.93110  0.83660  0.41460  Biso   1.000  H
  C35      1.0000 0.71770  0.57670  0.37680  Biso   1.000  C
  H25      1.0000 0.71430  0.51340  0.40620  Biso   1.000  H
  C36      1.0000 0.59080  0.56220  0.28370  Biso   1.000  C
  H26      1.0000 0.50440  0.49140  0.25240  Biso   1.000  H
  C37      1.0000 0.01420  0.21950  0.01980  Biso   1.000  C
  H27      1.0000 0.03100  0.20860  0.09610  Biso   1.000  H
  H28      1.0000 0.91880  0.22490  0.99000  Biso   1.000  H
  C38      1.0000 0.01730  0.09780  0.91620  Biso   1.000  C
  C39      1.0000 0.15030  0.09220  0.92070  Biso   1.000  C
  H29      1.0000 0.23590  0.16260  0.98620  Biso   1.000  H
  C40      1.0000 0.15410  0.98060  0.82680  Biso   1.000  C
  H30      1.0000 0.24400  0.97670  0.83150  Biso   1.000  H
  C41      1.0000 0.90530  0.88460  0.72700  Biso   1.000  C
  H31      1.0000 0.82050  0.81340  0.66100  Biso   1.000  H
  C42      1.0000 0.89360  0.99220  0.81780  Biso   1.000  C
  H32      1.0000 0.80280  0.99340  0.81250  Biso   1.000  H
  C43      1.0000 0.28960  0.84890  0.55010  Biso   1.000  C
  C44      1.0000 0.40050  0.92690  0.52530  Biso   1.000  C
  C45      1.0000 0.37090  0.01370  0.48180  Biso   1.000  C
  H33      1.0000 0.28110  0.02290  0.46630  Biso   1.000  H
  C46      1.0000 0.52830  0.90990  0.54040  Biso   1.000  C
  H34      1.0000 0.54910  0.84690  0.56570  Biso   1.000  H
  N3       1.0000 0.84260  0.67530  0.42550  Biso   1.000  N
  N4       1.0000 0.03340  0.87700  0.72860  Biso   1.000  N
  O7       1.0000 0.17350  0.67560  0.75430  Biso   1.000  O
  O8       1.0000 0.96230  0.51380  0.61000  Biso   1.000  O
  O9       1.0000 0.34030  0.53330  0.10030  Biso   1.000  O
  O10      1.0000 0.12120  0.34260  0.05300  Biso   1.000  O
  O11      1.0000 0.17500  0.87070  0.53530  Biso   1.000  O
  O12      1.0000 0.30890  0.75960  0.58020  Biso   1.000  O
