data_image0
_cell_length_a       9.30458
_cell_length_b       13.7029
_cell_length_c       19.9111
_cell_angle_alpha    86.5705
_cell_angle_beta     79.8517
_cell_angle_gamma    70.1529

_symmetry_space_group_name_H-M    P 1
_symmetry_int_tables_number       1

loop_
  _symmetry_equiv_pos_as_xyz
  'x, y, z'

loop_
  _atom_site_label
  _atom_site_occupancy
  _atom_site_fract_x
  _atom_site_fract_y
  _atom_site_fract_z
  _atom_site_thermal_displace_type
  _atom_site_B_iso_or_equiv
  _atom_site_type_symbol
  Zn1      1.0000 0.59666  0.74166  0.01193  Biso   1.000  Zn
  Zn2      1.0000 0.16168  0.74166  0.48807  Biso   1.000  Zn
  Zn3      1.0000 0.40334  0.25834  0.98807  Biso   1.000  Zn
  Zn4      1.0000 0.83832  0.25834  0.51193  Biso   1.000  Zn
  H1       1.0000 0.38710  0.63200  0.06670  Biso   1.000  H
  H2       1.0000 0.37690  0.48620  0.12590  Biso   1.000  H
  H3       1.0000 0.82770  0.41140  0.13130  Biso   1.000  H
  H4       1.0000 0.82480  0.55720  0.07090  Biso   1.000  H
  H5       1.0000 0.76270  0.31480  0.22320  Biso   1.000  H
  H6       1.0000 0.78580  0.23760  0.16340  Biso   1.000  H
  H7       1.0000 0.51490  0.11740  0.24270  Biso   1.000  H
  H8       1.0000 0.52630  0.18720  0.17760  Biso   1.000  H
  H9       1.0000 0.89160  0.88520  0.14540  Biso   1.000  H
  H10      1.0000 0.85570  0.76400  0.08300  Biso   1.000  H
  H11      1.0000 0.43770  0.94760  0.07040  Biso   1.000  H
  H12      1.0000 0.47080  0.07420  0.12630  Biso   1.000  H
  H13      1.0000 0.78740  0.82500  0.80670  Biso   1.000  H
  H14      1.0000 0.95120  0.51440  0.80670  Biso   1.000  H
  H15      1.0000 0.01950  0.85440  0.94100  Biso   1.000  H
  H16      1.0000 0.20340  0.99180  0.05420  Biso   1.000  H
  H17      1.0000 0.48090  0.63200  0.43330  Biso   1.000  H
  H18      1.0000 0.63690  0.48620  0.37410  Biso   1.000  H
  H19      1.0000 0.26090  0.41140  0.36870  Biso   1.000  H
  H20      1.0000 0.11800  0.55720  0.42910  Biso   1.000  H
  H21      1.0000 0.42250  0.31480  0.27680  Biso   1.000  H
  H22      1.0000 0.47660  0.23760  0.33660  Biso   1.000  H
  H23      1.0000 0.86770  0.11740  0.25730  Biso   1.000  H
  H24      1.0000 0.78650  0.18720  0.32240  Biso   1.000  H
  H25      1.0000 0.72320  0.88520  0.35460  Biso   1.000  H
  H26      1.0000 0.88030  0.76400  0.41700  Biso   1.000  H
  H27      1.0000 0.11470  0.94760  0.42960  Biso   1.000  H
  H28      1.0000 0.95500  0.07420  0.37370  Biso   1.000  H
  H29      1.0000 0.88760  0.82500  0.69330  Biso   1.000  H
  H30      1.0000 0.03440  0.51440  0.69330  Biso   1.000  H
  H31      1.0000 0.62610  0.85440  0.55900  Biso   1.000  H
  H32      1.0000 0.30480  0.99180  0.44580  Biso   1.000  H
  H33      1.0000 0.61290  0.36800  0.93330  Biso   1.000  H
  H34      1.0000 0.62310  0.51380  0.87410  Biso   1.000  H
  H35      1.0000 0.17230  0.58860  0.86870  Biso   1.000  H
  H36      1.0000 0.17520  0.44280  0.92910  Biso   1.000  H
  H37      1.0000 0.23730  0.68520  0.77680  Biso   1.000  H
  H38      1.0000 0.21420  0.76240  0.83660  Biso   1.000  H
  H39      1.0000 0.48510  0.88260  0.75730  Biso   1.000  H
  H40      1.0000 0.47370  0.81280  0.82240  Biso   1.000  H
  H41      1.0000 0.10840  0.11480  0.85460  Biso   1.000  H
  H42      1.0000 0.14430  0.23600  0.91700  Biso   1.000  H
  H43      1.0000 0.56230  0.05240  0.92960  Biso   1.000  H
  H44      1.0000 0.52920  0.92580  0.87370  Biso   1.000  H
  H45      1.0000 0.21260  0.17500  0.19330  Biso   1.000  H
  H46      1.0000 0.04880  0.48560  0.19330  Biso   1.000  H
  H47      1.0000 0.98050  0.14560  0.05900  Biso   1.000  H
  H48      1.0000 0.79660  0.00820  0.94580  Biso   1.000  H
  H49      1.0000 0.51910  0.36800  0.56670  Biso   1.000  H
  H50      1.0000 0.36310  0.51380  0.62590  Biso   1.000  H
  H51      1.0000 0.73910  0.58860  0.63130  Biso   1.000  H
  H52      1.0000 0.88200  0.44280  0.57090  Biso   1.000  H
  H53      1.0000 0.57750  0.68520  0.72320  Biso   1.000  H
  H54      1.0000 0.52340  0.76240  0.66340  Biso   1.000  H
  H55      1.0000 0.13230  0.88260  0.74270  Biso   1.000  H
  H56      1.0000 0.21350  0.81280  0.67760  Biso   1.000  H
  H57      1.0000 0.27680  0.11480  0.64540  Biso   1.000  H
  H58      1.0000 0.11970  0.23600  0.58300  Biso   1.000  H
  H59      1.0000 0.88530  0.05240  0.57040  Biso   1.000  H
  H60      1.0000 0.04500  0.92580  0.62630  Biso   1.000  H
  H61      1.0000 0.11240  0.17500  0.30670  Biso   1.000  H
  H62      1.0000 0.96560  0.48560  0.30670  Biso   1.000  H
  H63      1.0000 0.37390  0.14560  0.44100  Biso   1.000  H
  H64      1.0000 0.69520  0.00820  0.55420  Biso   1.000  H
  C1       1.0000 0.47730  0.58680  0.08000  Biso   1.000  C
  C2       1.0000 0.46990  0.49960  0.11580  Biso   1.000  C
  C3       1.0000 0.59990  0.43340  0.13640  Biso   1.000  C
  C4       1.0000 0.73600  0.45560  0.11870  Biso   1.000  C
  C5       1.0000 0.73270  0.54300  0.08270  Biso   1.000  C
  C6       1.0000 0.71137  0.27906  0.20020  Biso   1.000  C
  C7       1.0000 0.58374  0.14532  0.21140  Biso   1.000  C
  C8       1.0000 0.68340  0.99360  0.14380  Biso   1.000  C
  C9       1.0000 0.79820  0.89940  0.12970  Biso   1.000  C
  C10      1.0000 0.77560  0.82640  0.09270  Biso   1.000  C
  C11      1.0000 0.53210  0.93500  0.08490  Biso   1.000  C
  C12      1.0000 0.54990  0.01060  0.11930  Biso   1.000  C
  C13      1.0000 0.79750  0.66740  0.89490  Biso   1.000  C
  C14      1.0000 0.85980  0.66940  0.81950  Biso   1.000  C
  C15      1.0000 0.84020  0.76220  0.78400  Biso   1.000  C
  C16      1.0000 0.93580  0.57720  0.78360  Biso   1.000  C
  C17      1.0000 0.26880  0.81500  0.99340  Biso   1.000  C
  C18      1.0000 0.12930  0.91080  0.99750  Biso   1.000  C
  C19      1.0000 0.01220  0.91240  0.96520  Biso   1.000  C
  C20      1.0000 0.12110  0.99800  0.03190  Biso   1.000  C
  C21      1.0000 0.43590  0.58680  0.42000  Biso   1.000  C
  C22      1.0000 0.53050  0.49960  0.38420  Biso   1.000  C
  C23      1.0000 0.46670  0.43340  0.36360  Biso   1.000  C
  C24      1.0000 0.30840  0.45560  0.38130  Biso   1.000  C
  C25      1.0000 0.22430  0.54300  0.41730  Biso   1.000  C
  C26      1.0000 0.50957  0.27906  0.29980  Biso   1.000  C
  C27      1.0000 0.77094  0.14532  0.28860  Biso   1.000  C
  C28      1.0000 0.82300  0.99360  0.35620  Biso   1.000  C
  C29      1.0000 0.80240  0.89940  0.37030  Biso   1.000  C
  C30      1.0000 0.89800  0.82640  0.40730  Biso   1.000  C
  C31      1.0000 0.03290  0.93500  0.41510  Biso   1.000  C
  C32      1.0000 0.93950  0.01060  0.38070  Biso   1.000  C
  C33      1.0000 0.03510  0.66740  0.60510  Biso   1.000  C
  C34      1.0000 0.97080  0.66940  0.68050  Biso   1.000  C
  C35      1.0000 0.89760  0.76220  0.71600  Biso   1.000  C
  C36      1.0000 0.98700  0.57720  0.71640  Biso   1.000  C
  C37      1.0000 0.41620  0.81500  0.50660  Biso   1.000  C
  C38      1.0000 0.45990  0.91080  0.50250  Biso   1.000  C
  C39      1.0000 0.57540  0.91240  0.53480  Biso   1.000  C
  C40      1.0000 0.38090  0.99800  0.46810  Biso   1.000  C
  C41      1.0000 0.52270  0.41320  0.92000  Biso   1.000  C
  C42      1.0000 0.53010  0.50040  0.88420  Biso   1.000  C
  C43      1.0000 0.40010  0.56660  0.86360  Biso   1.000  C
  C44      1.0000 0.26400  0.54440  0.88130  Biso   1.000  C
  C45      1.0000 0.26730  0.45700  0.91730  Biso   1.000  C
  C46      1.0000 0.28863  0.72094  0.79980  Biso   1.000  C
  C47      1.0000 0.41626  0.85468  0.78860  Biso   1.000  C
  C48      1.0000 0.31660  0.00640  0.85620  Biso   1.000  C
  C49      1.0000 0.20180  0.10060  0.87030  Biso   1.000  C
  C50      1.0000 0.22440  0.17360  0.90730  Biso   1.000  C
  C51      1.0000 0.46790  0.06500  0.91510  Biso   1.000  C
  C52      1.0000 0.45010  0.98940  0.88070  Biso   1.000  C
  C53      1.0000 0.20250  0.33260  0.10510  Biso   1.000  C
  C54      1.0000 0.14020  0.33060  0.18050  Biso   1.000  C
  C55      1.0000 0.15980  0.23780  0.21600  Biso   1.000  C
  C56      1.0000 0.06420  0.42280  0.21640  Biso   1.000  C
  C57      1.0000 0.73120  0.18500  0.00660  Biso   1.000  C
  C58      1.0000 0.87070  0.08920  0.00250  Biso   1.000  C
  C59      1.0000 0.98780  0.08760  0.03480  Biso   1.000  C
  C60      1.0000 0.87890  0.00200  0.96810  Biso   1.000  C
  C61      1.0000 0.56410  0.41320  0.58000  Biso   1.000  C
  C62      1.0000 0.46950  0.50040  0.61580  Biso   1.000  C
  C63      1.0000 0.53330  0.56660  0.63640  Biso   1.000  C
  C64      1.0000 0.69160  0.54440  0.61870  Biso   1.000  C
  C65      1.0000 0.77570  0.45700  0.58270  Biso   1.000  C
  C66      1.0000 0.49043  0.72094  0.70020  Biso   1.000  C
  C67      1.0000 0.22906  0.85468  0.71140  Biso   1.000  C
  C68      1.0000 0.17700  0.00640  0.64380  Biso   1.000  C
  C69      1.0000 0.19760  0.10060  0.62970  Biso   1.000  C
  C70      1.0000 0.10200  0.17360  0.59270  Biso   1.000  C
  C71      1.0000 0.96710  0.06500  0.58490  Biso   1.000  C
  C72      1.0000 0.06050  0.98940  0.61930  Biso   1.000  C
  C73      1.0000 0.96490  0.33260  0.39490  Biso   1.000  C
  C74      1.0000 0.02920  0.33060  0.31950  Biso   1.000  C
  C75      1.0000 0.10240  0.23780  0.28400  Biso   1.000  C
  C76      1.0000 0.01300  0.42280  0.28360  Biso   1.000  C
  C77      1.0000 0.58380  0.18500  0.49340  Biso   1.000  C
  C78      1.0000 0.54010  0.08920  0.49750  Biso   1.000  C
  C79      1.0000 0.42460  0.08760  0.46520  Biso   1.000  C
  C80      1.0000 0.61910  0.00200  0.53190  Biso   1.000  C
  C81      1.0000 0.64450  0.21100  0.25000  Biso   1.000  C
  C82      1.0000 0.35550  0.78900  0.75000  Biso   1.000  C
  N1       1.0000 0.60556  0.61008  0.06310  Biso   1.000  N
  N2       1.0000 0.64394  0.84132  0.07010  Biso   1.000  N
  N3       1.0000 0.28436  0.61008  0.43690  Biso   1.000  N
  N4       1.0000 0.01474  0.84132  0.42990  Biso   1.000  N
  N5       1.0000 0.39444  0.38992  0.93690  Biso   1.000  N
  N6       1.0000 0.35606  0.15868  0.92990  Biso   1.000  N
  N7       1.0000 0.71564  0.38992  0.56310  Biso   1.000  N
  N8       1.0000 0.98526  0.15868  0.57010  Biso   1.000  N
  O1       1.0000 0.58191  0.35198  0.17420  Biso   1.000  O
  O2       1.0000 0.71246  0.06308  0.17890  Biso   1.000  O
  O3       1.0000 0.69555  0.75010  0.91940  Biso   1.000  O
  O4       1.0000 0.84790  0.58900  0.92810  Biso   1.000  O
  O5       1.0000 0.37761  0.82658  0.01700  Biso   1.000  O
  O6       1.0000 0.26898  0.73404  0.97150  Biso   1.000  O
  O7       1.0000 0.56611  0.35198  0.32580  Biso   1.000  O
  O8       1.0000 0.72446  0.06308  0.32110  Biso   1.000  O
  O9       1.0000 0.05435  0.75010  0.58060  Biso   1.000  O
  O10      1.0000 0.06310  0.58900  0.57190  Biso   1.000  O
  O11      1.0000 0.29581  0.82658  0.48300  Biso   1.000  O
  O12      1.0000 0.49698  0.73404  0.52850  Biso   1.000  O
  O13      1.0000 0.41809  0.64802  0.82580  Biso   1.000  O
  O14      1.0000 0.28754  0.93692  0.82110  Biso   1.000  O
  O15      1.0000 0.30445  0.24990  0.08060  Biso   1.000  O
  O16      1.0000 0.15210  0.41100  0.07190  Biso   1.000  O
  O17      1.0000 0.62239  0.17342  0.98300  Biso   1.000  O
  O18      1.0000 0.73102  0.26596  0.02850  Biso   1.000  O
  O19      1.0000 0.43389  0.64802  0.67420  Biso   1.000  O
  O20      1.0000 0.27554  0.93692  0.67890  Biso   1.000  O
  O21      1.0000 0.94565  0.24990  0.41940  Biso   1.000  O
  O22      1.0000 0.93690  0.41100  0.42810  Biso   1.000  O
  O23      1.0000 0.70419  0.17342  0.51700  Biso   1.000  O
  O24      1.0000 0.50302  0.26596  0.47150  Biso   1.000  O
