data_image0
_cell_length_a       13.4333
_cell_length_b       13.8493
_cell_length_c       26.7477
_cell_angle_alpha    90
_cell_angle_beta     101.55
_cell_angle_gamma    90

_symmetry_space_group_name_H-M    "P 1"
_symmetry_int_tables_number       1

loop_
  _symmetry_equiv_pos_as_xyz
  'x, y, z'

loop_
  _atom_site_label
  _atom_site_occupancy
  _atom_site_fract_x
  _atom_site_fract_y
  _atom_site_fract_z
  _atom_site_thermal_displace_type
  _atom_site_B_iso_or_equiv
  _atom_site_type_symbol
  Fe1      1.0000 0.47925  0.36603  0.22908  Biso   1.000  Fe
  Fe2      1.0000 0.48841  0.61244  0.25751  Biso   1.000  Fe
  N1       1.0000 0.47040  0.79710  0.69680  Biso   1.000  N
  N2       1.0000 0.49750  0.70170  0.70269  Biso   1.000  N
  N3       1.0000 0.50130  0.67970  0.32583  Biso   1.000  N
  N4       1.0000 0.61450  0.53650  0.25217  Biso   1.000  N
  N5       1.0000 0.60490  0.44650  0.23087  Biso   1.000  N
  N6       1.0000 0.51970  0.77670  0.33012  Biso   1.000  N
  N7       1.0000 0.35120  0.44260  0.22759  Biso   1.000  N
  N8       1.0000 0.36110  0.53320  0.24901  Biso   1.000  N
  C1       1.0000 0.26790  0.56200  0.25456  Biso   1.000  C
  H1       1.0000 0.25350  0.62190  0.26890  Biso   1.000  H
  C2       1.0000 0.19580  0.49130  0.23616  Biso   1.000  C
  C3       1.0000 0.25310  0.41710  0.21996  Biso   1.000  C
  H2       1.0000 0.22620  0.35750  0.20570  Biso   1.000  H
  C4       1.0000 0.08530  0.49280  0.23573  Biso   1.000  C
  C5       1.0000 0.04340  0.56750  0.25957  Biso   1.000  C
  H3       1.0000 0.08570  0.61850  0.27530  Biso   1.000  H
  C6       1.0000 0.94020  0.56830  0.26064  Biso   1.000  C
  H4       1.0000 0.91270  0.61980  0.27700  Biso   1.000  H
  C7       1.0000 0.87670  0.49360  0.23765  Biso   1.000  C
  C8       1.0000 0.91920  0.41930  0.21394  Biso   1.000  C
  H5       1.0000 0.87740  0.36800  0.19830  Biso   1.000  H
  C9       1.0000 0.02260  0.41920  0.21284  Biso   1.000  C
  H6       1.0000 0.05030  0.36810  0.19620  Biso   1.000  H
  C10      1.0000 0.69740  0.42020  0.22255  Biso   1.000  C
  H7       1.0000 0.71240  0.36090  0.20780  Biso   1.000  H
  C11      1.0000 0.76660  0.49320  0.23893  Biso   1.000  C
  C12      1.0000 0.71100  0.56460  0.25706  Biso   1.000  C
  H8       1.0000 0.73750  0.62460  0.27090  Biso   1.000  H
  C13      1.0000 0.48750  0.64660  0.37133  Biso   1.000  C
  H9       1.0000 0.47450  0.58120  0.37860  Biso   1.000  H
  C14      1.0000 0.49510  0.72160  0.40601  Biso   1.000  C
  C15      1.0000 0.51630  0.80230  0.37836  Biso   1.000  C
  H10      1.0000 0.52660  0.86590  0.39170  Biso   1.000  H
  C16      1.0000 0.48540  0.72200  0.45981  Biso   1.000  C
  C17      1.0000 0.51080  0.64250  0.49144  Biso   1.000  C
  H11      1.0000 0.53210  0.58450  0.47780  Biso   1.000  H
  C18      1.0000 0.50560  0.64640  0.54290  Biso   1.000  C
  H12      1.0000 0.52400  0.59130  0.56390  Biso   1.000  H
  C19      1.0000 0.47360  0.73050  0.56401  Biso   1.000  C
  C20      1.0000 0.44370  0.80890  0.53168  Biso   1.000  C
  H13      1.0000 0.41870  0.86580  0.54470  Biso   1.000  H
  C21      1.0000 0.45010  0.80440  0.48103  Biso   1.000  C
  H14      1.0000 0.43000  0.85890  0.45980  Biso   1.000  H
  C22      1.0000 0.45510  0.81790  0.64696  Biso   1.000  C
  H15      1.0000 0.43400  0.87910  0.63260  Biso   1.000  H
  C23      1.0000 0.47450  0.73700  0.61891  Biso   1.000  C
  C24      1.0000 0.50070  0.66590  0.65635  Biso   1.000  C
  H16      1.0000 0.51820  0.60130  0.64990  Biso   1.000  H
  Fe3      1.0000 0.52075  0.86603  0.27092  Biso   1.000  Fe
  Fe4      1.0000 0.51159  0.11244  0.24249  Biso   1.000  Fe
  N9       1.0000 0.52960  0.29710  0.80320  Biso   1.000  N
  N10      1.0000 0.50250  0.20170  0.79731  Biso   1.000  N
  N11      1.0000 0.49870  0.17970  0.17417  Biso   1.000  N
  N12      1.0000 0.38550  0.03650  0.24783  Biso   1.000  N
  N13      1.0000 0.39510  0.94650  0.26913  Biso   1.000  N
  N14      1.0000 0.48030  0.27670  0.16988  Biso   1.000  N
  N15      1.0000 0.64880  0.94260  0.27241  Biso   1.000  N
  N16      1.0000 0.63890  0.03320  0.25099  Biso   1.000  N
  C25      1.0000 0.73210  0.06200  0.24544  Biso   1.000  C
  H17      1.0000 0.74650  0.12190  0.23110  Biso   1.000  H
  C26      1.0000 0.80420  0.99130  0.26384  Biso   1.000  C
  C27      1.0000 0.74690  0.91710  0.28004  Biso   1.000  C
  H18      1.0000 0.77380  0.85750  0.29430  Biso   1.000  H
  C28      1.0000 0.91470  0.99280  0.26427  Biso   1.000  C
  C29      1.0000 0.95660  0.06750  0.24043  Biso   1.000  C
  H19      1.0000 0.91430  0.11850  0.22470  Biso   1.000  H
  C30      1.0000 0.05980  0.06830  0.23936  Biso   1.000  C
  H20      1.0000 0.08730  0.11980  0.22300  Biso   1.000  H
  C31      1.0000 0.12330  0.99360  0.26235  Biso   1.000  C
  C32      1.0000 0.08080  0.91930  0.28606  Biso   1.000  C
  H21      1.0000 0.12260  0.86800  0.30170  Biso   1.000  H
  C33      1.0000 0.97740  0.91920  0.28716  Biso   1.000  C
  H22      1.0000 0.94970  0.86810  0.30380  Biso   1.000  H
  C34      1.0000 0.30260  0.92020  0.27745  Biso   1.000  C
  H23      1.0000 0.28760  0.86090  0.29220  Biso   1.000  H
  C35      1.0000 0.23340  0.99320  0.26107  Biso   1.000  C
  C36      1.0000 0.28900  0.06460  0.24294  Biso   1.000  C
  H24      1.0000 0.26250  0.12460  0.22910  Biso   1.000  H
  C37      1.0000 0.51250  0.14660  0.12867  Biso   1.000  C
  H25      1.0000 0.52550  0.08120  0.12140  Biso   1.000  H
  C38      1.0000 0.50490  0.22160  0.09399  Biso   1.000  C
  C39      1.0000 0.48370  0.30230  0.12164  Biso   1.000  C
  H26      1.0000 0.47340  0.36590  0.10830  Biso   1.000  H
  C40      1.0000 0.51460  0.22200  0.04019  Biso   1.000  C
  C41      1.0000 0.48920  0.14250  0.00856  Biso   1.000  C
  H27      1.0000 0.46790  0.08450  0.02220  Biso   1.000  H
  C42      1.0000 0.49440  0.14640  0.95710  Biso   1.000  C
  H28      1.0000 0.47600  0.09130  0.93610  Biso   1.000  H
  C43      1.0000 0.52640  0.23050  0.93599  Biso   1.000  C
  C44      1.0000 0.55630  0.30890  0.96832  Biso   1.000  C
  H29      1.0000 0.58130  0.36580  0.95530  Biso   1.000  H
  C45      1.0000 0.54990  0.30440  0.01897  Biso   1.000  C
  H30      1.0000 0.57000  0.35890  0.04020  Biso   1.000  H
  C46      1.0000 0.54490  0.31790  0.85304  Biso   1.000  C
  H31      1.0000 0.56600  0.37910  0.86740  Biso   1.000  H
  C47      1.0000 0.52550  0.23700  0.88109  Biso   1.000  C
  C48      1.0000 0.49930  0.16590  0.84365  Biso   1.000  C
  H32      1.0000 0.48180  0.10130  0.85010  Biso   1.000  H
  Fe5      1.0000 0.52075  0.63397  0.77092  Biso   1.000  Fe
  Fe6      1.0000 0.51159  0.38756  0.74249  Biso   1.000  Fe
  N17      1.0000 0.52960  0.20290  0.30320  Biso   1.000  N
  N18      1.0000 0.50250  0.29830  0.29731  Biso   1.000  N
  N19      1.0000 0.49870  0.32030  0.67417  Biso   1.000  N
  N20      1.0000 0.38550  0.46350  0.74783  Biso   1.000  N
  N21      1.0000 0.39510  0.55350  0.76913  Biso   1.000  N
  N22      1.0000 0.48030  0.22330  0.66988  Biso   1.000  N
  N23      1.0000 0.64880  0.55740  0.77241  Biso   1.000  N
  N24      1.0000 0.63890  0.46680  0.75099  Biso   1.000  N
  C49      1.0000 0.73210  0.43800  0.74544  Biso   1.000  C
  H33      1.0000 0.74650  0.37810  0.73110  Biso   1.000  H
  C50      1.0000 0.80420  0.50870  0.76384  Biso   1.000  C
  C51      1.0000 0.74690  0.58290  0.78004  Biso   1.000  C
  H34      1.0000 0.77380  0.64250  0.79430  Biso   1.000  H
  C52      1.0000 0.91470  0.50720  0.76427  Biso   1.000  C
  C53      1.0000 0.95660  0.43250  0.74043  Biso   1.000  C
  H35      1.0000 0.91430  0.38150  0.72470  Biso   1.000  H
  C54      1.0000 0.05980  0.43170  0.73936  Biso   1.000  C
  H36      1.0000 0.08730  0.38020  0.72300  Biso   1.000  H
  C55      1.0000 0.12330  0.50640  0.76235  Biso   1.000  C
  C56      1.0000 0.08080  0.58070  0.78606  Biso   1.000  C
  H37      1.0000 0.12260  0.63200  0.80170  Biso   1.000  H
  C57      1.0000 0.97740  0.58080  0.78716  Biso   1.000  C
  H38      1.0000 0.94970  0.63190  0.80380  Biso   1.000  H
  C58      1.0000 0.30260  0.57980  0.77745  Biso   1.000  C
  H39      1.0000 0.28760  0.63910  0.79220  Biso   1.000  H
  C59      1.0000 0.23340  0.50680  0.76107  Biso   1.000  C
  C60      1.0000 0.28900  0.43540  0.74294  Biso   1.000  C
  H40      1.0000 0.26250  0.37540  0.72910  Biso   1.000  H
  C61      1.0000 0.51250  0.35340  0.62867  Biso   1.000  C
  H41      1.0000 0.52550  0.41880  0.62140  Biso   1.000  H
  C62      1.0000 0.50490  0.27840  0.59399  Biso   1.000  C
  C63      1.0000 0.48370  0.19770  0.62164  Biso   1.000  C
  H42      1.0000 0.47340  0.13410  0.60830  Biso   1.000  H
  C64      1.0000 0.51460  0.27800  0.54019  Biso   1.000  C
  C65      1.0000 0.48920  0.35750  0.50856  Biso   1.000  C
  H43      1.0000 0.46790  0.41550  0.52220  Biso   1.000  H
  C66      1.0000 0.49440  0.35360  0.45710  Biso   1.000  C
  H44      1.0000 0.47600  0.40870  0.43610  Biso   1.000  H
  C67      1.0000 0.52640  0.26950  0.43599  Biso   1.000  C
  C68      1.0000 0.55630  0.19110  0.46832  Biso   1.000  C
  H45      1.0000 0.58130  0.13420  0.45530  Biso   1.000  H
  C69      1.0000 0.54990  0.19560  0.51897  Biso   1.000  C
  H46      1.0000 0.57000  0.14110  0.54020  Biso   1.000  H
  C70      1.0000 0.54490  0.18210  0.35304  Biso   1.000  C
  H47      1.0000 0.56600  0.12090  0.36740  Biso   1.000  H
  C71      1.0000 0.52550  0.26300  0.38109  Biso   1.000  C
  C72      1.0000 0.49930  0.33410  0.34365  Biso   1.000  C
  H48      1.0000 0.48180  0.39870  0.35010  Biso   1.000  H
  Fe7      1.0000 0.47925  0.13397  0.72908  Biso   1.000  Fe
  Fe8      1.0000 0.48841  0.88756  0.75751  Biso   1.000  Fe
  N25      1.0000 0.47040  0.70290  0.19680  Biso   1.000  N
  N26      1.0000 0.49750  0.79830  0.20269  Biso   1.000  N
  N27      1.0000 0.50130  0.82030  0.82583  Biso   1.000  N
  N28      1.0000 0.61450  0.96350  0.75217  Biso   1.000  N
  N29      1.0000 0.60490  0.05350  0.73087  Biso   1.000  N
  N30      1.0000 0.51970  0.72330  0.83012  Biso   1.000  N
  N31      1.0000 0.35120  0.05740  0.72759  Biso   1.000  N
  N32      1.0000 0.36110  0.96680  0.74901  Biso   1.000  N
  C73      1.0000 0.26790  0.93800  0.75456  Biso   1.000  C
  H49      1.0000 0.25350  0.87810  0.76890  Biso   1.000  H
  C74      1.0000 0.19580  0.00870  0.73616  Biso   1.000  C
  C75      1.0000 0.25310  0.08290  0.71996  Biso   1.000  C
  H50      1.0000 0.22620  0.14250  0.70570  Biso   1.000  H
  C76      1.0000 0.08530  0.00720  0.73573  Biso   1.000  C
  C77      1.0000 0.04340  0.93250  0.75957  Biso   1.000  C
  H51      1.0000 0.08570  0.88150  0.77530  Biso   1.000  H
  C78      1.0000 0.94020  0.93170  0.76064  Biso   1.000  C
  H52      1.0000 0.91270  0.88020  0.77700  Biso   1.000  H
  C79      1.0000 0.87670  0.00640  0.73765  Biso   1.000  C
  C80      1.0000 0.91920  0.08070  0.71394  Biso   1.000  C
  H53      1.0000 0.87740  0.13200  0.69830  Biso   1.000  H
  C81      1.0000 0.02260  0.08080  0.71284  Biso   1.000  C
  H54      1.0000 0.05030  0.13190  0.69620  Biso   1.000  H
  C82      1.0000 0.69740  0.07980  0.72255  Biso   1.000  C
  H55      1.0000 0.71240  0.13910  0.70780  Biso   1.000  H
  C83      1.0000 0.76660  0.00680  0.73893  Biso   1.000  C
  C84      1.0000 0.71100  0.93540  0.75706  Biso   1.000  C
  H56      1.0000 0.73750  0.87540  0.77090  Biso   1.000  H
  C85      1.0000 0.48750  0.85340  0.87133  Biso   1.000  C
  H57      1.0000 0.47450  0.91880  0.87860  Biso   1.000  H
  C86      1.0000 0.49510  0.77840  0.90601  Biso   1.000  C
  C87      1.0000 0.51630  0.69770  0.87836  Biso   1.000  C
  H58      1.0000 0.52660  0.63410  0.89170  Biso   1.000  H
  C88      1.0000 0.48540  0.77800  0.95981  Biso   1.000  C
  C89      1.0000 0.51080  0.85750  0.99144  Biso   1.000  C
  H59      1.0000 0.53210  0.91550  0.97780  Biso   1.000  H
  C90      1.0000 0.50560  0.85360  0.04290  Biso   1.000  C
  H60      1.0000 0.52400  0.90870  0.06390  Biso   1.000  H
  C91      1.0000 0.47360  0.76950  0.06401  Biso   1.000  C
  C92      1.0000 0.44370  0.69110  0.03168  Biso   1.000  C
  H61      1.0000 0.41870  0.63420  0.04470  Biso   1.000  H
  C93      1.0000 0.45010  0.69560  0.98103  Biso   1.000  C
  H62      1.0000 0.43000  0.64110  0.95980  Biso   1.000  H
  C94      1.0000 0.45510  0.68210  0.14696  Biso   1.000  C
  H63      1.0000 0.43400  0.62090  0.13260  Biso   1.000  H
  C95      1.0000 0.47450  0.76300  0.11891  Biso   1.000  C
  C96      1.0000 0.50070  0.83410  0.15635  Biso   1.000  C
  H64      1.0000 0.51820  0.89870  0.14990  Biso   1.000  H
