data_image0
_cell_length_a       5.8595
_cell_length_b       11.5382
_cell_length_c       11.5382
_cell_angle_alpha    94.1091
_cell_angle_beta     101.721
_cell_angle_gamma    78.2792

_symmetry_space_group_name_H-M    P 1
_symmetry_int_tables_number       1

loop_
  _symmetry_equiv_pos_as_xyz
  'x, y, z'

loop_
  _atom_site_label
  _atom_site_occupancy
  _atom_site_fract_x
  _atom_site_fract_y
  _atom_site_fract_z
  _atom_site_thermal_displace_type
  _atom_site_B_iso_or_equiv
  _atom_site_type_symbol
  Cu1      1.0000 0.85151  0.26013  0.99107  Biso   1.000  Cu
  Cu2      1.0000 0.64849  0.99107  0.26013  Biso   1.000  Cu
  Cu3      1.0000 0.14849  0.73987  0.00893  Biso   1.000  Cu
  Cu4      1.0000 0.35151  0.00893  0.73987  Biso   1.000  Cu
  Cu5      1.0000 0.75000  0.99122  0.99122  Biso   1.000  Cu
  Cu6      1.0000 0.25000  0.00878  0.00878  Biso   1.000  Cu
  H1       1.0000 0.92750  0.09510  0.86150  Biso   1.000  H
  H2       1.0000 0.84180  0.45850  0.73670  Biso   1.000  H
  H3       1.0000 0.16600  0.30520  0.75740  Biso   1.000  H
  H4       1.0000 0.57250  0.86150  0.09510  Biso   1.000  H
  H5       1.0000 0.65820  0.73670  0.45850  Biso   1.000  H
  H6       1.0000 0.33400  0.75740  0.30520  Biso   1.000  H
  H7       1.0000 0.07250  0.90490  0.13850  Biso   1.000  H
  H8       1.0000 0.15820  0.54150  0.26330  Biso   1.000  H
  H9       1.0000 0.83400  0.69480  0.24260  Biso   1.000  H
  H10      1.0000 0.42750  0.13850  0.90490  Biso   1.000  H
  H11      1.0000 0.34180  0.26330  0.54150  Biso   1.000  H
  H12      1.0000 0.66600  0.24260  0.69480  Biso   1.000  H
  C1       1.0000 0.78660  0.66600  0.86160  Biso   1.000  C
  C2       1.0000 0.99530  0.56500  0.86280  Biso   1.000  C
  C3       1.0000 0.97930  0.46430  0.79170  Biso   1.000  C
  C4       1.0000 0.17260  0.37360  0.80480  Biso   1.000  C
  C5       1.0000 0.38030  0.38100  0.88820  Biso   1.000  C
  C6       1.0000 0.39420  0.48911  0.95593  Biso   1.000  C
  C7       1.0000 0.71340  0.86160  0.66600  Biso   1.000  C
  C8       1.0000 0.50470  0.86280  0.56500  Biso   1.000  C
  C9       1.0000 0.52070  0.79170  0.46430  Biso   1.000  C
  C10      1.0000 0.32740  0.80480  0.37360  Biso   1.000  C
  C11      1.0000 0.11970  0.88820  0.38100  Biso   1.000  C
  C12      1.0000 0.10580  0.95593  0.48911  Biso   1.000  C
  C13      1.0000 0.21340  0.33400  0.13840  Biso   1.000  C
  C14      1.0000 0.00470  0.43500  0.13720  Biso   1.000  C
  C15      1.0000 0.02070  0.53570  0.20830  Biso   1.000  C
  C16      1.0000 0.82740  0.62640  0.19520  Biso   1.000  C
  C17      1.0000 0.61970  0.61900  0.11180  Biso   1.000  C
  C18      1.0000 0.60580  0.51089  0.04407  Biso   1.000  C
  C19      1.0000 0.28660  0.13840  0.33400  Biso   1.000  C
  C20      1.0000 0.49530  0.13720  0.43500  Biso   1.000  C
  C21      1.0000 0.47930  0.20830  0.53570  Biso   1.000  C
  C22      1.0000 0.67260  0.19520  0.62640  Biso   1.000  C
  C23      1.0000 0.88030  0.11180  0.61900  Biso   1.000  C
  C24      1.0000 0.89420  0.04407  0.51089  Biso   1.000  C
  N1       1.0000 0.19640  0.57731  0.93973  Biso   1.000  N
  N2       1.0000 0.30360  0.93973  0.57731  Biso   1.000  N
  N3       1.0000 0.80360  0.42269  0.06027  Biso   1.000  N
  N4       1.0000 0.69640  0.06027  0.42269  Biso   1.000  N
  O1       1.0000 0.93320  0.09251  0.93299  Biso   1.000  O
  O2       1.0000 0.82290  0.75292  0.93330  Biso   1.000  O
  O3       1.0000 0.59390  0.65902  0.79692  Biso   1.000  O
  O4       1.0000 0.54700  0.28380  0.89750  Biso   1.000  O
  O5       1.0000 0.56680  0.93299  0.09251  Biso   1.000  O
  O6       1.0000 0.67710  0.93330  0.75292  Biso   1.000  O
  O7       1.0000 0.90610  0.79692  0.65902  Biso   1.000  O
  O8       1.0000 0.95300  0.89750  0.28380  Biso   1.000  O
  O9       1.0000 0.06680  0.90749  0.06701  Biso   1.000  O
  O10      1.0000 0.17710  0.24708  0.06670  Biso   1.000  O
  O11      1.0000 0.40610  0.34098  0.20308  Biso   1.000  O
  O12      1.0000 0.45300  0.71620  0.10250  Biso   1.000  O
  O13      1.0000 0.43320  0.06701  0.90749  Biso   1.000  O
  O14      1.0000 0.32290  0.06670  0.24708  Biso   1.000  O
  O15      1.0000 0.09390  0.20308  0.34098  Biso   1.000  O
  O16      1.0000 0.04700  0.10250  0.71620  Biso   1.000  O
