data_image0
_cell_length_a       18.8226
_cell_length_b       18.6427
_cell_length_c       14.2485
_cell_angle_alpha    90
_cell_angle_beta     130.175
_cell_angle_gamma    90

_symmetry_space_group_name_H-M    "P 1"
_symmetry_int_tables_number       1

loop_
  _symmetry_equiv_pos_as_xyz
  'x, y, z'

loop_
  _atom_site_label
  _atom_site_occupancy
  _atom_site_fract_x
  _atom_site_fract_y
  _atom_site_fract_z
  _atom_site_thermal_displace_type
  _atom_site_B_iso_or_equiv
  _atom_site_type_symbol
  C1       1.0000 0.68590  0.33870  0.11750  Biso   1.000  C
  C2       1.0000 0.68970  0.31690  0.02770  Biso   1.000  C
  H1       1.0000 0.65250  0.33980  0.95190  Biso   1.000  H
  C3       1.0000 0.74790  0.26130  0.04860  Biso   1.000  C
  C4       1.0000 0.80070  0.22850  0.16180  Biso   1.000  C
  H2       1.0000 0.84130  0.19210  0.17870  Biso   1.000  H
  C5       1.0000 0.79590  0.24720  0.25110  Biso   1.000  C
  C6       1.0000 0.73870  0.30400  0.22940  Biso   1.000  C
  H3       1.0000 0.73620  0.31840  0.28970  Biso   1.000  H
  C7       1.0000 0.62190  0.39920  0.08780  Biso   1.000  C
  C8       1.0000 0.85600  0.20670  0.37150  Biso   1.000  C
  C9       1.0000 0.53580  0.44270  0.33060  Biso   1.000  C
  N1       1.0000 0.52770  0.46210  0.41250  Biso   1.000  N
  N2       1.0000 0.53900  0.37420  0.30420  Biso   1.000  N
  H4       1.0000 0.53560  0.33990  0.34140  Biso   1.000  H
  H5       1.0000 0.54440  0.36470  0.24990  Biso   1.000  H
  O1       1.0000 0.62100  0.42050  0.17030  Biso   1.000  O
  O2       1.0000 0.57360  0.42430  0.98220  Biso   1.000  O
  O3       1.0000 0.85600  0.22050  0.45520  Biso   1.000  O
  O4       1.0000 0.90040  0.15660  0.37330  Biso   1.000  O
  C10      1.0000 0.18590  0.83870  0.11750  Biso   1.000  C
  C11      1.0000 0.18970  0.81690  0.02770  Biso   1.000  C
  H6       1.0000 0.15250  0.83980  0.95190  Biso   1.000  H
  C12      1.0000 0.24790  0.76130  0.04860  Biso   1.000  C
  C13      1.0000 0.30070  0.72850  0.16180  Biso   1.000  C
  H7       1.0000 0.34130  0.69210  0.17870  Biso   1.000  H
  C14      1.0000 0.29590  0.74720  0.25110  Biso   1.000  C
  C15      1.0000 0.23870  0.80400  0.22940  Biso   1.000  C
  H8       1.0000 0.23620  0.81840  0.28970  Biso   1.000  H
  C16      1.0000 0.12190  0.89920  0.08780  Biso   1.000  C
  C17      1.0000 0.35600  0.70670  0.37150  Biso   1.000  C
  C18      1.0000 0.03580  0.94270  0.33060  Biso   1.000  C
  N3       1.0000 0.02770  0.96210  0.41250  Biso   1.000  N
  N4       1.0000 0.03900  0.87420  0.30420  Biso   1.000  N
  H9       1.0000 0.03560  0.83990  0.34140  Biso   1.000  H
  H10      1.0000 0.04440  0.86470  0.24990  Biso   1.000  H
  O5       1.0000 0.12100  0.92050  0.17030  Biso   1.000  O
  O6       1.0000 0.07360  0.92430  0.98220  Biso   1.000  O
  O7       1.0000 0.35600  0.72050  0.45520  Biso   1.000  O
  O8       1.0000 0.40040  0.65660  0.37330  Biso   1.000  O
  C19      1.0000 0.31410  0.33870  0.88250  Biso   1.000  C
  C20      1.0000 0.31030  0.31690  0.97230  Biso   1.000  C
  H11      1.0000 0.34750  0.33980  0.04810  Biso   1.000  H
  C21      1.0000 0.25210  0.26130  0.95140  Biso   1.000  C
  C22      1.0000 0.19930  0.22850  0.83820  Biso   1.000  C
  H12      1.0000 0.15870  0.19210  0.82130  Biso   1.000  H
  C23      1.0000 0.20410  0.24720  0.74890  Biso   1.000  C
  C24      1.0000 0.26130  0.30400  0.77060  Biso   1.000  C
  H13      1.0000 0.26380  0.31840  0.71030  Biso   1.000  H
  C25      1.0000 0.37810  0.39920  0.91220  Biso   1.000  C
  C26      1.0000 0.14400  0.20670  0.62850  Biso   1.000  C
  C27      1.0000 0.46420  0.44270  0.66940  Biso   1.000  C
  N5       1.0000 0.47230  0.46210  0.58750  Biso   1.000  N
  N6       1.0000 0.46100  0.37420  0.69580  Biso   1.000  N
  H14      1.0000 0.46440  0.33990  0.65860  Biso   1.000  H
  H15      1.0000 0.45560  0.36470  0.75010  Biso   1.000  H
  O9       1.0000 0.37900  0.42050  0.82970  Biso   1.000  O
  O10      1.0000 0.42640  0.42430  0.01780  Biso   1.000  O
  O11      1.0000 0.14400  0.22050  0.54480  Biso   1.000  O
  O12      1.0000 0.09960  0.15660  0.62670  Biso   1.000  O
  C28      1.0000 0.81410  0.83870  0.88250  Biso   1.000  C
  C29      1.0000 0.81030  0.81690  0.97230  Biso   1.000  C
  H16      1.0000 0.84750  0.83980  0.04810  Biso   1.000  H
  C30      1.0000 0.75210  0.76130  0.95140  Biso   1.000  C
  C31      1.0000 0.69930  0.72850  0.83820  Biso   1.000  C
  H17      1.0000 0.65870  0.69210  0.82130  Biso   1.000  H
  C32      1.0000 0.70410  0.74720  0.74890  Biso   1.000  C
  C33      1.0000 0.76130  0.80400  0.77060  Biso   1.000  C
  H18      1.0000 0.76380  0.81840  0.71030  Biso   1.000  H
  C34      1.0000 0.87810  0.89920  0.91220  Biso   1.000  C
  C35      1.0000 0.64400  0.70670  0.62850  Biso   1.000  C
  C36      1.0000 0.96420  0.94270  0.66940  Biso   1.000  C
  N7       1.0000 0.97230  0.96210  0.58750  Biso   1.000  N
  N8       1.0000 0.96100  0.87420  0.69580  Biso   1.000  N
  H19      1.0000 0.96440  0.83990  0.65860  Biso   1.000  H
  H20      1.0000 0.95560  0.86470  0.75010  Biso   1.000  H
  O13      1.0000 0.87900  0.92050  0.82970  Biso   1.000  O
  O14      1.0000 0.92640  0.92430  0.01780  Biso   1.000  O
  O15      1.0000 0.64400  0.72050  0.54480  Biso   1.000  O
  O16      1.0000 0.59960  0.65660  0.62670  Biso   1.000  O
  C37      1.0000 0.31410  0.66130  0.88250  Biso   1.000  C
  C38      1.0000 0.31030  0.68310  0.97230  Biso   1.000  C
  H21      1.0000 0.34750  0.66020  0.04810  Biso   1.000  H
  C39      1.0000 0.25210  0.73870  0.95140  Biso   1.000  C
  C40      1.0000 0.19930  0.77150  0.83820  Biso   1.000  C
  H22      1.0000 0.15870  0.80790  0.82130  Biso   1.000  H
  C41      1.0000 0.20410  0.75280  0.74890  Biso   1.000  C
  C42      1.0000 0.26130  0.69600  0.77060  Biso   1.000  C
  H23      1.0000 0.26380  0.68160  0.71030  Biso   1.000  H
  C43      1.0000 0.37810  0.60080  0.91220  Biso   1.000  C
  C44      1.0000 0.14400  0.79330  0.62850  Biso   1.000  C
  C45      1.0000 0.46420  0.55730  0.66940  Biso   1.000  C
  N9       1.0000 0.47230  0.53790  0.58750  Biso   1.000  N
  N10      1.0000 0.46100  0.62580  0.69580  Biso   1.000  N
  H24      1.0000 0.46440  0.66010  0.65860  Biso   1.000  H
  H25      1.0000 0.45560  0.63530  0.75010  Biso   1.000  H
  O17      1.0000 0.37900  0.57950  0.82970  Biso   1.000  O
  O18      1.0000 0.42640  0.57570  0.01780  Biso   1.000  O
  O19      1.0000 0.14400  0.77950  0.54480  Biso   1.000  O
  O20      1.0000 0.09960  0.84340  0.62670  Biso   1.000  O
  C46      1.0000 0.81410  0.16130  0.88250  Biso   1.000  C
  C47      1.0000 0.81030  0.18310  0.97230  Biso   1.000  C
  H26      1.0000 0.84750  0.16020  0.04810  Biso   1.000  H
  C48      1.0000 0.75210  0.23870  0.95140  Biso   1.000  C
  C49      1.0000 0.69930  0.27150  0.83820  Biso   1.000  C
  H27      1.0000 0.65870  0.30790  0.82130  Biso   1.000  H
  C50      1.0000 0.70410  0.25280  0.74890  Biso   1.000  C
  C51      1.0000 0.76130  0.19600  0.77060  Biso   1.000  C
  H28      1.0000 0.76380  0.18160  0.71030  Biso   1.000  H
  C52      1.0000 0.87810  0.10080  0.91220  Biso   1.000  C
  C53      1.0000 0.64400  0.29330  0.62850  Biso   1.000  C
  C54      1.0000 0.96420  0.05730  0.66940  Biso   1.000  C
  N11      1.0000 0.97230  0.03790  0.58750  Biso   1.000  N
  N12      1.0000 0.96100  0.12580  0.69580  Biso   1.000  N
  H29      1.0000 0.96440  0.16010  0.65860  Biso   1.000  H
  H30      1.0000 0.95560  0.13530  0.75010  Biso   1.000  H
  O21      1.0000 0.87900  0.07950  0.82970  Biso   1.000  O
  O22      1.0000 0.92640  0.07570  0.01780  Biso   1.000  O
  O23      1.0000 0.64400  0.27950  0.54480  Biso   1.000  O
  O24      1.0000 0.59960  0.34340  0.62670  Biso   1.000  O
  C55      1.0000 0.68590  0.66130  0.11750  Biso   1.000  C
  C56      1.0000 0.68970  0.68310  0.02770  Biso   1.000  C
  H31      1.0000 0.65250  0.66020  0.95190  Biso   1.000  H
  C57      1.0000 0.74790  0.73870  0.04860  Biso   1.000  C
  C58      1.0000 0.80070  0.77150  0.16180  Biso   1.000  C
  H32      1.0000 0.84130  0.80790  0.17870  Biso   1.000  H
  C59      1.0000 0.79590  0.75280  0.25110  Biso   1.000  C
  C60      1.0000 0.73870  0.69600  0.22940  Biso   1.000  C
  H33      1.0000 0.73620  0.68160  0.28970  Biso   1.000  H
  C61      1.0000 0.62190  0.60080  0.08780  Biso   1.000  C
  C62      1.0000 0.85600  0.79330  0.37150  Biso   1.000  C
  C63      1.0000 0.53580  0.55730  0.33060  Biso   1.000  C
  N13      1.0000 0.52770  0.53790  0.41250  Biso   1.000  N
  N14      1.0000 0.53900  0.62580  0.30420  Biso   1.000  N
  H34      1.0000 0.53560  0.66010  0.34140  Biso   1.000  H
  H35      1.0000 0.54440  0.63530  0.24990  Biso   1.000  H
  O25      1.0000 0.62100  0.57950  0.17030  Biso   1.000  O
  O26      1.0000 0.57360  0.57570  0.98220  Biso   1.000  O
  O27      1.0000 0.85600  0.77950  0.45520  Biso   1.000  O
  O28      1.0000 0.90040  0.84340  0.37330  Biso   1.000  O
  C64      1.0000 0.18590  0.16130  0.11750  Biso   1.000  C
  C65      1.0000 0.18970  0.18310  0.02770  Biso   1.000  C
  H36      1.0000 0.15250  0.16020  0.95190  Biso   1.000  H
  C66      1.0000 0.24790  0.23870  0.04860  Biso   1.000  C
  C67      1.0000 0.30070  0.27150  0.16180  Biso   1.000  C
  H37      1.0000 0.34130  0.30790  0.17870  Biso   1.000  H
  C68      1.0000 0.29590  0.25280  0.25110  Biso   1.000  C
  C69      1.0000 0.23870  0.19600  0.22940  Biso   1.000  C
  H38      1.0000 0.23620  0.18160  0.28970  Biso   1.000  H
  C70      1.0000 0.12190  0.10080  0.08780  Biso   1.000  C
  C71      1.0000 0.35600  0.29330  0.37150  Biso   1.000  C
  C72      1.0000 0.03580  0.05730  0.33060  Biso   1.000  C
  N15      1.0000 0.02770  0.03790  0.41250  Biso   1.000  N
  N16      1.0000 0.03900  0.12580  0.30420  Biso   1.000  N
  H39      1.0000 0.03560  0.16010  0.34140  Biso   1.000  H
  H40      1.0000 0.04440  0.13530  0.24990  Biso   1.000  H
  O29      1.0000 0.12100  0.07950  0.17030  Biso   1.000  O
  O30      1.0000 0.07360  0.07570  0.98220  Biso   1.000  O
  O31      1.0000 0.35600  0.27950  0.45520  Biso   1.000  O
  O32      1.0000 0.40040  0.34340  0.37330  Biso   1.000  O
  Zn1      1.0000 0.52995  0.50000  0.12682  Biso   1.000  Zn
  N17      1.0000 0.53980  0.50000  0.27570  Biso   1.000  N
  Zn2      1.0000 0.02995  0.00000  0.12682  Biso   1.000  Zn
  N18      1.0000 0.03980  0.00000  0.27570  Biso   1.000  N
  Zn3      1.0000 0.47005  0.50000  0.87318  Biso   1.000  Zn
  N19      1.0000 0.46020  0.50000  0.72430  Biso   1.000  N
  Zn4      1.0000 0.97005  0.00000  0.87318  Biso   1.000  Zn
  N20      1.0000 0.96020  0.00000  0.72430  Biso   1.000  N
  Zn5      1.0000 0.00000  0.09694  0.50000  Biso   1.000  Zn
  Zn6      1.0000 0.50000  0.59694  0.50000  Biso   1.000  Zn
  Zn7      1.0000 0.00000  0.90306  0.50000  Biso   1.000  Zn
  Zn8      1.0000 0.50000  0.40306  0.50000  Biso   1.000  Zn
