data_image0
_cell_length_a       12.5566
_cell_length_b       12.5566
_cell_length_c       25.085
_cell_angle_alpha    90
_cell_angle_beta     90
_cell_angle_gamma    95.0511

_symmetry_space_group_name_H-M    P 1
_symmetry_int_tables_number       1

loop_
  _symmetry_equiv_pos_as_xyz
  'x, y, z'

loop_
  _atom_site_label
  _atom_site_occupancy
  _atom_site_fract_x
  _atom_site_fract_y
  _atom_site_fract_z
  _atom_site_thermal_displace_type
  _atom_site_B_iso_or_equiv
  _atom_site_type_symbol
  Zn1      1.0000 0.75000  0.75000  0.16248  Biso   1.000  Zn
  Zn2      1.0000 0.75000  0.75000  0.66248  Biso   1.000  Zn
  H1       1.0000 0.13480  0.62400  0.82640  Biso   1.000  H
  H2       1.0000 0.99990  0.64430  0.76480  Biso   1.000  H
  H3       1.0000 0.98860  0.94960  0.80930  Biso   1.000  H
  H4       1.0000 0.12290  0.92370  0.87330  Biso   1.000  H
  H5       1.0000 0.41480  0.88100  0.97320  Biso   1.000  H
  H6       1.0000 0.54470  0.85570  0.03770  Biso   1.000  H
  H7       1.0000 0.45020  0.54300  0.04130  Biso   1.000  H
  H8       1.0000 0.31840  0.57120  0.97760  Biso   1.000  H
  H9       1.0000 0.36520  0.87600  0.82640  Biso   1.000  H
  H10      1.0000 0.50010  0.85570  0.76480  Biso   1.000  H
  H11      1.0000 0.51140  0.55040  0.80930  Biso   1.000  H
  H12      1.0000 0.37710  0.57630  0.87330  Biso   1.000  H
  H13      1.0000 0.08520  0.61900  0.97320  Biso   1.000  H
  H14      1.0000 0.95530  0.64430  0.03770  Biso   1.000  H
  H15      1.0000 0.04980  0.95700  0.04130  Biso   1.000  H
  H16      1.0000 0.18160  0.92880  0.97760  Biso   1.000  H
  H17      1.0000 0.62400  0.13480  0.32640  Biso   1.000  H
  H18      1.0000 0.64430  0.99990  0.26480  Biso   1.000  H
  H19      1.0000 0.94960  0.98860  0.30930  Biso   1.000  H
  H20      1.0000 0.92370  0.12290  0.37330  Biso   1.000  H
  H21      1.0000 0.88100  0.41480  0.47320  Biso   1.000  H
  H22      1.0000 0.85570  0.54470  0.53770  Biso   1.000  H
  H23      1.0000 0.54300  0.45020  0.54130  Biso   1.000  H
  H24      1.0000 0.57120  0.31840  0.47760  Biso   1.000  H
  H25      1.0000 0.87600  0.36520  0.32640  Biso   1.000  H
  H26      1.0000 0.85570  0.50010  0.26480  Biso   1.000  H
  H27      1.0000 0.55040  0.51140  0.30930  Biso   1.000  H
  H28      1.0000 0.57630  0.37710  0.37330  Biso   1.000  H
  H29      1.0000 0.61900  0.08520  0.47320  Biso   1.000  H
  H30      1.0000 0.64430  0.95530  0.53770  Biso   1.000  H
  H31      1.0000 0.95700  0.04980  0.54130  Biso   1.000  H
  H32      1.0000 0.92880  0.18160  0.47760  Biso   1.000  H
  Pd1      1.0000 0.25000  0.75000  0.91192  Biso   1.000  Pd
  Pd2      1.0000 0.75000  0.25000  0.41192  Biso   1.000  Pd
  C1       1.0000 0.09770  0.86690  0.85030  Biso   1.000  C
  C2       1.0000 0.01760  0.88260  0.81220  Biso   1.000  C
  C3       1.0000 0.98300  0.79860  0.77910  Biso   1.000  C
  C4       1.0000 0.89830  0.81390  0.73760  Biso   1.000  C
  C5       1.0000 0.02540  0.70360  0.78620  Biso   1.000  C
  C6       1.0000 0.10480  0.69060  0.82320  Biso   1.000  C
  C7       1.0000 0.36640  0.62920  0.98930  Biso   1.000  C
  C8       1.0000 0.44380  0.61280  0.02780  Biso   1.000  C
  C9       1.0000 0.51160  0.69880  0.04640  Biso   1.000  C
  C10      1.0000 0.49910  0.79610  0.02570  Biso   1.000  C
  C11      1.0000 0.42290  0.81150  0.98660  Biso   1.000  C
  C12      1.0000 0.59590  0.68170  0.08590  Biso   1.000  C
  C13      1.0000 0.40230  0.63310  0.85030  Biso   1.000  C
  C14      1.0000 0.48240  0.61740  0.81220  Biso   1.000  C
  C15      1.0000 0.51700  0.70140  0.77910  Biso   1.000  C
  C16      1.0000 0.60170  0.68610  0.73760  Biso   1.000  C
  C17      1.0000 0.47460  0.79640  0.78620  Biso   1.000  C
  C18      1.0000 0.39520  0.80940  0.82320  Biso   1.000  C
  C19      1.0000 0.13360  0.87080  0.98930  Biso   1.000  C
  C20      1.0000 0.05620  0.88720  0.02780  Biso   1.000  C
  C21      1.0000 0.98840  0.80120  0.04640  Biso   1.000  C
  C22      1.0000 0.00090  0.70390  0.02570  Biso   1.000  C
  C23      1.0000 0.07710  0.68850  0.98660  Biso   1.000  C
  C24      1.0000 0.90410  0.81830  0.08590  Biso   1.000  C
  C25      1.0000 0.86690  0.09770  0.35030  Biso   1.000  C
  C26      1.0000 0.88260  0.01760  0.31220  Biso   1.000  C
  C27      1.0000 0.79860  0.98300  0.27910  Biso   1.000  C
  C28      1.0000 0.81390  0.89830  0.23760  Biso   1.000  C
  C29      1.0000 0.70360  0.02540  0.28620  Biso   1.000  C
  C30      1.0000 0.69060  0.10480  0.32320  Biso   1.000  C
  C31      1.0000 0.62920  0.36640  0.48930  Biso   1.000  C
  C32      1.0000 0.61280  0.44380  0.52780  Biso   1.000  C
  C33      1.0000 0.69880  0.51160  0.54640  Biso   1.000  C
  C34      1.0000 0.79610  0.49910  0.52570  Biso   1.000  C
  C35      1.0000 0.81150  0.42290  0.48660  Biso   1.000  C
  C36      1.0000 0.68170  0.59590  0.58590  Biso   1.000  C
  C37      1.0000 0.63310  0.40230  0.35030  Biso   1.000  C
  C38      1.0000 0.61740  0.48240  0.31220  Biso   1.000  C
  C39      1.0000 0.70140  0.51700  0.27910  Biso   1.000  C
  C40      1.0000 0.68610  0.60170  0.23760  Biso   1.000  C
  C41      1.0000 0.79640  0.47460  0.28620  Biso   1.000  C
  C42      1.0000 0.80940  0.39520  0.32320  Biso   1.000  C
  C43      1.0000 0.87080  0.13360  0.48930  Biso   1.000  C
  C44      1.0000 0.88720  0.05620  0.52780  Biso   1.000  C
  C45      1.0000 0.80120  0.98840  0.54640  Biso   1.000  C
  C46      1.0000 0.70390  0.00090  0.52570  Biso   1.000  C
  C47      1.0000 0.68850  0.07710  0.48660  Biso   1.000  C
  C48      1.0000 0.81830  0.90410  0.58590  Biso   1.000  C
  N1       1.0000 0.35940  0.72760  0.96880  Biso   1.000  N
  N2       1.0000 0.13910  0.77250  0.85420  Biso   1.000  N
  N3       1.0000 0.14060  0.77240  0.96880  Biso   1.000  N
  N4       1.0000 0.36090  0.72750  0.85420  Biso   1.000  N
  N5       1.0000 0.72760  0.35940  0.46880  Biso   1.000  N
  N6       1.0000 0.77250  0.13910  0.35420  Biso   1.000  N
  N7       1.0000 0.77240  0.14060  0.46880  Biso   1.000  N
  N8       1.0000 0.72750  0.36090  0.35420  Biso   1.000  N
  O1       1.0000 0.87670  0.73650  0.70730  Biso   1.000  O
  O2       1.0000 0.85850  0.89790  0.73660  Biso   1.000  O
  O3       1.0000 0.62630  0.75970  0.11520  Biso   1.000  O
  O4       1.0000 0.63460  0.59200  0.08770  Biso   1.000  O
  O5       1.0000 0.62330  0.76350  0.70730  Biso   1.000  O
  O6       1.0000 0.64150  0.60210  0.73660  Biso   1.000  O
  O7       1.0000 0.87370  0.74030  0.11520  Biso   1.000  O
  O8       1.0000 0.86540  0.90800  0.08770  Biso   1.000  O
  O9       1.0000 0.73650  0.87670  0.20730  Biso   1.000  O
  O10      1.0000 0.89790  0.85850  0.23660  Biso   1.000  O
  O11      1.0000 0.75970  0.62630  0.61520  Biso   1.000  O
  O12      1.0000 0.59200  0.63460  0.58770  Biso   1.000  O
  O13      1.0000 0.76350  0.62330  0.20730  Biso   1.000  O
  O14      1.0000 0.60210  0.64150  0.23660  Biso   1.000  O
  O15      1.0000 0.74030  0.87370  0.61520  Biso   1.000  O
  O16      1.0000 0.90800  0.86540  0.58770  Biso   1.000  O
  Zn3      1.0000 0.25000  0.25000  0.33752  Biso   1.000  Zn
  Zn4      1.0000 0.25000  0.25000  0.83752  Biso   1.000  Zn
  H33      1.0000 0.37600  0.86520  0.67360  Biso   1.000  H
  H34      1.0000 0.35570  0.00010  0.73520  Biso   1.000  H
  H35      1.0000 0.05040  0.01140  0.69070  Biso   1.000  H
  H36      1.0000 0.07630  0.87710  0.62670  Biso   1.000  H
  H37      1.0000 0.11900  0.58520  0.52680  Biso   1.000  H
  H38      1.0000 0.14430  0.45530  0.46230  Biso   1.000  H
  H39      1.0000 0.45700  0.54980  0.45870  Biso   1.000  H
  H40      1.0000 0.42880  0.68160  0.52240  Biso   1.000  H
  H41      1.0000 0.12400  0.63480  0.67360  Biso   1.000  H
  H42      1.0000 0.14430  0.49990  0.73520  Biso   1.000  H
  H43      1.0000 0.44960  0.48860  0.69070  Biso   1.000  H
  H44      1.0000 0.42370  0.62290  0.62670  Biso   1.000  H
  H45      1.0000 0.38100  0.91480  0.52680  Biso   1.000  H
  H46      1.0000 0.35570  0.04470  0.46230  Biso   1.000  H
  H47      1.0000 0.04300  0.95020  0.45870  Biso   1.000  H
  H48      1.0000 0.07120  0.81840  0.52240  Biso   1.000  H
  H49      1.0000 0.86520  0.37600  0.17360  Biso   1.000  H
  H50      1.0000 0.00010  0.35570  0.23520  Biso   1.000  H
  H51      1.0000 0.01140  0.05040  0.19070  Biso   1.000  H
  H52      1.0000 0.87710  0.07630  0.12670  Biso   1.000  H
  H53      1.0000 0.58520  0.11900  0.02680  Biso   1.000  H
  H54      1.0000 0.45530  0.14430  0.96230  Biso   1.000  H
  H55      1.0000 0.54980  0.45700  0.95870  Biso   1.000  H
  H56      1.0000 0.68160  0.42880  0.02240  Biso   1.000  H
  H57      1.0000 0.63480  0.12400  0.17360  Biso   1.000  H
  H58      1.0000 0.49990  0.14430  0.23520  Biso   1.000  H
  H59      1.0000 0.48860  0.44960  0.19070  Biso   1.000  H
  H60      1.0000 0.62290  0.42370  0.12670  Biso   1.000  H
  H61      1.0000 0.91480  0.38100  0.02680  Biso   1.000  H
  H62      1.0000 0.04470  0.35570  0.96230  Biso   1.000  H
  H63      1.0000 0.95020  0.04300  0.95870  Biso   1.000  H
  H64      1.0000 0.81840  0.07120  0.02240  Biso   1.000  H
  Pd3      1.0000 0.25000  0.75000  0.58808  Biso   1.000  Pd
  Pd4      1.0000 0.75000  0.25000  0.08808  Biso   1.000  Pd
  C49      1.0000 0.13310  0.90230  0.64970  Biso   1.000  C
  C50      1.0000 0.11740  0.98240  0.68780  Biso   1.000  C
  C51      1.0000 0.20140  0.01700  0.72090  Biso   1.000  C
  C52      1.0000 0.18610  0.10170  0.76240  Biso   1.000  C
  C53      1.0000 0.29640  0.97460  0.71380  Biso   1.000  C
  C54      1.0000 0.30940  0.89520  0.67680  Biso   1.000  C
  C55      1.0000 0.37080  0.63360  0.51070  Biso   1.000  C
  C56      1.0000 0.38720  0.55620  0.47220  Biso   1.000  C
  C57      1.0000 0.30120  0.48840  0.45360  Biso   1.000  C
  C58      1.0000 0.20390  0.50090  0.47430  Biso   1.000  C
  C59      1.0000 0.18850  0.57710  0.51340  Biso   1.000  C
  C60      1.0000 0.31830  0.40410  0.41410  Biso   1.000  C
  C61      1.0000 0.36690  0.59770  0.64970  Biso   1.000  C
  C62      1.0000 0.38260  0.51760  0.68780  Biso   1.000  C
  C63      1.0000 0.29860  0.48300  0.72090  Biso   1.000  C
  C64      1.0000 0.31390  0.39830  0.76240  Biso   1.000  C
  C65      1.0000 0.20360  0.52540  0.71380  Biso   1.000  C
  C66      1.0000 0.19060  0.60480  0.67680  Biso   1.000  C
  C67      1.0000 0.12920  0.86640  0.51070  Biso   1.000  C
  C68      1.0000 0.11280  0.94380  0.47220  Biso   1.000  C
  C69      1.0000 0.19880  0.01160  0.45360  Biso   1.000  C
  C70      1.0000 0.29610  0.99910  0.47430  Biso   1.000  C
  C71      1.0000 0.31150  0.92290  0.51340  Biso   1.000  C
  C72      1.0000 0.18170  0.09590  0.41410  Biso   1.000  C
  C73      1.0000 0.90230  0.13310  0.14970  Biso   1.000  C
  C74      1.0000 0.98240  0.11740  0.18780  Biso   1.000  C
  C75      1.0000 0.01700  0.20140  0.22090  Biso   1.000  C
  C76      1.0000 0.10170  0.18610  0.26240  Biso   1.000  C
  C77      1.0000 0.97460  0.29640  0.21380  Biso   1.000  C
  C78      1.0000 0.89520  0.30940  0.17680  Biso   1.000  C
  C79      1.0000 0.63360  0.37080  0.01070  Biso   1.000  C
  C80      1.0000 0.55620  0.38720  0.97220  Biso   1.000  C
  C81      1.0000 0.48840  0.30120  0.95360  Biso   1.000  C
  C82      1.0000 0.50090  0.20390  0.97430  Biso   1.000  C
  C83      1.0000 0.57710  0.18850  0.01340  Biso   1.000  C
  C84      1.0000 0.40410  0.31830  0.91410  Biso   1.000  C
  C85      1.0000 0.59770  0.36690  0.14970  Biso   1.000  C
  C86      1.0000 0.51760  0.38260  0.18780  Biso   1.000  C
  C87      1.0000 0.48300  0.29860  0.22090  Biso   1.000  C
  C88      1.0000 0.39830  0.31390  0.26240  Biso   1.000  C
  C89      1.0000 0.52540  0.20360  0.21380  Biso   1.000  C
  C90      1.0000 0.60480  0.19060  0.17680  Biso   1.000  C
  C91      1.0000 0.86640  0.12920  0.01070  Biso   1.000  C
  C92      1.0000 0.94380  0.11280  0.97220  Biso   1.000  C
  C93      1.0000 0.01160  0.19880  0.95360  Biso   1.000  C
  C94      1.0000 0.99910  0.29610  0.97430  Biso   1.000  C
  C95      1.0000 0.92290  0.31150  0.01340  Biso   1.000  C
  C96      1.0000 0.09590  0.18170  0.91410  Biso   1.000  C
  N9       1.0000 0.27240  0.64060  0.53120  Biso   1.000  N
  N10      1.0000 0.22750  0.86090  0.64580  Biso   1.000  N
  N11      1.0000 0.22760  0.85940  0.53120  Biso   1.000  N
  N12      1.0000 0.27250  0.63910  0.64580  Biso   1.000  N
  N13      1.0000 0.64060  0.27240  0.03120  Biso   1.000  N
  N14      1.0000 0.86090  0.22750  0.14580  Biso   1.000  N
  N15      1.0000 0.85940  0.22760  0.03120  Biso   1.000  N
  N16      1.0000 0.63910  0.27250  0.14580  Biso   1.000  N
  O17      1.0000 0.26350  0.12330  0.79270  Biso   1.000  O
  O18      1.0000 0.10210  0.14150  0.76340  Biso   1.000  O
  O19      1.0000 0.24030  0.37370  0.38480  Biso   1.000  O
  O20      1.0000 0.40800  0.36540  0.41230  Biso   1.000  O
  O21      1.0000 0.23650  0.37670  0.79270  Biso   1.000  O
  O22      1.0000 0.39790  0.35850  0.76340  Biso   1.000  O
  O23      1.0000 0.25970  0.12630  0.38480  Biso   1.000  O
  O24      1.0000 0.09200  0.13460  0.41230  Biso   1.000  O
  O25      1.0000 0.12330  0.26350  0.29270  Biso   1.000  O
  O26      1.0000 0.14150  0.10210  0.26340  Biso   1.000  O
  O27      1.0000 0.37370  0.24030  0.88480  Biso   1.000  O
  O28      1.0000 0.36540  0.40800  0.91230  Biso   1.000  O
  O29      1.0000 0.37670  0.23650  0.29270  Biso   1.000  O
  O30      1.0000 0.35850  0.39790  0.26340  Biso   1.000  O
  O31      1.0000 0.12630  0.25970  0.88480  Biso   1.000  O
  O32      1.0000 0.13460  0.09200  0.91230  Biso   1.000  O
