data_image0
_cell_length_a       20.33
_cell_length_b       23.1692
_cell_length_c       32.0081
_cell_angle_alpha    90
_cell_angle_beta     90
_cell_angle_gamma    90

_symmetry_space_group_name_H-M    P 1
_symmetry_int_tables_number       1

loop_
  _symmetry_equiv_pos_as_xyz
  'x, y, z'

loop_
  _atom_site_label
  _atom_site_occupancy
  _atom_site_fract_x
  _atom_site_fract_y
  _atom_site_fract_z
  _atom_site_thermal_displace_type
  _atom_site_B_iso_or_equiv
  _atom_site_type_symbol
  Zn1      1.0000 0.17290  0.47411  0.50151  Biso   1.000  Zn
  Zn2      1.0000 0.29186  0.51553  0.44970  Biso   1.000  Zn
  Zn3      1.0000 0.25374  0.58836  0.53285  Biso   1.000  Zn
  Zn4      1.0000 0.31378  0.45782  0.53514  Biso   1.000  Zn
  Zn5      1.0000 0.32710  0.52589  0.00151  Biso   1.000  Zn
  Zn6      1.0000 0.20814  0.48447  0.94970  Biso   1.000  Zn
  Zn7      1.0000 0.24626  0.41164  0.03285  Biso   1.000  Zn
  Zn8      1.0000 0.18622  0.54218  0.03514  Biso   1.000  Zn
  Zn9      1.0000 0.82710  0.97411  0.99849  Biso   1.000  Zn
  Zn10     1.0000 0.70814  0.01553  0.05030  Biso   1.000  Zn
  Zn11     1.0000 0.74626  0.08836  0.96715  Biso   1.000  Zn
  Zn12     1.0000 0.68622  0.95782  0.96486  Biso   1.000  Zn
  Zn13     1.0000 0.67290  0.02589  0.49849  Biso   1.000  Zn
  Zn14     1.0000 0.79186  0.98447  0.55030  Biso   1.000  Zn
  Zn15     1.0000 0.75374  0.91164  0.46715  Biso   1.000  Zn
  Zn16     1.0000 0.81378  0.04218  0.46486  Biso   1.000  Zn
  H1       1.0000 0.86260  0.56930  0.74620  Biso   1.000  H
  H2       1.0000 0.92420  0.60090  0.68900  Biso   1.000  H
  H3       1.0000 0.75630  0.65090  0.63280  Biso   1.000  H
  H4       1.0000 0.69870  0.62540  0.69000  Biso   1.000  H
  H5       1.0000 0.90280  0.54450  0.60050  Biso   1.000  H
  H6       1.0000 0.99780  0.50080  0.57630  Biso   1.000  H
  H7       1.0000 0.10080  0.64860  0.59150  Biso   1.000  H
  H8       1.0000 0.00240  0.69380  0.61270  Biso   1.000  H
  H9       1.0000 0.89870  0.68680  0.54380  Biso   1.000  H
  H10      1.0000 0.87300  0.77390  0.51480  Biso   1.000  H
  H11      1.0000 0.80900  0.83320  0.62650  Biso   1.000  H
  H12      1.0000 0.83900  0.74740  0.65770  Biso   1.000  H
  H13      1.0000 0.66240  0.50920  0.71710  Biso   1.000  H
  H14      1.0000 0.54910  0.50530  0.71580  Biso   1.000  H
  H15      1.0000 0.53750  0.63150  0.80030  Biso   1.000  H
  H16      1.0000 0.65190  0.63950  0.80140  Biso   1.000  H
  H17      1.0000 0.39540  0.47510  0.73360  Biso   1.000  H
  H18      1.0000 0.34250  0.46090  0.66890  Biso   1.000  H
  H19      1.0000 0.40090  0.61740  0.63250  Biso   1.000  H
  H20      1.0000 0.45520  0.63230  0.69510  Biso   1.000  H
  H21      1.0000 0.33780  0.57650  0.77640  Biso   1.000  H
  H22      1.0000 0.28410  0.55950  0.83740  Biso   1.000  H
  H23      1.0000 0.45470  0.52110  0.89440  Biso   1.000  H
  H24      1.0000 0.50960  0.53170  0.83160  Biso   1.000  H
  H25      1.0000 0.79850  0.67180  0.78500  Biso   1.000  H
  H26      1.0000 0.84150  0.69460  0.85200  Biso   1.000  H
  H27      1.0000 0.77950  0.54040  0.89410  Biso   1.000  H
  H28      1.0000 0.74330  0.51490  0.82740  Biso   1.000  H
  H29      1.0000 0.91800  0.71340  0.95070  Biso   1.000  H
  H30      1.0000 0.88950  0.80560  0.97180  Biso   1.000  H
  H31      1.0000 0.69980  0.77560  0.94610  Biso   1.000  H
  H32      1.0000 0.72470  0.68170  0.92610  Biso   1.000  H
  H33      1.0000 0.88400  0.61920  0.99490  Biso   1.000  H
  H34      1.0000 0.98530  0.58480  0.01600  Biso   1.000  H
  H35      1.0000 0.02750  0.53820  0.89750  Biso   1.000  H
  H36      1.0000 0.92570  0.57440  0.87570  Biso   1.000  H
  H37      1.0000 0.63740  0.43070  0.24620  Biso   1.000  H
  H38      1.0000 0.57580  0.39910  0.18900  Biso   1.000  H
  H39      1.0000 0.74370  0.34910  0.13280  Biso   1.000  H
  H40      1.0000 0.80130  0.37460  0.19000  Biso   1.000  H
  H41      1.0000 0.59720  0.45550  0.10050  Biso   1.000  H
  H42      1.0000 0.50220  0.49920  0.07630  Biso   1.000  H
  H43      1.0000 0.39920  0.35140  0.09150  Biso   1.000  H
  H44      1.0000 0.49760  0.30620  0.11270  Biso   1.000  H
  H45      1.0000 0.60130  0.31320  0.04380  Biso   1.000  H
  H46      1.0000 0.62700  0.22610  0.01480  Biso   1.000  H
  H47      1.0000 0.69100  0.16680  0.12650  Biso   1.000  H
  H48      1.0000 0.66100  0.25260  0.15770  Biso   1.000  H
  H49      1.0000 0.83760  0.49080  0.21710  Biso   1.000  H
  H50      1.0000 0.95090  0.49470  0.21580  Biso   1.000  H
  H51      1.0000 0.96250  0.36850  0.30030  Biso   1.000  H
  H52      1.0000 0.84810  0.36050  0.30140  Biso   1.000  H
  H53      1.0000 0.10460  0.52490  0.23360  Biso   1.000  H
  H54      1.0000 0.15750  0.53910  0.16890  Biso   1.000  H
  H55      1.0000 0.09910  0.38260  0.13250  Biso   1.000  H
  H56      1.0000 0.04480  0.36770  0.19510  Biso   1.000  H
  H57      1.0000 0.16220  0.42350  0.27640  Biso   1.000  H
  H58      1.0000 0.21590  0.44050  0.33740  Biso   1.000  H
  H59      1.0000 0.04530  0.47890  0.39440  Biso   1.000  H
  H60      1.0000 0.99040  0.46830  0.33160  Biso   1.000  H
  H61      1.0000 0.70150  0.32820  0.28500  Biso   1.000  H
  H62      1.0000 0.65850  0.30540  0.35200  Biso   1.000  H
  H63      1.0000 0.72050  0.45960  0.39410  Biso   1.000  H
  H64      1.0000 0.75670  0.48510  0.32740  Biso   1.000  H
  H65      1.0000 0.58200  0.28660  0.45070  Biso   1.000  H
  H66      1.0000 0.61050  0.19440  0.47180  Biso   1.000  H
  H67      1.0000 0.80020  0.22440  0.44610  Biso   1.000  H
  H68      1.0000 0.77530  0.31830  0.42610  Biso   1.000  H
  H69      1.0000 0.61600  0.38080  0.49490  Biso   1.000  H
  H70      1.0000 0.51470  0.41520  0.51600  Biso   1.000  H
  H71      1.0000 0.47250  0.46180  0.39750  Biso   1.000  H
  H72      1.0000 0.57430  0.42560  0.37570  Biso   1.000  H
  H73      1.0000 0.13740  0.06930  0.75380  Biso   1.000  H
  H74      1.0000 0.07580  0.10090  0.81100  Biso   1.000  H
  H75      1.0000 0.24370  0.15090  0.86720  Biso   1.000  H
  H76      1.0000 0.30130  0.12540  0.81000  Biso   1.000  H
  H77      1.0000 0.09720  0.04450  0.89950  Biso   1.000  H
  H78      1.0000 0.00220  0.00080  0.92370  Biso   1.000  H
  H79      1.0000 0.89920  0.14860  0.90850  Biso   1.000  H
  H80      1.0000 0.99760  0.19380  0.88730  Biso   1.000  H
  H81      1.0000 0.10130  0.18680  0.95620  Biso   1.000  H
  H82      1.0000 0.12700  0.27390  0.98520  Biso   1.000  H
  H83      1.0000 0.19100  0.33320  0.87350  Biso   1.000  H
  H84      1.0000 0.16100  0.24740  0.84230  Biso   1.000  H
  H85      1.0000 0.33760  0.00920  0.78290  Biso   1.000  H
  H86      1.0000 0.45090  0.00530  0.78420  Biso   1.000  H
  H87      1.0000 0.46250  0.13150  0.69970  Biso   1.000  H
  H88      1.0000 0.34810  0.13950  0.69860  Biso   1.000  H
  H89      1.0000 0.60460  0.97510  0.76640  Biso   1.000  H
  H90      1.0000 0.65750  0.96090  0.83110  Biso   1.000  H
  H91      1.0000 0.59910  0.11740  0.86750  Biso   1.000  H
  H92      1.0000 0.54480  0.13230  0.80490  Biso   1.000  H
  H93      1.0000 0.66220  0.07650  0.72360  Biso   1.000  H
  H94      1.0000 0.71590  0.05950  0.66260  Biso   1.000  H
  H95      1.0000 0.54530  0.02110  0.60560  Biso   1.000  H
  H96      1.0000 0.49040  0.03170  0.66840  Biso   1.000  H
  H97      1.0000 0.20150  0.17180  0.71500  Biso   1.000  H
  H98      1.0000 0.15850  0.19460  0.64800  Biso   1.000  H
  H99      1.0000 0.22050  0.04040  0.60590  Biso   1.000  H
  H100     1.0000 0.25670  0.01490  0.67260  Biso   1.000  H
  H101     1.0000 0.08200  0.21340  0.54930  Biso   1.000  H
  H102     1.0000 0.11050  0.30560  0.52820  Biso   1.000  H
  H103     1.0000 0.30020  0.27560  0.55390  Biso   1.000  H
  H104     1.0000 0.27530  0.18170  0.57390  Biso   1.000  H
  H105     1.0000 0.11600  0.11920  0.50510  Biso   1.000  H
  H106     1.0000 0.01470  0.08480  0.48400  Biso   1.000  H
  H107     1.0000 0.97250  0.03820  0.60250  Biso   1.000  H
  H108     1.0000 0.07430  0.07440  0.62430  Biso   1.000  H
  H109     1.0000 0.36260  0.93070  0.25380  Biso   1.000  H
  H110     1.0000 0.42420  0.89910  0.31100  Biso   1.000  H
  H111     1.0000 0.25630  0.84910  0.36720  Biso   1.000  H
  H112     1.0000 0.19870  0.87460  0.31000  Biso   1.000  H
  H113     1.0000 0.40280  0.95550  0.39950  Biso   1.000  H
  H114     1.0000 0.49780  0.99920  0.42370  Biso   1.000  H
  H115     1.0000 0.60080  0.85140  0.40850  Biso   1.000  H
  H116     1.0000 0.50240  0.80620  0.38730  Biso   1.000  H
  H117     1.0000 0.39870  0.81320  0.45620  Biso   1.000  H
  H118     1.0000 0.37300  0.72610  0.48520  Biso   1.000  H
  H119     1.0000 0.30900  0.66680  0.37350  Biso   1.000  H
  H120     1.0000 0.33900  0.75260  0.34230  Biso   1.000  H
  H121     1.0000 0.16240  0.99080  0.28290  Biso   1.000  H
  H122     1.0000 0.04910  0.99470  0.28420  Biso   1.000  H
  H123     1.0000 0.03750  0.86850  0.19970  Biso   1.000  H
  H124     1.0000 0.15190  0.86050  0.19860  Biso   1.000  H
  H125     1.0000 0.89540  0.02490  0.26640  Biso   1.000  H
  H126     1.0000 0.84250  0.03910  0.33110  Biso   1.000  H
  H127     1.0000 0.90090  0.88260  0.36750  Biso   1.000  H
  H128     1.0000 0.95520  0.86770  0.30490  Biso   1.000  H
  H129     1.0000 0.83780  0.92350  0.22360  Biso   1.000  H
  H130     1.0000 0.78410  0.94050  0.16260  Biso   1.000  H
  H131     1.0000 0.95470  0.97890  0.10560  Biso   1.000  H
  H132     1.0000 0.00960  0.96830  0.16840  Biso   1.000  H
  H133     1.0000 0.29850  0.82820  0.21500  Biso   1.000  H
  H134     1.0000 0.34150  0.80540  0.14800  Biso   1.000  H
  H135     1.0000 0.27950  0.95960  0.10590  Biso   1.000  H
  H136     1.0000 0.24330  0.98510  0.17260  Biso   1.000  H
  H137     1.0000 0.41800  0.78660  0.04930  Biso   1.000  H
  H138     1.0000 0.38950  0.69440  0.02820  Biso   1.000  H
  H139     1.0000 0.19980  0.72440  0.05390  Biso   1.000  H
  H140     1.0000 0.22470  0.81830  0.07390  Biso   1.000  H
  H141     1.0000 0.38400  0.88080  0.00510  Biso   1.000  H
  H142     1.0000 0.48530  0.91520  0.98400  Biso   1.000  H
  H143     1.0000 0.52750  0.96180  0.10250  Biso   1.000  H
  H144     1.0000 0.42570  0.92560  0.12430  Biso   1.000  H
  C1       1.0000 0.77440  0.59360  0.72350  Biso   1.000  C
  C2       1.0000 0.84110  0.58690  0.72310  Biso   1.000  C
  C3       1.0000 0.87780  0.60570  0.68880  Biso   1.000  C
  C4       1.0000 0.84860  0.63090  0.65510  Biso   1.000  C
  C5       1.0000 0.77890  0.63570  0.65630  Biso   1.000  C
  C6       1.0000 0.74490  0.61930  0.68960  Biso   1.000  C
  C7       1.0000 0.94470  0.62470  0.60920  Biso   1.000  C
  C8       1.0000 0.94250  0.56590  0.59820  Biso   1.000  C
  C9       1.0000 0.99910  0.54030  0.58420  Biso   1.000  C
  C10      1.0000 0.05730  0.56930  0.58120  Biso   1.000  C
  C11      1.0000 0.06060  0.62770  0.59260  Biso   1.000  C
  C12      1.0000 0.00190  0.65390  0.60590  Biso   1.000  C
  C13      1.0000 0.87100  0.70630  0.60420  Biso   1.000  C
  C14      1.0000 0.88100  0.71650  0.56090  Biso   1.000  C
  C15      1.0000 0.86540  0.76810  0.54380  Biso   1.000  C
  C16      1.0000 0.83830  0.81350  0.56750  Biso   1.000  C
  C17      1.0000 0.82810  0.80360  0.60990  Biso   1.000  C
  C18      1.0000 0.84490  0.75230  0.62840  Biso   1.000  C
  C19      1.0000 0.66930  0.57520  0.75900  Biso   1.000  C
  C20      1.0000 0.63750  0.53490  0.73400  Biso   1.000  C
  C21      1.0000 0.57040  0.53240  0.73360  Biso   1.000  C
  C22      1.0000 0.53300  0.56800  0.75820  Biso   1.000  C
  C23      1.0000 0.56320  0.60690  0.78310  Biso   1.000  C
  C24      1.0000 0.63130  0.61170  0.78400  Biso   1.000  C
  C25      1.0000 0.42920  0.55600  0.72000  Biso   1.000  C
  C26      1.0000 0.39650  0.50430  0.71280  Biso   1.000  C
  C27      1.0000 0.36530  0.49590  0.67430  Biso   1.000  C
  C28      1.0000 0.36750  0.53820  0.64450  Biso   1.000  C
  C29      1.0000 0.40010  0.58790  0.65310  Biso   1.000  C
  C30      1.0000 0.43190  0.59740  0.69030  Biso   1.000  C
  C31      1.0000 0.43020  0.55390  0.79740  Biso   1.000  C
  C32      1.0000 0.36160  0.56370  0.80020  Biso   1.000  C
  C33      1.0000 0.33050  0.55470  0.83660  Biso   1.000  C
  C34      1.0000 0.36220  0.53910  0.87250  Biso   1.000  C
  C35      1.0000 0.43080  0.53120  0.87000  Biso   1.000  C
  C36      1.0000 0.46350  0.53810  0.83280  Biso   1.000  C
  C37      1.0000 0.76710  0.59010  0.80020  Biso   1.000  C
  C38      1.0000 0.79590  0.64450  0.80710  Biso   1.000  C
  C39      1.0000 0.82090  0.65840  0.84700  Biso   1.000  C
  C40      1.0000 0.81480  0.61880  0.87810  Biso   1.000  C
  C41      1.0000 0.78480  0.56660  0.87150  Biso   1.000  C
  C42      1.0000 0.76220  0.55180  0.83210  Biso   1.000  C
  C43      1.0000 0.82500  0.68770  0.93480  Biso   1.000  C
  C44      1.0000 0.87340  0.72550  0.94940  Biso   1.000  C
  C45      1.0000 0.85630  0.78030  0.96180  Biso   1.000  C
  C46      1.0000 0.79170  0.79960  0.96010  Biso   1.000  C
  C47      1.0000 0.74420  0.76280  0.94690  Biso   1.000  C
  C48      1.0000 0.75890  0.70710  0.93460  Biso   1.000  C
  C49      1.0000 0.89900  0.60650  0.93200  Biso   1.000  C
  C50      1.0000 0.91450  0.60520  0.97480  Biso   1.000  C
  C51      1.0000 0.97390  0.58370  0.98730  Biso   1.000  C
  C52      1.0000 0.01900  0.55970  0.95820  Biso   1.000  C
  C53      1.0000 0.99940  0.55620  0.91730  Biso   1.000  C
  C54      1.0000 0.93900  0.57860  0.90400  Biso   1.000  C
  C55      1.0000 0.11650  0.54200  0.56240  Biso   1.000  C
  C56      1.0000 0.81990  0.86890  0.54820  Biso   1.000  C
  C57      1.0000 0.33740  0.52760  0.60220  Biso   1.000  C
  C58      1.0000 0.32730  0.52900  0.91170  Biso   1.000  C
  C59      1.0000 0.77570  0.86200  0.97130  Biso   1.000  C
  C60      1.0000 0.08430  0.54150  0.97150  Biso   1.000  C
  C61      1.0000 0.25700  0.67400  0.60200  Biso   1.000  C
  C62      1.0000 0.22400  0.65680  0.64460  Biso   1.000  C
  C63      1.0000 0.31400  0.72600  0.64410  Biso   1.000  C
  C64      1.0000 0.37300  0.72010  0.57170  Biso   1.000  C
  C65      1.0000 0.72560  0.40640  0.22350  Biso   1.000  C
  C66      1.0000 0.65890  0.41310  0.22310  Biso   1.000  C
  C67      1.0000 0.62220  0.39430  0.18880  Biso   1.000  C
  C68      1.0000 0.65140  0.36910  0.15510  Biso   1.000  C
  C69      1.0000 0.72110  0.36430  0.15630  Biso   1.000  C
  C70      1.0000 0.75510  0.38070  0.18960  Biso   1.000  C
  C71      1.0000 0.55530  0.37530  0.10920  Biso   1.000  C
  C72      1.0000 0.55750  0.43410  0.09820  Biso   1.000  C
  C73      1.0000 0.50090  0.45970  0.08420  Biso   1.000  C
  C74      1.0000 0.44270  0.43070  0.08120  Biso   1.000  C
  C75      1.0000 0.43940  0.37230  0.09260  Biso   1.000  C
  C76      1.0000 0.49810  0.34610  0.10590  Biso   1.000  C
  C77      1.0000 0.62900  0.29370  0.10420  Biso   1.000  C
  C78      1.0000 0.61900  0.28350  0.06090  Biso   1.000  C
  C79      1.0000 0.63460  0.23190  0.04380  Biso   1.000  C
  C80      1.0000 0.66170  0.18650  0.06750  Biso   1.000  C
  C81      1.0000 0.67190  0.19640  0.10990  Biso   1.000  C
  C82      1.0000 0.65510  0.24770  0.12840  Biso   1.000  C
  C83      1.0000 0.83070  0.42480  0.25900  Biso   1.000  C
  C84      1.0000 0.86250  0.46510  0.23400  Biso   1.000  C
  C85      1.0000 0.92960  0.46760  0.23360  Biso   1.000  C
  C86      1.0000 0.96700  0.43200  0.25820  Biso   1.000  C
  C87      1.0000 0.93680  0.39310  0.28310  Biso   1.000  C
  C88      1.0000 0.86870  0.38830  0.28400  Biso   1.000  C
  C89      1.0000 0.07080  0.44400  0.22000  Biso   1.000  C
  C90      1.0000 0.10350  0.49570  0.21280  Biso   1.000  C
  C91      1.0000 0.13470  0.50410  0.17430  Biso   1.000  C
  C92      1.0000 0.13250  0.46180  0.14450  Biso   1.000  C
  C93      1.0000 0.09990  0.41210  0.15310  Biso   1.000  C
  C94      1.0000 0.06810  0.40260  0.19030  Biso   1.000  C
  C95      1.0000 0.06980  0.44610  0.29740  Biso   1.000  C
  C96      1.0000 0.13840  0.43630  0.30020  Biso   1.000  C
  C97      1.0000 0.16950  0.44530  0.33660  Biso   1.000  C
  C98      1.0000 0.13780  0.46090  0.37250  Biso   1.000  C
  C99      1.0000 0.06920  0.46880  0.37000  Biso   1.000  C
  C100     1.0000 0.03650  0.46190  0.33280  Biso   1.000  C
  C101     1.0000 0.73290  0.40990  0.30020  Biso   1.000  C
  C102     1.0000 0.70410  0.35550  0.30710  Biso   1.000  C
  C103     1.0000 0.67910  0.34160  0.34700  Biso   1.000  C
  C104     1.0000 0.68520  0.38120  0.37810  Biso   1.000  C
  C105     1.0000 0.71520  0.43340  0.37150  Biso   1.000  C
  C106     1.0000 0.73780  0.44820  0.33210  Biso   1.000  C
  C107     1.0000 0.67500  0.31230  0.43480  Biso   1.000  C
  C108     1.0000 0.62660  0.27450  0.44940  Biso   1.000  C
  C109     1.0000 0.64370  0.21970  0.46180  Biso   1.000  C
  C110     1.0000 0.70830  0.20040  0.46010  Biso   1.000  C
  C111     1.0000 0.75580  0.23720  0.44690  Biso   1.000  C
  C112     1.0000 0.74110  0.29290  0.43460  Biso   1.000  C
  C113     1.0000 0.60100  0.39350  0.43200  Biso   1.000  C
  C114     1.0000 0.58550  0.39480  0.47480  Biso   1.000  C
  C115     1.0000 0.52610  0.41630  0.48730  Biso   1.000  C
  C116     1.0000 0.48100  0.44030  0.45820  Biso   1.000  C
  C117     1.0000 0.50060  0.44380  0.41730  Biso   1.000  C
  C118     1.0000 0.56100  0.42140  0.40400  Biso   1.000  C
  C119     1.0000 0.38350  0.45800  0.06240  Biso   1.000  C
  C120     1.0000 0.68010  0.13110  0.04820  Biso   1.000  C
  C121     1.0000 0.16260  0.47240  0.10220  Biso   1.000  C
  C122     1.0000 0.17270  0.47100  0.41170  Biso   1.000  C
  C123     1.0000 0.72430  0.13800  0.47130  Biso   1.000  C
  C124     1.0000 0.41570  0.45850  0.47150  Biso   1.000  C
  C125     1.0000 0.24300  0.32600  0.10200  Biso   1.000  C
  C126     1.0000 0.27600  0.34320  0.14460  Biso   1.000  C
  C127     1.0000 0.18600  0.27400  0.14410  Biso   1.000  C
  C128     1.0000 0.12700  0.27990  0.07170  Biso   1.000  C
  C129     1.0000 0.22560  0.09360  0.77650  Biso   1.000  C
  C130     1.0000 0.15890  0.08690  0.77690  Biso   1.000  C
  C131     1.0000 0.12220  0.10570  0.81120  Biso   1.000  C
  C132     1.0000 0.15140  0.13090  0.84490  Biso   1.000  C
  C133     1.0000 0.22110  0.13570  0.84370  Biso   1.000  C
  C134     1.0000 0.25510  0.11930  0.81040  Biso   1.000  C
  C135     1.0000 0.05530  0.12470  0.89080  Biso   1.000  C
  C136     1.0000 0.05750  0.06590  0.90180  Biso   1.000  C
  C137     1.0000 0.00090  0.04030  0.91580  Biso   1.000  C
  C138     1.0000 0.94270  0.06930  0.91880  Biso   1.000  C
  C139     1.0000 0.93940  0.12770  0.90740  Biso   1.000  C
  C140     1.0000 0.99810  0.15390  0.89410  Biso   1.000  C
  C141     1.0000 0.12900  0.20630  0.89580  Biso   1.000  C
  C142     1.0000 0.11900  0.21650  0.93910  Biso   1.000  C
  C143     1.0000 0.13460  0.26810  0.95620  Biso   1.000  C
  C144     1.0000 0.16170  0.31350  0.93250  Biso   1.000  C
  C145     1.0000 0.17190  0.30360  0.89010  Biso   1.000  C
  C146     1.0000 0.15510  0.25230  0.87160  Biso   1.000  C
  C147     1.0000 0.33070  0.07520  0.74100  Biso   1.000  C
  C148     1.0000 0.36250  0.03490  0.76600  Biso   1.000  C
  C149     1.0000 0.42960  0.03240  0.76640  Biso   1.000  C
  C150     1.0000 0.46700  0.06800  0.74180  Biso   1.000  C
  C151     1.0000 0.43680  0.10690  0.71690  Biso   1.000  C
  C152     1.0000 0.36870  0.11170  0.71600  Biso   1.000  C
  C153     1.0000 0.57080  0.05600  0.78000  Biso   1.000  C
  C154     1.0000 0.60350  0.00430  0.78720  Biso   1.000  C
  C155     1.0000 0.63470  0.99590  0.82570  Biso   1.000  C
  C156     1.0000 0.63250  0.03820  0.85550  Biso   1.000  C
  C157     1.0000 0.59990  0.08790  0.84690  Biso   1.000  C
  C158     1.0000 0.56810  0.09740  0.80970  Biso   1.000  C
  C159     1.0000 0.56980  0.05390  0.70260  Biso   1.000  C
  C160     1.0000 0.63840  0.06370  0.69980  Biso   1.000  C
  C161     1.0000 0.66950  0.05470  0.66340  Biso   1.000  C
  C162     1.0000 0.63780  0.03910  0.62750  Biso   1.000  C
  C163     1.0000 0.56920  0.03120  0.63000  Biso   1.000  C
  C164     1.0000 0.53650  0.03810  0.66720  Biso   1.000  C
  C165     1.0000 0.23290  0.09010  0.69980  Biso   1.000  C
  C166     1.0000 0.20410  0.14450  0.69290  Biso   1.000  C
  C167     1.0000 0.17910  0.15840  0.65300  Biso   1.000  C
  C168     1.0000 0.18520  0.11880  0.62190  Biso   1.000  C
  C169     1.0000 0.21520  0.06660  0.62850  Biso   1.000  C
  C170     1.0000 0.23780  0.05180  0.66790  Biso   1.000  C
  C171     1.0000 0.17500  0.18770  0.56520  Biso   1.000  C
  C172     1.0000 0.12660  0.22550  0.55060  Biso   1.000  C
  C173     1.0000 0.14370  0.28030  0.53820  Biso   1.000  C
  C174     1.0000 0.20830  0.29960  0.53990  Biso   1.000  C
  C175     1.0000 0.25580  0.26280  0.55310  Biso   1.000  C
  C176     1.0000 0.24110  0.20710  0.56540  Biso   1.000  C
  C177     1.0000 0.10100  0.10650  0.56800  Biso   1.000  C
  C178     1.0000 0.08550  0.10520  0.52520  Biso   1.000  C
  C179     1.0000 0.02610  0.08370  0.51270  Biso   1.000  C
  C180     1.0000 0.98100  0.05970  0.54180  Biso   1.000  C
  C181     1.0000 0.00060  0.05620  0.58270  Biso   1.000  C
  C182     1.0000 0.06100  0.07860  0.59600  Biso   1.000  C
  C183     1.0000 0.88350  0.04200  0.93760  Biso   1.000  C
  C184     1.0000 0.18010  0.36890  0.95180  Biso   1.000  C
  C185     1.0000 0.66260  0.02760  0.89780  Biso   1.000  C
  C186     1.0000 0.67270  0.02900  0.58830  Biso   1.000  C
  C187     1.0000 0.22430  0.36200  0.52870  Biso   1.000  C
  C188     1.0000 0.91570  0.04150  0.52850  Biso   1.000  C
  C189     1.0000 0.74300  0.17400  0.89800  Biso   1.000  C
  C190     1.0000 0.77600  0.15680  0.85540  Biso   1.000  C
  C191     1.0000 0.68600  0.22600  0.85590  Biso   1.000  C
  C192     1.0000 0.62700  0.22010  0.92830  Biso   1.000  C
  C193     1.0000 0.27440  0.90640  0.27650  Biso   1.000  C
  C194     1.0000 0.34110  0.91310  0.27690  Biso   1.000  C
  C195     1.0000 0.37780  0.89430  0.31120  Biso   1.000  C
  C196     1.0000 0.34860  0.86910  0.34490  Biso   1.000  C
  C197     1.0000 0.27890  0.86430  0.34370  Biso   1.000  C
  C198     1.0000 0.24490  0.88070  0.31040  Biso   1.000  C
  C199     1.0000 0.44470  0.87530  0.39080  Biso   1.000  C
  C200     1.0000 0.44250  0.93410  0.40180  Biso   1.000  C
  C201     1.0000 0.49910  0.95970  0.41580  Biso   1.000  C
  C202     1.0000 0.55730  0.93070  0.41880  Biso   1.000  C
  C203     1.0000 0.56060  0.87230  0.40740  Biso   1.000  C
  C204     1.0000 0.50190  0.84610  0.39410  Biso   1.000  C
  C205     1.0000 0.37100  0.79370  0.39580  Biso   1.000  C
  C206     1.0000 0.38100  0.78350  0.43910  Biso   1.000  C
  C207     1.0000 0.36540  0.73190  0.45620  Biso   1.000  C
  C208     1.0000 0.33830  0.68650  0.43250  Biso   1.000  C
  C209     1.0000 0.32810  0.69640  0.39010  Biso   1.000  C
  C210     1.0000 0.34490  0.74770  0.37160  Biso   1.000  C
  C211     1.0000 0.16930  0.92480  0.24100  Biso   1.000  C
  C212     1.0000 0.13750  0.96510  0.26600  Biso   1.000  C
  C213     1.0000 0.07040  0.96760  0.26640  Biso   1.000  C
  C214     1.0000 0.03300  0.93200  0.24180  Biso   1.000  C
  C215     1.0000 0.06320  0.89310  0.21690  Biso   1.000  C
  C216     1.0000 0.13130  0.88830  0.21600  Biso   1.000  C
  C217     1.0000 0.92920  0.94400  0.28000  Biso   1.000  C
  C218     1.0000 0.89650  0.99570  0.28720  Biso   1.000  C
  C219     1.0000 0.86530  0.00410  0.32570  Biso   1.000  C
  C220     1.0000 0.86750  0.96180  0.35550  Biso   1.000  C
  C221     1.0000 0.90010  0.91210  0.34690  Biso   1.000  C
  C222     1.0000 0.93190  0.90260  0.30970  Biso   1.000  C
  C223     1.0000 0.93020  0.94610  0.20260  Biso   1.000  C
  C224     1.0000 0.86160  0.93630  0.19980  Biso   1.000  C
  C225     1.0000 0.83050  0.94530  0.16340  Biso   1.000  C
  C226     1.0000 0.86220  0.96090  0.12750  Biso   1.000  C
  C227     1.0000 0.93080  0.96880  0.13000  Biso   1.000  C
  C228     1.0000 0.96350  0.96190  0.16720  Biso   1.000  C
  C229     1.0000 0.26710  0.90990  0.19980  Biso   1.000  C
  C230     1.0000 0.29590  0.85550  0.19290  Biso   1.000  C
  C231     1.0000 0.32090  0.84160  0.15300  Biso   1.000  C
  C232     1.0000 0.31480  0.88120  0.12190  Biso   1.000  C
  C233     1.0000 0.28480  0.93340  0.12850  Biso   1.000  C
  C234     1.0000 0.26220  0.94820  0.16790  Biso   1.000  C
  C235     1.0000 0.32500  0.81230  0.06520  Biso   1.000  C
  C236     1.0000 0.37340  0.77450  0.05060  Biso   1.000  C
  C237     1.0000 0.35630  0.71970  0.03820  Biso   1.000  C
  C238     1.0000 0.29170  0.70040  0.03990  Biso   1.000  C
  C239     1.0000 0.24420  0.73720  0.05310  Biso   1.000  C
  C240     1.0000 0.25890  0.79290  0.06540  Biso   1.000  C
  C241     1.0000 0.39900  0.89350  0.06800  Biso   1.000  C
  C242     1.0000 0.41450  0.89480  0.02520  Biso   1.000  C
  C243     1.0000 0.47390  0.91630  0.01270  Biso   1.000  C
  C244     1.0000 0.51900  0.94030  0.04180  Biso   1.000  C
  C245     1.0000 0.49940  0.94380  0.08270  Biso   1.000  C
  C246     1.0000 0.43900  0.92140  0.09600  Biso   1.000  C
  C247     1.0000 0.61650  0.95800  0.43760  Biso   1.000  C
  C248     1.0000 0.31990  0.63110  0.45180  Biso   1.000  C
  C249     1.0000 0.83740  0.97240  0.39780  Biso   1.000  C
  C250     1.0000 0.82730  0.97100  0.08830  Biso   1.000  C
  C251     1.0000 0.27570  0.63800  0.02870  Biso   1.000  C
  C252     1.0000 0.58430  0.95850  0.02850  Biso   1.000  C
  C253     1.0000 0.75700  0.82600  0.39800  Biso   1.000  C
  C254     1.0000 0.72400  0.84320  0.35540  Biso   1.000  C
  C255     1.0000 0.81400  0.77400  0.35590  Biso   1.000  C
  C256     1.0000 0.87300  0.77990  0.42830  Biso   1.000  C
  N1       1.0000 0.73880  0.57800  0.76010  Biso   1.000  N
  N2       1.0000 0.88430  0.65350  0.62050  Biso   1.000  N
  N3       1.0000 0.46190  0.56430  0.75910  Biso   1.000  N
  N4       1.0000 0.84000  0.63390  0.91940  Biso   1.000  N
  N5       1.0000 0.32000  0.70600  0.60070  Biso   1.000  N
  N6       1.0000 0.76120  0.42200  0.26010  Biso   1.000  N
  N7       1.0000 0.61570  0.34650  0.12050  Biso   1.000  N
  N8       1.0000 0.03810  0.43570  0.25910  Biso   1.000  N
  N9       1.0000 0.66000  0.36610  0.41940  Biso   1.000  N
  N10      1.0000 0.18000  0.29400  0.10070  Biso   1.000  N
  N11      1.0000 0.26120  0.07800  0.73990  Biso   1.000  N
  N12      1.0000 0.11570  0.15350  0.87950  Biso   1.000  N
  N13      1.0000 0.53810  0.06430  0.74090  Biso   1.000  N
  N14      1.0000 0.16000  0.13390  0.58060  Biso   1.000  N
  N15      1.0000 0.68000  0.20600  0.89930  Biso   1.000  N
  N16      1.0000 0.23880  0.92200  0.23990  Biso   1.000  N
  N17      1.0000 0.38430  0.84650  0.37950  Biso   1.000  N
  N18      1.0000 0.96190  0.93570  0.24090  Biso   1.000  N
  N19      1.0000 0.34000  0.86610  0.08060  Biso   1.000  N
  N20      1.0000 0.82000  0.79400  0.39930  Biso   1.000  N
  O1       1.0000 0.25760  0.51020  0.50559  Biso   1.000  O
  O2       1.0000 0.10570  0.49980  0.53889  Biso   1.000  O
  O3       1.0000 0.17330  0.56270  0.57160  Biso   1.000  O
  O4       1.0000 0.82180  0.87470  0.50914  Biso   1.000  O
  O5       1.0000 0.80280  0.90850  0.57270  Biso   1.000  O
  O6       1.0000 0.32540  0.47400  0.59383  Biso   1.000  O
  O7       1.0000 0.32850  0.56780  0.57790  Biso   1.000  O
  O8       1.0000 0.26590  0.52770  0.91094  Biso   1.000  O
  O9       1.0000 0.36200  0.52320  0.94500  Biso   1.000  O
  O10      1.0000 0.71820  0.87720  0.96480  Biso   1.000  O
  O11      1.0000 0.82080  0.89040  0.98693  Biso   1.000  O
  O12      1.0000 0.09830  0.54670  0.00989  Biso   1.000  O
  O13      1.0000 0.12120  0.52100  0.94398  Biso   1.000  O
  O14      1.0000 0.25160  0.66540  0.56480  Biso   1.000  O
  O15      1.0000 0.24240  0.48980  0.00559  Biso   1.000  O
  O16      1.0000 0.39430  0.50020  0.03889  Biso   1.000  O
  O17      1.0000 0.32670  0.43730  0.07160  Biso   1.000  O
  O18      1.0000 0.67820  0.12530  0.00914  Biso   1.000  O
  O19      1.0000 0.69720  0.09150  0.07270  Biso   1.000  O
  O20      1.0000 0.17460  0.52600  0.09383  Biso   1.000  O
  O21      1.0000 0.17150  0.43220  0.07790  Biso   1.000  O
  O22      1.0000 0.23410  0.47230  0.41094  Biso   1.000  O
  O23      1.0000 0.13800  0.47680  0.44500  Biso   1.000  O
  O24      1.0000 0.78180  0.12280  0.46480  Biso   1.000  O
  O25      1.0000 0.67920  0.10960  0.48693  Biso   1.000  O
  O26      1.0000 0.40170  0.45330  0.50989  Biso   1.000  O
  O27      1.0000 0.37880  0.47900  0.44398  Biso   1.000  O
  O28      1.0000 0.24840  0.33460  0.06480  Biso   1.000  O
  O29      1.0000 0.74240  0.01020  0.99441  Biso   1.000  O
  O30      1.0000 0.89430  0.99980  0.96111  Biso   1.000  O
  O31      1.0000 0.82670  0.06270  0.92840  Biso   1.000  O
  O32      1.0000 0.17820  0.37470  0.99086  Biso   1.000  O
  O33      1.0000 0.19720  0.40850  0.92730  Biso   1.000  O
  O34      1.0000 0.67460  0.97400  0.90617  Biso   1.000  O
  O35      1.0000 0.67150  0.06780  0.92210  Biso   1.000  O
  O36      1.0000 0.73410  0.02770  0.58906  Biso   1.000  O
  O37      1.0000 0.63800  0.02320  0.55500  Biso   1.000  O
  O38      1.0000 0.28180  0.37720  0.53520  Biso   1.000  O
  O39      1.0000 0.17920  0.39040  0.51307  Biso   1.000  O
  O40      1.0000 0.90170  0.04670  0.49011  Biso   1.000  O
  O41      1.0000 0.87880  0.02100  0.55602  Biso   1.000  O
  O42      1.0000 0.74840  0.16540  0.93520  Biso   1.000  O
  O43      1.0000 0.75760  0.98980  0.49441  Biso   1.000  O
  O44      1.0000 0.60570  0.00020  0.46111  Biso   1.000  O
  O45      1.0000 0.67330  0.93730  0.42840  Biso   1.000  O
  O46      1.0000 0.32180  0.62530  0.49086  Biso   1.000  O
  O47      1.0000 0.30280  0.59150  0.42730  Biso   1.000  O
  O48      1.0000 0.82540  0.02600  0.40617  Biso   1.000  O
  O49      1.0000 0.82850  0.93220  0.42210  Biso   1.000  O
  O50      1.0000 0.76590  0.97230  0.08906  Biso   1.000  O
  O51      1.0000 0.86200  0.97680  0.05500  Biso   1.000  O
  O52      1.0000 0.21820  0.62280  0.03520  Biso   1.000  O
  O53      1.0000 0.32080  0.60960  0.01307  Biso   1.000  O
  O54      1.0000 0.59830  0.95330  0.99011  Biso   1.000  O
  O55      1.0000 0.62120  0.97900  0.05602  Biso   1.000  O
  O56      1.0000 0.75160  0.83460  0.43520  Biso   1.000  O
