data_QUSBIQ_charged
_audit_creation_date              2014-07-02
_audit_creation_method            'Materials Studio'
_symmetry_space_group_name_H-M    'P1'
_symmetry_Int_Tables_number       1
_symmetry_cell_setting            triclinic
loop_
_symmetry_equiv_pos_as_xyz
  x,y,z
_cell_length_a                    11.9893
_cell_length_b                    16.1192
_cell_length_c                    16.1192
_cell_angle_alpha                 120.0000
_cell_angle_beta                  90.0000
_cell_angle_gamma                 90.0000
loop_
_atom_site_label
_atom_site_type_symbol
_atom_site_fract_x
_atom_site_fract_y
_atom_site_fract_z
_atom_site_U_iso_or_equiv
_atom_site_adp_type
_atom_site_occupancy
Cd1    Cd    0.83333   0.00000   0.50000   0.01267  Uiso   1.00
Cd2    Cd    0.16667   0.50000   0.00000   0.01267  Uiso   1.00
Cd3    Cd    0.50000   0.50000   0.50000   0.01267  Uiso   1.00
H1     H     0.56960   0.27780   0.62280   0.01267  Uiso   1.00
H2     H     0.57340   0.13750   0.77020   0.01267  Uiso   1.00
H3     H     0.90293   0.34500   0.72220   0.01267  Uiso   1.00
H4     H     0.90673   0.63270   0.86250   0.01267  Uiso   1.00
H5     H     0.23627   0.37720   0.65500   0.01267  Uiso   1.00
H6     H     0.24007   0.22980   0.36730   0.01267  Uiso   1.00
H7     H     0.56960   0.72220   0.37720   0.01267  Uiso   1.00
H8     H     0.57340   0.86250   0.22980   0.01267  Uiso   1.00
H9     H     0.90293   0.65500   0.27780   0.01267  Uiso   1.00
H10    H     0.90673   0.36730   0.13750   0.01267  Uiso   1.00
H11    H     0.23627   0.62280   0.34500   0.01267  Uiso   1.00
H12    H     0.24007   0.77020   0.63270   0.01267  Uiso   1.00
H13    H     0.76373   0.65500   0.37720   0.01267  Uiso   1.00
H14    H     0.75993   0.36730   0.22980   0.01267  Uiso   1.00
H15    H     0.43040   0.62280   0.27780   0.01267  Uiso   1.00
H16    H     0.42660   0.77020   0.13750   0.01267  Uiso   1.00
H17    H     0.09707   0.72220   0.34500   0.01267  Uiso   1.00
H18    H     0.09327   0.86250   0.63270   0.01267  Uiso   1.00
H19    H     0.76373   0.34500   0.62280   0.01267  Uiso   1.00
H20    H     0.75993   0.63270   0.77020   0.01267  Uiso   1.00
H21    H     0.43040   0.37720   0.72220   0.01267  Uiso   1.00
H22    H     0.42660   0.22980   0.86250   0.01267  Uiso   1.00
H23    H     0.09707   0.27780   0.65500   0.01267  Uiso   1.00
H24    H     0.09327   0.13750   0.36730   0.01267  Uiso   1.00
C1     C     0.67740   0.13240   0.62140   0.01267  Uiso   1.00
C2     C     0.58660   0.19770   0.68660   0.01267  Uiso   1.00
C3     C     0.54230   0.26930   0.67210   0.01267  Uiso   1.00
C4     C     0.54350   0.18450   0.75940   0.01267  Uiso   1.00
C5     C     0.01073   0.48900   0.86760   0.01267  Uiso   1.00
C6     C     0.91993   0.48890   0.80230   0.01267  Uiso   1.00
C7     C     0.87563   0.40280   0.73070   0.01267  Uiso   1.00
C8     C     0.87683   0.57490   0.81550   0.01267  Uiso   1.00
C9     C     0.34407   0.37860   0.51100   0.01267  Uiso   1.00
C10    C     0.25327   0.31340   0.51110   0.01267  Uiso   1.00
C11    C     0.20897   0.32790   0.59720   0.01267  Uiso   1.00
C12    C     0.21017   0.24060   0.42510   0.01267  Uiso   1.00
C13    C     0.67740   0.86760   0.37860   0.01267  Uiso   1.00
C14    C     0.58660   0.80230   0.31340   0.01267  Uiso   1.00
C15    C     0.54230   0.73070   0.32790   0.01267  Uiso   1.00
C16    C     0.54350   0.81550   0.24060   0.01267  Uiso   1.00
C17    C     0.01073   0.51100   0.13240   0.01267  Uiso   1.00
C18    C     0.91993   0.51110   0.19770   0.01267  Uiso   1.00
C19    C     0.87563   0.59720   0.26930   0.01267  Uiso   1.00
C20    C     0.87683   0.42510   0.18450   0.01267  Uiso   1.00
C21    C     0.34407   0.62140   0.48900   0.01267  Uiso   1.00
C22    C     0.25327   0.68660   0.48890   0.01267  Uiso   1.00
C23    C     0.20897   0.67210   0.40280   0.01267  Uiso   1.00
C24    C     0.21017   0.75940   0.57490   0.01267  Uiso   1.00
C25    C     0.65593   0.51100   0.37860   0.01267  Uiso   1.00
C26    C     0.74673   0.51110   0.31340   0.01267  Uiso   1.00
C27    C     0.79103   0.59720   0.32790   0.01267  Uiso   1.00
C28    C     0.78983   0.42510   0.24060   0.01267  Uiso   1.00
C29    C     0.32260   0.62140   0.13240   0.01267  Uiso   1.00
C30    C     0.41340   0.68660   0.19770   0.01267  Uiso   1.00
C31    C     0.45770   0.67210   0.26930   0.01267  Uiso   1.00
C32    C     0.45650   0.75940   0.18450   0.01267  Uiso   1.00
C33    C     0.98927   0.86760   0.48900   0.01267  Uiso   1.00
C34    C     0.08007   0.80230   0.48890   0.01267  Uiso   1.00
C35    C     0.12437   0.73070   0.40280   0.01267  Uiso   1.00
C36    C     0.12317   0.81550   0.57490   0.01267  Uiso   1.00
C37    C     0.65593   0.48900   0.62140   0.01267  Uiso   1.00
C38    C     0.74673   0.48890   0.68660   0.01267  Uiso   1.00
C39    C     0.79103   0.40280   0.67210   0.01267  Uiso   1.00
C40    C     0.78983   0.57490   0.75940   0.01267  Uiso   1.00
C41    C     0.32260   0.37860   0.86760   0.01267  Uiso   1.00
C42    C     0.41340   0.31340   0.80230   0.01267  Uiso   1.00
C43    C     0.45770   0.32790   0.73070   0.01267  Uiso   1.00
C44    C     0.45650   0.24060   0.81550   0.01267  Uiso   1.00
C45    C     0.98927   0.13240   0.51100   0.01267  Uiso   1.00
C46    C     0.08007   0.19770   0.51110   0.01267  Uiso   1.00
C47    C     0.12437   0.26930   0.59720   0.01267  Uiso   1.00
C48    C     0.12317   0.18450   0.42510   0.01267  Uiso   1.00
O1     O     0.69730   0.13240   0.54640   0.01267  Uiso   1.00
O2     O     0.72370   0.07610   0.64120   0.01267  Uiso   1.00
O3     O     0.03063   0.41400   0.86760   0.01267  Uiso   1.00
O4     O     0.05703   0.56510   0.92390   0.01267  Uiso   1.00
O5     O     0.36397   0.45360   0.58600   0.01267  Uiso   1.00
O6     O     0.39037   0.35880   0.43490   0.01267  Uiso   1.00
O7     O     0.69730   0.86760   0.45360   0.01267  Uiso   1.00
O8     O     0.72370   0.92390   0.35880   0.01267  Uiso   1.00
O9     O     0.03063   0.58600   0.13240   0.01267  Uiso   1.00
O10    O     0.05703   0.43490   0.07610   0.01267  Uiso   1.00
O11    O     0.36397   0.54640   0.41400   0.01267  Uiso   1.00
O12    O     0.39037   0.64120   0.56510   0.01267  Uiso   1.00
O13    O     0.63603   0.58600   0.45360   0.01267  Uiso   1.00
O14    O     0.60963   0.43490   0.35880   0.01267  Uiso   1.00
O15    O     0.30270   0.54640   0.13240   0.01267  Uiso   1.00
O16    O     0.27630   0.64120   0.07610   0.01267  Uiso   1.00
O17    O     0.96937   0.86760   0.41400   0.01267  Uiso   1.00
O18    O     0.94297   0.92390   0.56510   0.01267  Uiso   1.00
O19    O     0.63603   0.41400   0.54640   0.01267  Uiso   1.00
O20    O     0.60963   0.56510   0.64120   0.01267  Uiso   1.00
O21    O     0.30270   0.45360   0.86760   0.01267  Uiso   1.00
O22    O     0.27630   0.35880   0.92390   0.01267  Uiso   1.00
O23    O     0.96937   0.13240   0.58600   0.01267  Uiso   1.00
O24    O     0.94297   0.07610   0.43490   0.01267  Uiso   1.00
H25    H     0.95150   0.96620   0.26630   0.01267  Uiso   1.00
H26    H     0.91330   0.94610   0.16480   0.01267  Uiso   1.00
H27    H     0.03780   0.97300   0.19680   0.01267  Uiso   1.00
H28    H     0.04850   0.73370   0.03380   0.01267  Uiso   1.00
H29    H     0.08670   0.83520   0.05390   0.01267  Uiso   1.00
H30    H     0.96220   0.80320   0.02700   0.01267  Uiso   1.00
C49    C     0.97340   0.93960   0.20050   0.01267  Uiso   1.00
C50    C     0.02660   0.79950   0.06040   0.01267  Uiso   1.00
N1     N     0.00000   0.83925   0.16075   0.01267  Uiso   1.00
H31    H     0.28483   0.30010   0.03380   0.01267  Uiso   1.00
H32    H     0.24663   0.21870   0.05390   0.01267  Uiso   1.00
H33    H     0.37113   0.22380   0.02700   0.01267  Uiso   1.00
H34    H     0.38183   0.30010   0.26630   0.01267  Uiso   1.00
H35    H     0.42003   0.21870   0.16480   0.01267  Uiso   1.00
H36    H     0.29553   0.22380   0.19680   0.01267  Uiso   1.00
C51    C     0.30673   0.26090   0.06040   0.01267  Uiso   1.00
C52    C     0.35993   0.26090   0.20050   0.01267  Uiso   1.00
N2     N     0.33333   0.32150   0.16075   0.01267  Uiso   1.00
H37    H     0.61817   0.73370   0.69990   0.01267  Uiso   1.00
H38    H     0.57997   0.83520   0.78130   0.01267  Uiso   1.00
H39    H     0.70447   0.80320   0.77620   0.01267  Uiso   1.00
H40    H     0.71517   0.96620   0.69990   0.01267  Uiso   1.00
H41    H     0.75337   0.94610   0.78130   0.01267  Uiso   1.00
H42    H     0.62887   0.97300   0.77620   0.01267  Uiso   1.00
C53    C     0.64007   0.79950   0.73910   0.01267  Uiso   1.00
C54    C     0.69327   0.93960   0.73910   0.01267  Uiso   1.00
N3     N     0.66667   0.83925   0.67850   0.01267  Uiso   1.00
H43    H     0.95150   0.03380   0.73370   0.01267  Uiso   1.00
H44    H     0.91330   0.05390   0.83520   0.01267  Uiso   1.00
H45    H     0.03780   0.02700   0.80320   0.01267  Uiso   1.00
H46    H     0.04850   0.26630   0.96620   0.01267  Uiso   1.00
H47    H     0.08670   0.16480   0.94610   0.01267  Uiso   1.00
H48    H     0.96220   0.19680   0.97300   0.01267  Uiso   1.00
C55    C     0.97340   0.06040   0.79950   0.01267  Uiso   1.00
C56    C     0.02660   0.20050   0.93960   0.01267  Uiso   1.00
N4     N     0.00000   0.16075   0.83925   0.01267  Uiso   1.00
H49    H     0.28483   0.69990   0.96620   0.01267  Uiso   1.00
H50    H     0.24663   0.78130   0.94610   0.01267  Uiso   1.00
H51    H     0.37113   0.77620   0.97300   0.01267  Uiso   1.00
H52    H     0.38183   0.69990   0.73370   0.01267  Uiso   1.00
H53    H     0.42003   0.78130   0.83520   0.01267  Uiso   1.00
H54    H     0.29553   0.77620   0.80320   0.01267  Uiso   1.00
C57    C     0.30673   0.73910   0.93960   0.01267  Uiso   1.00
C58    C     0.35993   0.73910   0.79950   0.01267  Uiso   1.00
N5     N     0.33333   0.67850   0.83925   0.01267  Uiso   1.00
H55    H     0.61817   0.26630   0.30010   0.01267  Uiso   1.00
H56    H     0.57997   0.16480   0.21870   0.01267  Uiso   1.00
H57    H     0.70447   0.19680   0.22380   0.01267  Uiso   1.00
H58    H     0.71517   0.03380   0.30010   0.01267  Uiso   1.00
H59    H     0.75337   0.05390   0.21870   0.01267  Uiso   1.00
H60    H     0.62887   0.02700   0.22380   0.01267  Uiso   1.00
C59    C     0.64007   0.20050   0.26090   0.01267  Uiso   1.00
C60    C     0.69327   0.06040   0.26090   0.01267  Uiso   1.00
N6     N     0.66667   0.16075   0.32150   0.01267  Uiso   1.00
