data_image0
_cell_length_a       23.3033
_cell_length_b       23.3033
_cell_length_c       6.5788
_cell_angle_alpha    90
_cell_angle_beta     90
_cell_angle_gamma    90

_symmetry_space_group_name_H-M    "P 1"
_symmetry_int_tables_number       1

loop_
  _symmetry_equiv_pos_as_xyz
  'x, y, z'

loop_
  _atom_site_label
  _atom_site_occupancy
  _atom_site_fract_x
  _atom_site_fract_y
  _atom_site_fract_z
  _atom_site_thermal_displace_type
  _atom_site_B_iso_or_equiv
  _atom_site_type_symbol
  O1       1.0000 0.96275  0.54434  0.45450  Biso   1.000  O
  O2       1.0000 0.92558  0.57570  0.73230  Biso   1.000  O
  C1       1.0000 0.92917  0.57810  0.54720  Biso   1.000  C
  C2       1.0000 0.89788  0.62254  0.42760  Biso   1.000  C
  C3       1.0000 0.85430  0.65320  0.52360  Biso   1.000  C
  H1       1.0000 0.84460  0.64470  0.65730  Biso   1.000  H
  C4       1.0000 0.82550  0.69620  0.42230  Biso   1.000  C
  H2       1.0000 0.79660  0.71660  0.48780  Biso   1.000  H
  C5       1.0000 0.83930  0.70867  0.22750  Biso   1.000  C
  C6       1.0000 0.88090  0.67560  0.12590  Biso   1.000  C
  H3       1.0000 0.88870  0.68230  0.98920  Biso   1.000  H
  C7       1.0000 0.90989  0.63389  0.22810  Biso   1.000  C
  H4       1.0000 0.93810  0.61290  0.16160  Biso   1.000  H
  O3       1.0000 0.46275  0.04434  0.95450  Biso   1.000  O
  O4       1.0000 0.42558  0.07570  0.23230  Biso   1.000  O
  C8       1.0000 0.42917  0.07810  0.04720  Biso   1.000  C
  C9       1.0000 0.39788  0.12254  0.92760  Biso   1.000  C
  C10      1.0000 0.35430  0.15320  0.02360  Biso   1.000  C
  H5       1.0000 0.34460  0.14470  0.15730  Biso   1.000  H
  C11      1.0000 0.32550  0.19620  0.92230  Biso   1.000  C
  H6       1.0000 0.29660  0.21660  0.98780  Biso   1.000  H
  C12      1.0000 0.33930  0.20867  0.72750  Biso   1.000  C
  C13      1.0000 0.38090  0.17560  0.62590  Biso   1.000  C
  H7       1.0000 0.38870  0.18230  0.48920  Biso   1.000  H
  C14      1.0000 0.40989  0.13389  0.72810  Biso   1.000  C
  H8       1.0000 0.43810  0.11290  0.66160  Biso   1.000  H
  O5       1.0000 0.03725  0.45566  0.45450  Biso   1.000  O
  O6       1.0000 0.07442  0.42430  0.73230  Biso   1.000  O
  C15      1.0000 0.07083  0.42190  0.54720  Biso   1.000  C
  C16      1.0000 0.10212  0.37746  0.42760  Biso   1.000  C
  C17      1.0000 0.14570  0.34680  0.52360  Biso   1.000  C
  H9       1.0000 0.15540  0.35530  0.65730  Biso   1.000  H
  C18      1.0000 0.17450  0.30380  0.42230  Biso   1.000  C
  H10      1.0000 0.20340  0.28340  0.48780  Biso   1.000  H
  C19      1.0000 0.16070  0.29133  0.22750  Biso   1.000  C
  C20      1.0000 0.11910  0.32440  0.12590  Biso   1.000  C
  H11      1.0000 0.11130  0.31770  0.98920  Biso   1.000  H
  C21      1.0000 0.09011  0.36611  0.22810  Biso   1.000  C
  H12      1.0000 0.06190  0.38710  0.16160  Biso   1.000  H
  O7       1.0000 0.53725  0.95566  0.95450  Biso   1.000  O
  O8       1.0000 0.57442  0.92430  0.23230  Biso   1.000  O
  C22      1.0000 0.57083  0.92190  0.04720  Biso   1.000  C
  C23      1.0000 0.60212  0.87746  0.92760  Biso   1.000  C
  C24      1.0000 0.64570  0.84680  0.02360  Biso   1.000  C
  H13      1.0000 0.65540  0.85530  0.15730  Biso   1.000  H
  C25      1.0000 0.67450  0.80380  0.92230  Biso   1.000  C
  H14      1.0000 0.70340  0.78340  0.98780  Biso   1.000  H
  C26      1.0000 0.66070  0.79133  0.72750  Biso   1.000  C
  C27      1.0000 0.61910  0.82440  0.62590  Biso   1.000  C
  H15      1.0000 0.61130  0.81770  0.48920  Biso   1.000  H
  C28      1.0000 0.59011  0.86611  0.72810  Biso   1.000  C
  H16      1.0000 0.56190  0.88710  0.66160  Biso   1.000  H
  O9       1.0000 0.54434  0.03725  0.54550  Biso   1.000  O
  O10      1.0000 0.57570  0.07442  0.26770  Biso   1.000  O
  C29      1.0000 0.57810  0.07083  0.45280  Biso   1.000  C
  C30      1.0000 0.62254  0.10212  0.57240  Biso   1.000  C
  C31      1.0000 0.65320  0.14570  0.47640  Biso   1.000  C
  H17      1.0000 0.64470  0.15540  0.34270  Biso   1.000  H
  C32      1.0000 0.69620  0.17450  0.57770  Biso   1.000  C
  H18      1.0000 0.71660  0.20340  0.51220  Biso   1.000  H
  C33      1.0000 0.70867  0.16070  0.77250  Biso   1.000  C
  C34      1.0000 0.67560  0.11910  0.87410  Biso   1.000  C
  H19      1.0000 0.68230  0.11130  0.01080  Biso   1.000  H
  C35      1.0000 0.63389  0.09011  0.77190  Biso   1.000  C
  H20      1.0000 0.61290  0.06190  0.83840  Biso   1.000  H
  O11      1.0000 0.04434  0.53725  0.04550  Biso   1.000  O
  O12      1.0000 0.07570  0.57442  0.76770  Biso   1.000  O
  C36      1.0000 0.07810  0.57083  0.95280  Biso   1.000  C
  C37      1.0000 0.12254  0.60212  0.07240  Biso   1.000  C
  C38      1.0000 0.15320  0.64570  0.97640  Biso   1.000  C
  H21      1.0000 0.14470  0.65540  0.84270  Biso   1.000  H
  C39      1.0000 0.19620  0.67450  0.07770  Biso   1.000  C
  H22      1.0000 0.21660  0.70340  0.01220  Biso   1.000  H
  C40      1.0000 0.20867  0.66070  0.27250  Biso   1.000  C
  C41      1.0000 0.17560  0.61910  0.37410  Biso   1.000  C
  H23      1.0000 0.18230  0.61130  0.51080  Biso   1.000  H
  C42      1.0000 0.13389  0.59011  0.27190  Biso   1.000  C
  H24      1.0000 0.11290  0.56190  0.33840  Biso   1.000  H
  O13      1.0000 0.45566  0.96275  0.54550  Biso   1.000  O
  O14      1.0000 0.42430  0.92558  0.26770  Biso   1.000  O
  C43      1.0000 0.42190  0.92917  0.45280  Biso   1.000  C
  C44      1.0000 0.37746  0.89788  0.57240  Biso   1.000  C
  C45      1.0000 0.34680  0.85430  0.47640  Biso   1.000  C
  H25      1.0000 0.35530  0.84460  0.34270  Biso   1.000  H
  C46      1.0000 0.30380  0.82550  0.57770  Biso   1.000  C
  H26      1.0000 0.28340  0.79660  0.51220  Biso   1.000  H
  C47      1.0000 0.29133  0.83930  0.77250  Biso   1.000  C
  C48      1.0000 0.32440  0.88090  0.87410  Biso   1.000  C
  H27      1.0000 0.31770  0.88870  0.01080  Biso   1.000  H
  C49      1.0000 0.36611  0.90989  0.77190  Biso   1.000  C
  H28      1.0000 0.38710  0.93810  0.83840  Biso   1.000  H
  O15      1.0000 0.95566  0.46275  0.04550  Biso   1.000  O
  O16      1.0000 0.92430  0.42558  0.76770  Biso   1.000  O
  C50      1.0000 0.92190  0.42917  0.95280  Biso   1.000  C
  C51      1.0000 0.87746  0.39788  0.07240  Biso   1.000  C
  C52      1.0000 0.84680  0.35430  0.97640  Biso   1.000  C
  H29      1.0000 0.85530  0.34460  0.84270  Biso   1.000  H
  C53      1.0000 0.80380  0.32550  0.07770  Biso   1.000  C
  H30      1.0000 0.78340  0.29660  0.01220  Biso   1.000  H
  C54      1.0000 0.79133  0.33930  0.27250  Biso   1.000  C
  C55      1.0000 0.82440  0.38090  0.37410  Biso   1.000  C
  H31      1.0000 0.81770  0.38870  0.51080  Biso   1.000  H
  C56      1.0000 0.86611  0.40989  0.27190  Biso   1.000  C
  H32      1.0000 0.88710  0.43810  0.33840  Biso   1.000  H
  O17      1.0000 0.53725  0.54434  0.29550  Biso   1.000  O
  O18      1.0000 0.57442  0.57570  0.01770  Biso   1.000  O
  C57      1.0000 0.57083  0.57810  0.20280  Biso   1.000  C
  C58      1.0000 0.60212  0.62254  0.32240  Biso   1.000  C
  C59      1.0000 0.64570  0.65320  0.22640  Biso   1.000  C
  H33      1.0000 0.65540  0.64470  0.09270  Biso   1.000  H
  C60      1.0000 0.67450  0.69620  0.32770  Biso   1.000  C
  H34      1.0000 0.70340  0.71660  0.26220  Biso   1.000  H
  C61      1.0000 0.66070  0.70867  0.52250  Biso   1.000  C
  C62      1.0000 0.61910  0.67560  0.62410  Biso   1.000  C
  H35      1.0000 0.61130  0.68230  0.76080  Biso   1.000  H
  C63      1.0000 0.59011  0.63389  0.52190  Biso   1.000  C
  H36      1.0000 0.56190  0.61290  0.58840  Biso   1.000  H
  O19      1.0000 0.03725  0.04434  0.79550  Biso   1.000  O
  O20      1.0000 0.07442  0.07570  0.51770  Biso   1.000  O
  C64      1.0000 0.07083  0.07810  0.70280  Biso   1.000  C
  C65      1.0000 0.10212  0.12254  0.82240  Biso   1.000  C
  C66      1.0000 0.14570  0.15320  0.72640  Biso   1.000  C
  H37      1.0000 0.15540  0.14470  0.59270  Biso   1.000  H
  C67      1.0000 0.17450  0.19620  0.82770  Biso   1.000  C
  H38      1.0000 0.20340  0.21660  0.76220  Biso   1.000  H
  C68      1.0000 0.16070  0.20867  0.02250  Biso   1.000  C
  C69      1.0000 0.11910  0.17560  0.12410  Biso   1.000  C
  H39      1.0000 0.11130  0.18230  0.26080  Biso   1.000  H
  C70      1.0000 0.09011  0.13389  0.02190  Biso   1.000  C
  H40      1.0000 0.06190  0.11290  0.08840  Biso   1.000  H
  O21      1.0000 0.46275  0.45566  0.29550  Biso   1.000  O
  O22      1.0000 0.42558  0.42430  0.01770  Biso   1.000  O
  C71      1.0000 0.42917  0.42190  0.20280  Biso   1.000  C
  C72      1.0000 0.39788  0.37746  0.32240  Biso   1.000  C
  C73      1.0000 0.35430  0.34680  0.22640  Biso   1.000  C
  H41      1.0000 0.34460  0.35530  0.09270  Biso   1.000  H
  C74      1.0000 0.32550  0.30380  0.32770  Biso   1.000  C
  H42      1.0000 0.29660  0.28340  0.26220  Biso   1.000  H
  C75      1.0000 0.33930  0.29133  0.52250  Biso   1.000  C
  C76      1.0000 0.38090  0.32440  0.62410  Biso   1.000  C
  H43      1.0000 0.38870  0.31770  0.76080  Biso   1.000  H
  C77      1.0000 0.40989  0.36611  0.52190  Biso   1.000  C
  H44      1.0000 0.43810  0.38710  0.58840  Biso   1.000  H
  O23      1.0000 0.96275  0.95566  0.79550  Biso   1.000  O
  O24      1.0000 0.92558  0.92430  0.51770  Biso   1.000  O
  C78      1.0000 0.92917  0.92190  0.70280  Biso   1.000  C
  C79      1.0000 0.89788  0.87746  0.82240  Biso   1.000  C
  C80      1.0000 0.85430  0.84680  0.72640  Biso   1.000  C
  H45      1.0000 0.84460  0.85530  0.59270  Biso   1.000  H
  C81      1.0000 0.82550  0.80380  0.82770  Biso   1.000  C
  H46      1.0000 0.79660  0.78340  0.76220  Biso   1.000  H
  C82      1.0000 0.83930  0.79133  0.02250  Biso   1.000  C
  C83      1.0000 0.88090  0.82440  0.12410  Biso   1.000  C
  H47      1.0000 0.88870  0.81770  0.26080  Biso   1.000  H
  C84      1.0000 0.90989  0.86611  0.02190  Biso   1.000  C
  H48      1.0000 0.93810  0.88710  0.08840  Biso   1.000  H
  O25      1.0000 0.95566  0.03725  0.20450  Biso   1.000  O
  O26      1.0000 0.92430  0.07442  0.48230  Biso   1.000  O
  C85      1.0000 0.92190  0.07083  0.29720  Biso   1.000  C
  C86      1.0000 0.87746  0.10212  0.17760  Biso   1.000  C
  C87      1.0000 0.84680  0.14570  0.27360  Biso   1.000  C
  H49      1.0000 0.85530  0.15540  0.40730  Biso   1.000  H
  C88      1.0000 0.80380  0.17450  0.17230  Biso   1.000  C
  H50      1.0000 0.78340  0.20340  0.23780  Biso   1.000  H
  C89      1.0000 0.79133  0.16070  0.97750  Biso   1.000  C
  C90      1.0000 0.82440  0.11910  0.87590  Biso   1.000  C
  H51      1.0000 0.81770  0.11130  0.73920  Biso   1.000  H
  C91      1.0000 0.86611  0.09011  0.97810  Biso   1.000  C
  H52      1.0000 0.88710  0.06190  0.91160  Biso   1.000  H
  O27      1.0000 0.45566  0.53725  0.70450  Biso   1.000  O
  O28      1.0000 0.42430  0.57442  0.98230  Biso   1.000  O
  C92      1.0000 0.42190  0.57083  0.79720  Biso   1.000  C
  C93      1.0000 0.37746  0.60212  0.67760  Biso   1.000  C
  C94      1.0000 0.34680  0.64570  0.77360  Biso   1.000  C
  H53      1.0000 0.35530  0.65540  0.90730  Biso   1.000  H
  C95      1.0000 0.30380  0.67450  0.67230  Biso   1.000  C
  H54      1.0000 0.28340  0.70340  0.73780  Biso   1.000  H
  C96      1.0000 0.29133  0.66070  0.47750  Biso   1.000  C
  C97      1.0000 0.32440  0.61910  0.37590  Biso   1.000  C
  H55      1.0000 0.31770  0.61130  0.23920  Biso   1.000  H
  C98      1.0000 0.36611  0.59011  0.47810  Biso   1.000  C
  H56      1.0000 0.38710  0.56190  0.41160  Biso   1.000  H
  O29      1.0000 0.04434  0.96275  0.20450  Biso   1.000  O
  O30      1.0000 0.07570  0.92558  0.48230  Biso   1.000  O
  C99      1.0000 0.07810  0.92917  0.29720  Biso   1.000  C
  C100     1.0000 0.12254  0.89788  0.17760  Biso   1.000  C
  C101     1.0000 0.15320  0.85430  0.27360  Biso   1.000  C
  H57      1.0000 0.14470  0.84460  0.40730  Biso   1.000  H
  C102     1.0000 0.19620  0.82550  0.17230  Biso   1.000  C
  H58      1.0000 0.21660  0.79660  0.23780  Biso   1.000  H
  C103     1.0000 0.20867  0.83930  0.97750  Biso   1.000  C
  C104     1.0000 0.17560  0.88090  0.87590  Biso   1.000  C
  H59      1.0000 0.18230  0.88870  0.73920  Biso   1.000  H
  C105     1.0000 0.13389  0.90989  0.97810  Biso   1.000  C
  H60      1.0000 0.11290  0.93810  0.91160  Biso   1.000  H
  O31      1.0000 0.54434  0.46275  0.70450  Biso   1.000  O
  O32      1.0000 0.57570  0.42558  0.98230  Biso   1.000  O
  C106     1.0000 0.57810  0.42917  0.79720  Biso   1.000  C
  C107     1.0000 0.62254  0.39788  0.67760  Biso   1.000  C
  C108     1.0000 0.65320  0.35430  0.77360  Biso   1.000  C
  H61      1.0000 0.64470  0.34460  0.90730  Biso   1.000  H
  C109     1.0000 0.69620  0.32550  0.67230  Biso   1.000  C
  H62      1.0000 0.71660  0.29660  0.73780  Biso   1.000  H
  C110     1.0000 0.70867  0.33930  0.47750  Biso   1.000  C
  C111     1.0000 0.67560  0.38090  0.37590  Biso   1.000  C
  H63      1.0000 0.68230  0.38870  0.23920  Biso   1.000  H
  C112     1.0000 0.63389  0.40989  0.47810  Biso   1.000  C
  H64      1.0000 0.61290  0.43810  0.41160  Biso   1.000  H
  Cd1      1.0000 0.00000  0.50000  0.75000  Biso   1.000  Cd
  Cd2      1.0000 0.50000  0.00000  0.25000  Biso   1.000  Cd
  Cd3      1.0000 0.50000  0.50000  0.00000  Biso   1.000  Cd
  Cd4      1.0000 0.00000  0.00000  0.50000  Biso   1.000  Cd
  O33      1.0000 0.80852  0.75000  0.12500  Biso   1.000  O
  O34      1.0000 0.30852  0.25000  0.62500  Biso   1.000  O
  O35      1.0000 0.19148  0.25000  0.12500  Biso   1.000  O
  O36      1.0000 0.75000  0.19148  0.87500  Biso   1.000  O
  O37      1.0000 0.25000  0.69148  0.37500  Biso   1.000  O
  O38      1.0000 0.25000  0.80852  0.87500  Biso   1.000  O
  O39      1.0000 0.75000  0.30852  0.37500  Biso   1.000  O
  O40      1.0000 0.69148  0.75000  0.62500  Biso   1.000  O
  Li1      1.0000 0.00000  0.50000  0.25000  Biso   1.000  Li
  Li2      1.0000 0.50000  0.00000  0.75000  Biso   1.000  Li
  Li3      1.0000 0.50000  0.50000  0.50000  Biso   1.000  Li
  Li4      1.0000 0.00000  0.00000  0.00000  Biso   1.000  Li
