data_image0
_cell_length_a       11.6884
_cell_length_b       5.5643
_cell_length_c       22.8159
_cell_angle_alpha    90
_cell_angle_beta     100.691
_cell_angle_gamma    90

_symmetry_space_group_name_H-M    "P 1"
_symmetry_int_tables_number       1

loop_
  _symmetry_equiv_pos_as_xyz
  'x, y, z'

loop_
  _atom_site_label
  _atom_site_occupancy
  _atom_site_fract_x
  _atom_site_fract_y
  _atom_site_fract_z
  _atom_site_thermal_displace_type
  _atom_site_B_iso_or_equiv
  _atom_site_type_symbol
  Ca1      1.0000 0.86258  0.75633  0.27818  Biso   1.000  Ca
  S1       1.0000 0.10145  0.96454  0.39330  Biso   1.000  S
  O1       1.0000 0.23970  0.91505  0.69092  Biso   1.000  O
  O2       1.0000 0.23621  0.52343  0.67212  Biso   1.000  O
  O3       1.0000 0.54211  0.91879  0.24461  Biso   1.000  O
  O4       1.0000 0.51296  0.52383  0.25348  Biso   1.000  O
  O5       1.0000 0.08446  0.22059  0.38950  Biso   1.000  O
  O6       1.0000 0.00494  0.80562  0.37030  Biso   1.000  O
  C1       1.0000 0.14670  0.89090  0.46929  Biso   1.000  C
  C2       1.0000 0.20595  0.06200  0.50775  Biso   1.000  C
  H1       1.0000 0.22780  0.21110  0.49280  Biso   1.000  H
  C3       1.0000 0.23276  0.01220  0.56837  Biso   1.000  C
  H2       1.0000 0.27220  0.12830  0.59530  Biso   1.000  H
  C4       1.0000 0.20170  0.79140  0.58960  Biso   1.000  C
  C5       1.0000 0.14677  0.61880  0.55025  Biso   1.000  C
  H3       1.0000 0.12870  0.46630  0.56490  Biso   1.000  H
  C6       1.0000 0.11802  0.66700  0.48962  Biso   1.000  C
  H4       1.0000 0.07960  0.54990  0.46260  Biso   1.000  H
  C7       1.0000 0.22619  0.73840  0.65525  Biso   1.000  C
  C8       1.0000 0.21873  0.89080  0.35811  Biso   1.000  C
  C9       1.0000 0.30779  0.05910  0.35955  Biso   1.000  C
  H5       1.0000 0.30710  0.20510  0.38110  Biso   1.000  H
  C10      1.0000 0.39763  0.00980  0.32897  Biso   1.000  C
  H6       1.0000 0.45760  0.12450  0.32850  Biso   1.000  H
  C11      1.0000 0.39952  0.79180  0.29902  Biso   1.000  C
  C12      1.0000 0.31163  0.62320  0.29972  Biso   1.000  C
  H7       1.0000 0.31460  0.47320  0.28010  Biso   1.000  H
  C13      1.0000 0.21940  0.67210  0.32884  Biso   1.000  C
  H8       1.0000 0.15860  0.55880  0.32870  Biso   1.000  H
  C14      1.0000 0.49352  0.74100  0.26289  Biso   1.000  C
  Ca2      1.0000 0.63742  0.25633  0.22182  Biso   1.000  Ca
  S2       1.0000 0.39855  0.46454  0.10670  Biso   1.000  S
  O7       1.0000 0.26030  0.41505  0.80908  Biso   1.000  O
  O8       1.0000 0.26379  0.02343  0.82788  Biso   1.000  O
  O9       1.0000 0.95789  0.41879  0.25539  Biso   1.000  O
  O10      1.0000 0.98704  0.02383  0.24652  Biso   1.000  O
  O11      1.0000 0.41554  0.72059  0.11050  Biso   1.000  O
  O12      1.0000 0.49506  0.30562  0.12970  Biso   1.000  O
  C15      1.0000 0.35330  0.39090  0.03071  Biso   1.000  C
  C16      1.0000 0.29405  0.56200  0.99225  Biso   1.000  C
  H9       1.0000 0.27220  0.71110  0.00720  Biso   1.000  H
  C17      1.0000 0.26724  0.51220  0.93163  Biso   1.000  C
  H10      1.0000 0.22780  0.62830  0.90470  Biso   1.000  H
  C18      1.0000 0.29830  0.29140  0.91040  Biso   1.000  C
  C19      1.0000 0.35323  0.11880  0.94975  Biso   1.000  C
  H11      1.0000 0.37130  0.96630  0.93510  Biso   1.000  H
  C20      1.0000 0.38198  0.16700  0.01038  Biso   1.000  C
  H12      1.0000 0.42040  0.04990  0.03740  Biso   1.000  H
  C21      1.0000 0.27381  0.23840  0.84475  Biso   1.000  C
  C22      1.0000 0.28127  0.39080  0.14189  Biso   1.000  C
  C23      1.0000 0.19221  0.55910  0.14045  Biso   1.000  C
  H13      1.0000 0.19290  0.70510  0.11890  Biso   1.000  H
  C24      1.0000 0.10237  0.50980  0.17103  Biso   1.000  C
  H14      1.0000 0.04240  0.62450  0.17150  Biso   1.000  H
  C25      1.0000 0.10048  0.29180  0.20098  Biso   1.000  C
  C26      1.0000 0.18837  0.12320  0.20028  Biso   1.000  C
  H15      1.0000 0.18540  0.97320  0.21990  Biso   1.000  H
  C27      1.0000 0.28060  0.17210  0.17116  Biso   1.000  C
  H16      1.0000 0.34140  0.05880  0.17130  Biso   1.000  H
  C28      1.0000 0.00648  0.24100  0.23711  Biso   1.000  C
  Ca3      1.0000 0.13742  0.24367  0.72182  Biso   1.000  Ca
  S3       1.0000 0.89855  0.03546  0.60670  Biso   1.000  S
  O13      1.0000 0.76030  0.08495  0.30908  Biso   1.000  O
  O14      1.0000 0.76379  0.47657  0.32788  Biso   1.000  O
  O15      1.0000 0.45789  0.08121  0.75539  Biso   1.000  O
  O16      1.0000 0.48704  0.47617  0.74652  Biso   1.000  O
  O17      1.0000 0.91554  0.77941  0.61050  Biso   1.000  O
  O18      1.0000 0.99506  0.19438  0.62970  Biso   1.000  O
  C29      1.0000 0.85330  0.10910  0.53071  Biso   1.000  C
  C30      1.0000 0.79405  0.93800  0.49225  Biso   1.000  C
  H17      1.0000 0.77220  0.78890  0.50720  Biso   1.000  H
  C31      1.0000 0.76724  0.98780  0.43163  Biso   1.000  C
  H18      1.0000 0.72780  0.87170  0.40470  Biso   1.000  H
  C32      1.0000 0.79830  0.20860  0.41040  Biso   1.000  C
  C33      1.0000 0.85323  0.38120  0.44975  Biso   1.000  C
  H19      1.0000 0.87130  0.53370  0.43510  Biso   1.000  H
  C34      1.0000 0.88198  0.33300  0.51038  Biso   1.000  C
  H20      1.0000 0.92040  0.45010  0.53740  Biso   1.000  H
  C35      1.0000 0.77381  0.26160  0.34475  Biso   1.000  C
  C36      1.0000 0.78127  0.10920  0.64189  Biso   1.000  C
  C37      1.0000 0.69221  0.94090  0.64045  Biso   1.000  C
  H21      1.0000 0.69290  0.79490  0.61890  Biso   1.000  H
  C38      1.0000 0.60237  0.99020  0.67103  Biso   1.000  C
  H22      1.0000 0.54240  0.87550  0.67150  Biso   1.000  H
  C39      1.0000 0.60048  0.20820  0.70098  Biso   1.000  C
  C40      1.0000 0.68837  0.37680  0.70028  Biso   1.000  C
  H23      1.0000 0.68540  0.52680  0.71990  Biso   1.000  H
  C41      1.0000 0.78060  0.32790  0.67116  Biso   1.000  C
  H24      1.0000 0.84140  0.44120  0.67130  Biso   1.000  H
  C42      1.0000 0.50648  0.25900  0.73711  Biso   1.000  C
  Ca4      1.0000 0.36258  0.74367  0.77818  Biso   1.000  Ca
  S4       1.0000 0.60145  0.53546  0.89330  Biso   1.000  S
  O19      1.0000 0.73970  0.58495  0.19092  Biso   1.000  O
  O20      1.0000 0.73621  0.97657  0.17212  Biso   1.000  O
  O21      1.0000 0.04211  0.58121  0.74461  Biso   1.000  O
  O22      1.0000 0.01296  0.97617  0.75348  Biso   1.000  O
  O23      1.0000 0.58446  0.27941  0.88950  Biso   1.000  O
  O24      1.0000 0.50494  0.69438  0.87030  Biso   1.000  O
  C43      1.0000 0.64670  0.60910  0.96929  Biso   1.000  C
  C44      1.0000 0.70595  0.43800  0.00775  Biso   1.000  C
  H25      1.0000 0.72780  0.28890  0.99280  Biso   1.000  H
  C45      1.0000 0.73276  0.48780  0.06837  Biso   1.000  C
  H26      1.0000 0.77220  0.37170  0.09530  Biso   1.000  H
  C46      1.0000 0.70170  0.70860  0.08960  Biso   1.000  C
  C47      1.0000 0.64677  0.88120  0.05025  Biso   1.000  C
  H27      1.0000 0.62870  0.03370  0.06490  Biso   1.000  H
  C48      1.0000 0.61802  0.83300  0.98962  Biso   1.000  C
  H28      1.0000 0.57960  0.95010  0.96260  Biso   1.000  H
  C49      1.0000 0.72619  0.76160  0.15525  Biso   1.000  C
  C50      1.0000 0.71873  0.60920  0.85811  Biso   1.000  C
  C51      1.0000 0.80779  0.44090  0.85955  Biso   1.000  C
  H29      1.0000 0.80710  0.29490  0.88110  Biso   1.000  H
  C52      1.0000 0.89763  0.49020  0.82897  Biso   1.000  C
  H30      1.0000 0.95760  0.37550  0.82850  Biso   1.000  H
  C53      1.0000 0.89952  0.70820  0.79902  Biso   1.000  C
  C54      1.0000 0.81163  0.87680  0.79972  Biso   1.000  C
  H31      1.0000 0.81460  0.02680  0.78010  Biso   1.000  H
  C55      1.0000 0.71940  0.82790  0.82884  Biso   1.000  C
  H32      1.0000 0.65860  0.94120  0.82870  Biso   1.000  H
  C56      1.0000 0.99352  0.75900  0.76289  Biso   1.000  C
