data_image0
_cell_length_a       11.8013
_cell_length_b       5.5827
_cell_length_c       22.723
_cell_angle_alpha    90
_cell_angle_beta     100.092
_cell_angle_gamma    90

_symmetry_space_group_name_H-M    "P 1"
_symmetry_int_tables_number       1

loop_
  _symmetry_equiv_pos_as_xyz
  'x, y, z'

loop_
  _atom_site_label
  _atom_site_occupancy
  _atom_site_fract_x
  _atom_site_fract_y
  _atom_site_fract_z
  _atom_site_thermal_displace_type
  _atom_site_B_iso_or_equiv
  _atom_site_type_symbol
  Ca1      1.0000 0.63783  0.24423  0.22287  Biso   1.000  Ca
  S1       1.0000 0.40115  0.03640  0.10805  Biso   1.000  S
  O1       1.0000 0.26576  0.47530  0.82829  Biso   1.000  O
  O2       1.0000 0.26177  0.08410  0.80920  Biso   1.000  O
  O3       1.0000 0.41854  0.78160  0.11215  Biso   1.000  O
  O4       1.0000 0.49592  0.19580  0.13092  Biso   1.000  O
  O5       1.0000 0.98569  0.47620  0.24494  Biso   1.000  O
  O6       1.0000 0.95642  0.08150  0.25390  Biso   1.000  O
  C1       1.0000 0.27611  0.26090  0.84485  Biso   1.000  C
  C2       1.0000 0.30225  0.20750  0.91090  Biso   1.000  C
  C3       1.0000 0.35575  0.38050  0.95024  Biso   1.000  C
  H1       1.0000 0.37310  0.53280  0.93540  Biso   1.000  H
  C4       1.0000 0.38409  0.33290  0.01096  Biso   1.000  C
  H2       1.0000 0.42110  0.45070  0.03780  Biso   1.000  H
  C5       1.0000 0.35719  0.10880  0.03165  Biso   1.000  C
  C6       1.0000 0.29980  0.93670  0.99329  Biso   1.000  C
  H3       1.0000 0.27940  0.78730  0.00850  Biso   1.000  H
  C7       1.0000 0.27283  0.98600  0.93246  Biso   1.000  C
  H4       1.0000 0.23450  0.86940  0.90570  Biso   1.000  H
  C8       1.0000 0.28380  0.10890  0.14322  Biso   1.000  C
  C9       1.0000 0.28144  0.32870  0.17217  Biso   1.000  C
  H5       1.0000 0.34130  0.44260  0.17230  Biso   1.000  H
  C10      1.0000 0.18884  0.37640  0.20083  Biso   1.000  C
  H6       1.0000 0.18470  0.52600  0.22030  Biso   1.000  H
  C11      1.0000 0.10213  0.20750  0.20137  Biso   1.000  C
  C12      1.0000 0.00597  0.25970  0.23614  Biso   1.000  C
  C13      1.0000 0.10561  0.98940  0.17190  Biso   1.000  C
  H7       1.0000 0.04630  0.87460  0.17230  Biso   1.000  H
  C14      1.0000 0.19604  0.94010  0.14189  Biso   1.000  C
  H8       1.0000 0.19810  0.79380  0.12080  Biso   1.000  H
  Ca2      1.0000 0.86217  0.74423  0.27713  Biso   1.000  Ca
  S2       1.0000 0.09885  0.53640  0.39195  Biso   1.000  S
  O7       1.0000 0.23424  0.97530  0.67171  Biso   1.000  O
  O8       1.0000 0.23823  0.58410  0.69080  Biso   1.000  O
  O9       1.0000 0.08146  0.28160  0.38785  Biso   1.000  O
  O10      1.0000 0.00408  0.69580  0.36908  Biso   1.000  O
  O11      1.0000 0.51431  0.97620  0.25506  Biso   1.000  O
  O12      1.0000 0.54358  0.58150  0.24610  Biso   1.000  O
  C15      1.0000 0.22389  0.76090  0.65515  Biso   1.000  C
  C16      1.0000 0.19775  0.70750  0.58910  Biso   1.000  C
  C17      1.0000 0.14425  0.88050  0.54976  Biso   1.000  C
  H9       1.0000 0.12690  0.03280  0.56460  Biso   1.000  H
  C18      1.0000 0.11591  0.83290  0.48904  Biso   1.000  C
  H10      1.0000 0.07890  0.95070  0.46220  Biso   1.000  H
  C19      1.0000 0.14281  0.60880  0.46835  Biso   1.000  C
  C20      1.0000 0.20020  0.43670  0.50671  Biso   1.000  C
  H11      1.0000 0.22060  0.28730  0.49150  Biso   1.000  H
  C21      1.0000 0.22717  0.48600  0.56754  Biso   1.000  C
  H12      1.0000 0.26550  0.36940  0.59430  Biso   1.000  H
  C22      1.0000 0.21620  0.60890  0.35678  Biso   1.000  C
  C23      1.0000 0.21856  0.82870  0.32783  Biso   1.000  C
  H13      1.0000 0.15870  0.94260  0.32770  Biso   1.000  H
  C24      1.0000 0.31116  0.87640  0.29917  Biso   1.000  C
  H14      1.0000 0.31530  0.02600  0.27970  Biso   1.000  H
  C25      1.0000 0.39787  0.70750  0.29863  Biso   1.000  C
  C26      1.0000 0.49403  0.75970  0.26386  Biso   1.000  C
  C27      1.0000 0.39439  0.48940  0.32810  Biso   1.000  C
  H15      1.0000 0.45370  0.37460  0.32770  Biso   1.000  H
  C28      1.0000 0.30396  0.44010  0.35811  Biso   1.000  C
  H16      1.0000 0.30190  0.29380  0.37920  Biso   1.000  H
  Ca3      1.0000 0.36217  0.75577  0.77713  Biso   1.000  Ca
  S3       1.0000 0.59885  0.96360  0.89195  Biso   1.000  S
  O13      1.0000 0.73424  0.52470  0.17171  Biso   1.000  O
  O14      1.0000 0.73823  0.91590  0.19080  Biso   1.000  O
  O15      1.0000 0.58146  0.21840  0.88785  Biso   1.000  O
  O16      1.0000 0.50408  0.80420  0.86908  Biso   1.000  O
  O17      1.0000 0.01431  0.52380  0.75506  Biso   1.000  O
  O18      1.0000 0.04358  0.91850  0.74610  Biso   1.000  O
  C29      1.0000 0.72389  0.73910  0.15515  Biso   1.000  C
  C30      1.0000 0.69775  0.79250  0.08910  Biso   1.000  C
  C31      1.0000 0.64425  0.61950  0.04976  Biso   1.000  C
  H17      1.0000 0.62690  0.46720  0.06460  Biso   1.000  H
  C32      1.0000 0.61591  0.66710  0.98904  Biso   1.000  C
  H18      1.0000 0.57890  0.54930  0.96220  Biso   1.000  H
  C33      1.0000 0.64281  0.89120  0.96835  Biso   1.000  C
  C34      1.0000 0.70020  0.06330  0.00671  Biso   1.000  C
  H19      1.0000 0.72060  0.21270  0.99150  Biso   1.000  H
  C35      1.0000 0.72717  0.01400  0.06754  Biso   1.000  C
  H20      1.0000 0.76550  0.13060  0.09430  Biso   1.000  H
  C36      1.0000 0.71620  0.89110  0.85678  Biso   1.000  C
  C37      1.0000 0.71856  0.67130  0.82783  Biso   1.000  C
  H21      1.0000 0.65870  0.55740  0.82770  Biso   1.000  H
  C38      1.0000 0.81116  0.62360  0.79917  Biso   1.000  C
  H22      1.0000 0.81530  0.47400  0.77970  Biso   1.000  H
  C39      1.0000 0.89787  0.79250  0.79863  Biso   1.000  C
  C40      1.0000 0.99403  0.74030  0.76386  Biso   1.000  C
  C41      1.0000 0.89439  0.01060  0.82810  Biso   1.000  C
  H23      1.0000 0.95370  0.12540  0.82770  Biso   1.000  H
  C42      1.0000 0.80396  0.05990  0.85811  Biso   1.000  C
  H24      1.0000 0.80190  0.20620  0.87920  Biso   1.000  H
  Ca4      1.0000 0.13783  0.25577  0.72287  Biso   1.000  Ca
  S4       1.0000 0.90115  0.46360  0.60805  Biso   1.000  S
  O19      1.0000 0.76576  0.02470  0.32829  Biso   1.000  O
  O20      1.0000 0.76177  0.41590  0.30920  Biso   1.000  O
  O21      1.0000 0.91854  0.71840  0.61215  Biso   1.000  O
  O22      1.0000 0.99592  0.30420  0.63092  Biso   1.000  O
  O23      1.0000 0.48569  0.02380  0.74494  Biso   1.000  O
  O24      1.0000 0.45642  0.41850  0.75390  Biso   1.000  O
  C43      1.0000 0.77611  0.23910  0.34485  Biso   1.000  C
  C44      1.0000 0.80225  0.29250  0.41090  Biso   1.000  C
  C45      1.0000 0.85575  0.11950  0.45024  Biso   1.000  C
  H25      1.0000 0.87310  0.96720  0.43540  Biso   1.000  H
  C46      1.0000 0.88409  0.16710  0.51096  Biso   1.000  C
  H26      1.0000 0.92110  0.04930  0.53780  Biso   1.000  H
  C47      1.0000 0.85719  0.39120  0.53165  Biso   1.000  C
  C48      1.0000 0.79980  0.56330  0.49329  Biso   1.000  C
  H27      1.0000 0.77940  0.71270  0.50850  Biso   1.000  H
  C49      1.0000 0.77283  0.51400  0.43246  Biso   1.000  C
  H28      1.0000 0.73450  0.63060  0.40570  Biso   1.000  H
  C50      1.0000 0.78380  0.39110  0.64322  Biso   1.000  C
  C51      1.0000 0.78144  0.17130  0.67217  Biso   1.000  C
  H29      1.0000 0.84130  0.05740  0.67230  Biso   1.000  H
  C52      1.0000 0.68884  0.12360  0.70083  Biso   1.000  C
  H30      1.0000 0.68470  0.97400  0.72030  Biso   1.000  H
  C53      1.0000 0.60213  0.29250  0.70137  Biso   1.000  C
  C54      1.0000 0.50597  0.24030  0.73614  Biso   1.000  C
  C55      1.0000 0.60561  0.51060  0.67190  Biso   1.000  C
  H31      1.0000 0.54630  0.62540  0.67230  Biso   1.000  H
  C56      1.0000 0.69604  0.55990  0.64189  Biso   1.000  C
  H32      1.0000 0.69810  0.70620  0.62080  Biso   1.000  H
