data_image0
_cell_length_a       11.7292
_cell_length_b       5.5685
_cell_length_c       22.792
_cell_angle_alpha    90
_cell_angle_beta     100.493
_cell_angle_gamma    90

_symmetry_space_group_name_H-M    "P 1"
_symmetry_int_tables_number       1

loop_
  _symmetry_equiv_pos_as_xyz
  'x, y, z'

loop_
  _atom_site_label
  _atom_site_occupancy
  _atom_site_fract_x
  _atom_site_fract_y
  _atom_site_fract_z
  _atom_site_thermal_displace_type
  _atom_site_B_iso_or_equiv
  _atom_site_type_symbol
  Ca1      1.0000 0.63749  0.75620  0.22222  Biso   1.000  Ca
  S1       1.0000 0.39917  0.96451  0.10714  Biso   1.000  S
  O1       1.0000 0.26084  0.91557  0.80924  Biso   1.000  O
  O2       1.0000 0.26461  0.52420  0.82797  Biso   1.000  O
  O3       1.0000 0.95767  0.91915  0.25482  Biso   1.000  O
  O4       1.0000 0.98643  0.52363  0.24585  Biso   1.000  O
  O5       1.0000 0.41621  0.22042  0.11108  Biso   1.000  O
  O6       1.0000 0.49514  0.80548  0.13020  Biso   1.000  O
  C1       1.0000 0.35455  0.89150  0.03111  Biso   1.000  C
  C2       1.0000 0.38241  0.66740  0.01067  Biso   1.000  C
  H1       1.0000 0.42000  0.54980  0.03760  Biso   1.000  H
  C3       1.0000 0.35388  0.61980  0.94993  Biso   1.000  C
  H2       1.0000 0.37200  0.46760  0.93520  Biso   1.000  H
  C4       1.0000 0.29938  0.79180  0.91059  Biso   1.000  C
  C5       1.0000 0.26898  0.01220  0.93202  Biso   1.000  C
  H3       1.0000 0.23010  0.12860  0.90510  Biso   1.000  H
  C6       1.0000 0.29539  0.06210  0.99258  Biso   1.000  C
  H4       1.0000 0.27330  0.21090  0.00760  Biso   1.000  H
  C7       1.0000 0.27457  0.73860  0.84470  Biso   1.000  C
  C8       1.0000 0.28174  0.89120  0.14223  Biso   1.000  C
  C9       1.0000 0.19304  0.05950  0.14080  Biso   1.000  C
  H5       1.0000 0.19420  0.20580  0.11950  Biso   1.000  H
  C10      1.0000 0.10297  0.00980  0.17102  Biso   1.000  C
  H6       1.0000 0.04300  0.12420  0.17130  Biso   1.000  H
  C11      1.0000 0.10079  0.79200  0.20092  Biso   1.000  C
  C12      1.0000 0.18833  0.62360  0.20040  Biso   1.000  C
  H7       1.0000 0.18510  0.47400  0.22010  Biso   1.000  H
  C13      1.0000 0.28073  0.67180  0.17139  Biso   1.000  C
  H8       1.0000 0.34120  0.55820  0.17150  Biso   1.000  H
  C14      1.0000 0.00606  0.74060  0.23671  Biso   1.000  C
  Ca2      1.0000 0.86251  0.25620  0.27778  Biso   1.000  Ca
  S2       1.0000 0.10083  0.46451  0.39286  Biso   1.000  S
  O7       1.0000 0.23916  0.41557  0.69076  Biso   1.000  O
  O8       1.0000 0.23539  0.02420  0.67203  Biso   1.000  O
  O9       1.0000 0.54233  0.41915  0.24518  Biso   1.000  O
  O10      1.0000 0.51357  0.02363  0.25415  Biso   1.000  O
  O11      1.0000 0.08379  0.72042  0.38892  Biso   1.000  O
  O12      1.0000 0.00486  0.30548  0.36980  Biso   1.000  O
  C15      1.0000 0.14545  0.39150  0.46889  Biso   1.000  C
  C16      1.0000 0.11759  0.16740  0.48933  Biso   1.000  C
  H9       1.0000 0.08000  0.04980  0.46240  Biso   1.000  H
  C17      1.0000 0.14612  0.11980  0.55007  Biso   1.000  C
  H10      1.0000 0.12800  0.96760  0.56480  Biso   1.000  H
  C18      1.0000 0.20062  0.29180  0.58941  Biso   1.000  C
  C19      1.0000 0.23102  0.51220  0.56798  Biso   1.000  C
  H11      1.0000 0.26990  0.62860  0.59490  Biso   1.000  H
  C20      1.0000 0.20461  0.56210  0.50742  Biso   1.000  C
  H12      1.0000 0.22670  0.71090  0.49240  Biso   1.000  H
  C21      1.0000 0.22543  0.23860  0.65530  Biso   1.000  C
  C22      1.0000 0.21826  0.39120  0.35777  Biso   1.000  C
  C23      1.0000 0.30696  0.55950  0.35920  Biso   1.000  C
  H13      1.0000 0.30580  0.70580  0.38050  Biso   1.000  H
  C24      1.0000 0.39703  0.50980  0.32898  Biso   1.000  C
  H14      1.0000 0.45700  0.62420  0.32870  Biso   1.000  H
  C25      1.0000 0.39921  0.29200  0.29908  Biso   1.000  C
  C26      1.0000 0.31167  0.12360  0.29960  Biso   1.000  C
  H15      1.0000 0.31490  0.97400  0.27990  Biso   1.000  H
  C27      1.0000 0.21927  0.17180  0.32861  Biso   1.000  C
  H16      1.0000 0.15880  0.05820  0.32850  Biso   1.000  H
  C28      1.0000 0.49394  0.24060  0.26329  Biso   1.000  C
  Ca3      1.0000 0.36251  0.24380  0.77778  Biso   1.000  Ca
  S3       1.0000 0.60083  0.03549  0.89286  Biso   1.000  S
  O13      1.0000 0.73916  0.08443  0.19076  Biso   1.000  O
  O14      1.0000 0.73539  0.47580  0.17203  Biso   1.000  O
  O15      1.0000 0.04233  0.08085  0.74518  Biso   1.000  O
  O16      1.0000 0.01357  0.47637  0.75415  Biso   1.000  O
  O17      1.0000 0.58379  0.77958  0.88892  Biso   1.000  O
  O18      1.0000 0.50486  0.19452  0.86980  Biso   1.000  O
  C29      1.0000 0.64545  0.10850  0.96889  Biso   1.000  C
  C30      1.0000 0.61759  0.33260  0.98933  Biso   1.000  C
  H17      1.0000 0.58000  0.45020  0.96240  Biso   1.000  H
  C31      1.0000 0.64612  0.38020  0.05007  Biso   1.000  C
  H18      1.0000 0.62800  0.53240  0.06480  Biso   1.000  H
  C32      1.0000 0.70062  0.20820  0.08941  Biso   1.000  C
  C33      1.0000 0.73102  0.98780  0.06798  Biso   1.000  C
  H19      1.0000 0.76990  0.87140  0.09490  Biso   1.000  H
  C34      1.0000 0.70461  0.93790  0.00742  Biso   1.000  C
  H20      1.0000 0.72670  0.78910  0.99240  Biso   1.000  H
  C35      1.0000 0.72543  0.26140  0.15530  Biso   1.000  C
  C36      1.0000 0.71826  0.10880  0.85777  Biso   1.000  C
  C37      1.0000 0.80696  0.94050  0.85920  Biso   1.000  C
  H21      1.0000 0.80580  0.79420  0.88050  Biso   1.000  H
  C38      1.0000 0.89703  0.99020  0.82898  Biso   1.000  C
  H22      1.0000 0.95700  0.87580  0.82870  Biso   1.000  H
  C39      1.0000 0.89921  0.20800  0.79908  Biso   1.000  C
  C40      1.0000 0.81167  0.37640  0.79960  Biso   1.000  C
  H23      1.0000 0.81490  0.52600  0.77990  Biso   1.000  H
  C41      1.0000 0.71927  0.32820  0.82861  Biso   1.000  C
  H24      1.0000 0.65880  0.44180  0.82850  Biso   1.000  H
  C42      1.0000 0.99394  0.25940  0.76329  Biso   1.000  C
  Ca4      1.0000 0.13749  0.74380  0.72222  Biso   1.000  Ca
  S4       1.0000 0.89917  0.53549  0.60714  Biso   1.000  S
  O19      1.0000 0.76084  0.58443  0.30924  Biso   1.000  O
  O20      1.0000 0.76461  0.97580  0.32797  Biso   1.000  O
  O21      1.0000 0.45767  0.58085  0.75482  Biso   1.000  O
  O22      1.0000 0.48643  0.97637  0.74585  Biso   1.000  O
  O23      1.0000 0.91621  0.27958  0.61108  Biso   1.000  O
  O24      1.0000 0.99514  0.69452  0.63020  Biso   1.000  O
  C43      1.0000 0.85455  0.60850  0.53111  Biso   1.000  C
  C44      1.0000 0.88241  0.83260  0.51067  Biso   1.000  C
  H25      1.0000 0.92000  0.95020  0.53760  Biso   1.000  H
  C45      1.0000 0.85388  0.88020  0.44993  Biso   1.000  C
  H26      1.0000 0.87200  0.03240  0.43520  Biso   1.000  H
  C46      1.0000 0.79938  0.70820  0.41059  Biso   1.000  C
  C47      1.0000 0.76898  0.48780  0.43202  Biso   1.000  C
  H27      1.0000 0.73010  0.37140  0.40510  Biso   1.000  H
  C48      1.0000 0.79539  0.43790  0.49258  Biso   1.000  C
  H28      1.0000 0.77330  0.28910  0.50760  Biso   1.000  H
  C49      1.0000 0.77457  0.76140  0.34470  Biso   1.000  C
  C50      1.0000 0.78174  0.60880  0.64223  Biso   1.000  C
  C51      1.0000 0.69304  0.44050  0.64080  Biso   1.000  C
  H29      1.0000 0.69420  0.29420  0.61950  Biso   1.000  H
  C52      1.0000 0.60297  0.49020  0.67102  Biso   1.000  C
  H30      1.0000 0.54300  0.37580  0.67130  Biso   1.000  H
  C53      1.0000 0.60079  0.70800  0.70092  Biso   1.000  C
  C54      1.0000 0.68833  0.87640  0.70040  Biso   1.000  C
  H31      1.0000 0.68510  0.02600  0.72010  Biso   1.000  H
  C55      1.0000 0.78073  0.82820  0.67139  Biso   1.000  C
  H32      1.0000 0.84120  0.94180  0.67150  Biso   1.000  H
  C56      1.0000 0.50606  0.75940  0.73671  Biso   1.000  C
