data_image0
_cell_length_a       11.6426
_cell_length_b       5.5574
_cell_length_c       22.8446
_cell_angle_alpha    90
_cell_angle_beta     100.681
_cell_angle_gamma    90

_symmetry_space_group_name_H-M    "P 1"
_symmetry_int_tables_number       1

loop_
  _symmetry_equiv_pos_as_xyz
  'x, y, z'

loop_
  _atom_site_label
  _atom_site_occupancy
  _atom_site_fract_x
  _atom_site_fract_y
  _atom_site_fract_z
  _atom_site_thermal_displace_type
  _atom_site_B_iso_or_equiv
  _atom_site_type_symbol
  Ca1      1.0000 0.63725  0.74145  0.22125  Biso   1.000  Ca
  S1       1.0000 0.39739  0.53299  0.10609  Biso   1.000  S
  O1       1.0000 0.25956  0.58773  0.80892  Biso   1.000  O
  O2       1.0000 0.26333  0.97921  0.82817  Biso   1.000  O
  O3       1.0000 0.98726  0.97435  0.24690  Biso   1.000  O
  O4       1.0000 0.95839  0.57891  0.25634  Biso   1.000  O
  O5       1.0000 0.41423  0.27672  0.10967  Biso   1.000  O
  O6       1.0000 0.49453  0.69109  0.12907  Biso   1.000  O
  C1       1.0000 0.27313  0.76430  0.84464  Biso   1.000  C
  C2       1.0000 0.29730  0.70970  0.91011  Biso   1.000  C
  C3       1.0000 0.26526  0.48910  0.93115  Biso   1.000  C
  H1       1.0000 0.22530  0.37370  0.90410  Biso   1.000  H
  C4       1.0000 0.29170  0.43800  0.99168  Biso   1.000  C
  H2       1.0000 0.26900  0.28900  0.00650  Biso   1.000  H
  C5       1.0000 0.35195  0.60830  0.03031  Biso   1.000  C
  C6       1.0000 0.38114  0.83210  0.01029  Biso   1.000  C
  H3       1.0000 0.41960  0.94880  0.03740  Biso   1.000  H
  C7       1.0000 0.35291  0.88170  0.94973  Biso   1.000  C
  H4       1.0000 0.37170  0.03420  0.93530  Biso   1.000  H
  C8       1.0000 0.28003  0.60680  0.14147  Biso   1.000  C
  C9       1.0000 0.19084  0.43860  0.14017  Biso   1.000  C
  H5       1.0000 0.19120  0.29270  0.11850  Biso   1.000  H
  C10      1.0000 0.10135  0.48790  0.17107  Biso   1.000  C
  H6       1.0000 0.04100  0.37330  0.17150  Biso   1.000  H
  C11      1.0000 0.10016  0.70520  0.20137  Biso   1.000  C
  C12      1.0000 0.00677  0.75670  0.23766  Biso   1.000  C
  C13      1.0000 0.18832  0.87430  0.20036  Biso   1.000  C
  H7       1.0000 0.18570  0.02430  0.22000  Biso   1.000  H
  C14      1.0000 0.28006  0.82550  0.17088  Biso   1.000  C
  H8       1.0000 0.34110  0.93880  0.17090  Biso   1.000  H
  Ca2      1.0000 0.86275  0.24145  0.27874  Biso   1.000  Ca
  S2       1.0000 0.10261  0.03299  0.39391  Biso   1.000  S
  O7       1.0000 0.24044  0.08773  0.69108  Biso   1.000  O
  O8       1.0000 0.23667  0.47921  0.67183  Biso   1.000  O
  O9       1.0000 0.51274  0.47435  0.25310  Biso   1.000  O
  O10      1.0000 0.54161  0.07891  0.24366  Biso   1.000  O
  O11      1.0000 0.08577  0.77672  0.39033  Biso   1.000  O
  O12      1.0000 0.00547  0.19109  0.37093  Biso   1.000  O
  C15      1.0000 0.22687  0.26430  0.65536  Biso   1.000  C
  C16      1.0000 0.20270  0.20970  0.58989  Biso   1.000  C
  C17      1.0000 0.23474  0.98910  0.56885  Biso   1.000  C
  H9       1.0000 0.27470  0.87370  0.59590  Biso   1.000  H
  C18      1.0000 0.20830  0.93800  0.50832  Biso   1.000  C
  H10      1.0000 0.23100  0.78900  0.49350  Biso   1.000  H
  C19      1.0000 0.14805  0.10830  0.46969  Biso   1.000  C
  C20      1.0000 0.11886  0.33210  0.48971  Biso   1.000  C
  H11      1.0000 0.08040  0.44880  0.46260  Biso   1.000  H
  C21      1.0000 0.14709  0.38170  0.55027  Biso   1.000  C
  H12      1.0000 0.12830  0.53420  0.56470  Biso   1.000  H
  C22      1.0000 0.21997  0.10680  0.35853  Biso   1.000  C
  C23      1.0000 0.30916  0.93860  0.35983  Biso   1.000  C
  H13      1.0000 0.30880  0.79270  0.38150  Biso   1.000  H
  C24      1.0000 0.39865  0.98790  0.32893  Biso   1.000  C
  H14      1.0000 0.45900  0.87330  0.32850  Biso   1.000  H
  C25      1.0000 0.39984  0.20520  0.29863  Biso   1.000  C
  C26      1.0000 0.49323  0.25670  0.26234  Biso   1.000  C
  C27      1.0000 0.31168  0.37430  0.29964  Biso   1.000  C
  H15      1.0000 0.31430  0.52430  0.28000  Biso   1.000  H
  C28      1.0000 0.21994  0.32550  0.32912  Biso   1.000  C
  H16      1.0000 0.15890  0.43880  0.32910  Biso   1.000  H
  Ca3      1.0000 0.36275  0.25855  0.77874  Biso   1.000  Ca
  S3       1.0000 0.60261  0.46701  0.89391  Biso   1.000  S
  O13      1.0000 0.74044  0.41227  0.19108  Biso   1.000  O
  O14      1.0000 0.73667  0.02079  0.17183  Biso   1.000  O
  O15      1.0000 0.01274  0.02565  0.75310  Biso   1.000  O
  O16      1.0000 0.04161  0.42109  0.74366  Biso   1.000  O
  O17      1.0000 0.58577  0.72328  0.89033  Biso   1.000  O
  O18      1.0000 0.50547  0.30891  0.87093  Biso   1.000  O
  C29      1.0000 0.72687  0.23570  0.15536  Biso   1.000  C
  C30      1.0000 0.70270  0.29030  0.08989  Biso   1.000  C
  C31      1.0000 0.73474  0.51090  0.06885  Biso   1.000  C
  H17      1.0000 0.77470  0.62630  0.09590  Biso   1.000  H
  C32      1.0000 0.70830  0.56200  0.00832  Biso   1.000  C
  H18      1.0000 0.73100  0.71100  0.99350  Biso   1.000  H
  C33      1.0000 0.64805  0.39170  0.96969  Biso   1.000  C
  C34      1.0000 0.61886  0.16790  0.98971  Biso   1.000  C
  H19      1.0000 0.58040  0.05120  0.96260  Biso   1.000  H
  C35      1.0000 0.64709  0.11830  0.05027  Biso   1.000  C
  H20      1.0000 0.62830  0.96580  0.06470  Biso   1.000  H
  C36      1.0000 0.71997  0.39320  0.85853  Biso   1.000  C
  C37      1.0000 0.80916  0.56140  0.85983  Biso   1.000  C
  H21      1.0000 0.80880  0.70730  0.88150  Biso   1.000  H
  C38      1.0000 0.89865  0.51210  0.82893  Biso   1.000  C
  H22      1.0000 0.95900  0.62670  0.82850  Biso   1.000  H
  C39      1.0000 0.89984  0.29480  0.79863  Biso   1.000  C
  C40      1.0000 0.99323  0.24330  0.76234  Biso   1.000  C
  C41      1.0000 0.81168  0.12570  0.79964  Biso   1.000  C
  H23      1.0000 0.81430  0.97570  0.78000  Biso   1.000  H
  C42      1.0000 0.71994  0.17450  0.82912  Biso   1.000  C
  H24      1.0000 0.65890  0.06120  0.82910  Biso   1.000  H
  Ca4      1.0000 0.13725  0.75855  0.72125  Biso   1.000  Ca
  S4       1.0000 0.89739  0.96701  0.60609  Biso   1.000  S
  O19      1.0000 0.75956  0.91227  0.30892  Biso   1.000  O
  O20      1.0000 0.76333  0.52079  0.32817  Biso   1.000  O
  O21      1.0000 0.48726  0.52565  0.74690  Biso   1.000  O
  O22      1.0000 0.45839  0.92109  0.75634  Biso   1.000  O
  O23      1.0000 0.91423  0.22328  0.60967  Biso   1.000  O
  O24      1.0000 0.99453  0.80891  0.62907  Biso   1.000  O
  C43      1.0000 0.77313  0.73570  0.34464  Biso   1.000  C
  C44      1.0000 0.79730  0.79030  0.41011  Biso   1.000  C
  C45      1.0000 0.76526  0.01090  0.43115  Biso   1.000  C
  H25      1.0000 0.72530  0.12630  0.40410  Biso   1.000  H
  C46      1.0000 0.79170  0.06200  0.49168  Biso   1.000  C
  H26      1.0000 0.76900  0.21100  0.50650  Biso   1.000  H
  C47      1.0000 0.85195  0.89170  0.53031  Biso   1.000  C
  C48      1.0000 0.88114  0.66790  0.51029  Biso   1.000  C
  H27      1.0000 0.91960  0.55120  0.53740  Biso   1.000  H
  C49      1.0000 0.85291  0.61830  0.44973  Biso   1.000  C
  H28      1.0000 0.87170  0.46580  0.43530  Biso   1.000  H
  C50      1.0000 0.78003  0.89320  0.64147  Biso   1.000  C
  C51      1.0000 0.69084  0.06140  0.64017  Biso   1.000  C
  H29      1.0000 0.69120  0.20730  0.61850  Biso   1.000  H
  C52      1.0000 0.60135  0.01210  0.67107  Biso   1.000  C
  H30      1.0000 0.54100  0.12670  0.67150  Biso   1.000  H
  C53      1.0000 0.60016  0.79480  0.70137  Biso   1.000  C
  C54      1.0000 0.50677  0.74330  0.73766  Biso   1.000  C
  C55      1.0000 0.68832  0.62570  0.70036  Biso   1.000  C
  H31      1.0000 0.68570  0.47570  0.72000  Biso   1.000  H
  C56      1.0000 0.78006  0.67450  0.67088  Biso   1.000  C
  H32      1.0000 0.84110  0.56120  0.67090  Biso   1.000  H
