data_image0
_cell_length_a       11.715
_cell_length_b       5.5679
_cell_length_c       22.8208
_cell_angle_alpha    90
_cell_angle_beta     100.532
_cell_angle_gamma    90

_symmetry_space_group_name_H-M    "P 1"
_symmetry_int_tables_number       1

loop_
  _symmetry_equiv_pos_as_xyz
  'x, y, z'

loop_
  _atom_site_label
  _atom_site_occupancy
  _atom_site_fract_x
  _atom_site_fract_y
  _atom_site_fract_z
  _atom_site_thermal_displace_type
  _atom_site_B_iso_or_equiv
  _atom_site_type_symbol
  Ca1      1.0000 0.86255  0.24358  0.27793  Biso   1.000  Ca
  S1       1.0000 0.10095  0.03536  0.39303  Biso   1.000  S
  O1       1.0000 0.08355  0.77950  0.38907  Biso   1.000  O
  O2       1.0000 0.00490  0.19450  0.37009  Biso   1.000  O
  O3       1.0000 0.23571  0.47670  0.67200  Biso   1.000  O
  O4       1.0000 0.23927  0.08510  0.69086  Biso   1.000  O
  O5       1.0000 0.51327  0.47660  0.25391  Biso   1.000  O
  O6       1.0000 0.54238  0.08080  0.24482  Biso   1.000  O
  C1       1.0000 0.20110  0.20850  0.58947  Biso   1.000  C
  C2       1.0000 0.14650  0.38070  0.55011  Biso   1.000  C
  H1       1.0000 0.12860  0.53310  0.56480  Biso   1.000  H
  C3       1.0000 0.11790  0.33250  0.48936  Biso   1.000  C
  H2       1.0000 0.08010  0.45000  0.46240  Biso   1.000  H
  C4       1.0000 0.14579  0.10870  0.46905  Biso   1.000  C
  C5       1.0000 0.20530  0.93790  0.50746  Biso   1.000  C
  H3       1.0000 0.22740  0.78910  0.49250  Biso   1.000  H
  C6       1.0000 0.23210  0.98830  0.56816  Biso   1.000  C
  H4       1.0000 0.27160  0.87240  0.59500  Biso   1.000  H
  C7       1.0000 0.22560  0.26190  0.65520  Biso   1.000  C
  C8       1.0000 0.39936  0.20800  0.29898  Biso   1.000  C
  C9       1.0000 0.31160  0.37670  0.29973  Biso   1.000  C
  H5       1.0000 0.31460  0.52660  0.28020  Biso   1.000  H
  C10      1.0000 0.21960  0.32780  0.32884  Biso   1.000  C
  H6       1.0000 0.15900  0.44120  0.32880  Biso   1.000  H
  C11      1.0000 0.21875  0.10870  0.35791  Biso   1.000  C
  C12      1.0000 0.30710  0.94000  0.35928  Biso   1.000  C
  H7       1.0000 0.30570  0.79350  0.38050  Biso   1.000  H
  C13      1.0000 0.39738  0.98970  0.32908  Biso   1.000  C
  H8       1.0000 0.45760  0.87550  0.32890  Biso   1.000  H
  C14      1.0000 0.49374  0.25870  0.26326  Biso   1.000  C
  Ca2      1.0000 0.63745  0.74358  0.22207  Biso   1.000  Ca
  S2       1.0000 0.39905  0.53536  0.10697  Biso   1.000  S
  O7       1.0000 0.41645  0.27950  0.11093  Biso   1.000  O
  O8       1.0000 0.49510  0.69450  0.12991  Biso   1.000  O
  O9       1.0000 0.26429  0.97670  0.82800  Biso   1.000  O
  O10      1.0000 0.26073  0.58510  0.80914  Biso   1.000  O
  O11      1.0000 0.98673  0.97660  0.24609  Biso   1.000  O
  O12      1.0000 0.95762  0.58080  0.25518  Biso   1.000  O
  C15      1.0000 0.29890  0.70850  0.91053  Biso   1.000  C
  C16      1.0000 0.35350  0.88070  0.94989  Biso   1.000  C
  H9       1.0000 0.37140  0.03310  0.93520  Biso   1.000  H
  C17      1.0000 0.38210  0.83250  0.01064  Biso   1.000  C
  H10      1.0000 0.41990  0.95000  0.03760  Biso   1.000  H
  C18      1.0000 0.35421  0.60870  0.03095  Biso   1.000  C
  C19      1.0000 0.29470  0.43790  0.99254  Biso   1.000  C
  H11      1.0000 0.27260  0.28910  0.00750  Biso   1.000  H
  C20      1.0000 0.26790  0.48830  0.93184  Biso   1.000  C
  H12      1.0000 0.22840  0.37240  0.90500  Biso   1.000  H
  C21      1.0000 0.27440  0.76190  0.84480  Biso   1.000  C
  C22      1.0000 0.10064  0.70800  0.20102  Biso   1.000  C
  C23      1.0000 0.18840  0.87670  0.20027  Biso   1.000  C
  H13      1.0000 0.18540  0.02660  0.21980  Biso   1.000  H
  C24      1.0000 0.28040  0.82780  0.17116  Biso   1.000  C
  H14      1.0000 0.34100  0.94120  0.17120  Biso   1.000  H
  C25      1.0000 0.28125  0.60870  0.14209  Biso   1.000  C
  C26      1.0000 0.19290  0.44000  0.14072  Biso   1.000  C
  H15      1.0000 0.19430  0.29350  0.11950  Biso   1.000  H
  C27      1.0000 0.10262  0.48970  0.17092  Biso   1.000  C
  H16      1.0000 0.04240  0.37550  0.17110  Biso   1.000  H
  C28      1.0000 0.00626  0.75870  0.23674  Biso   1.000  C
  Ca3      1.0000 0.13745  0.75642  0.72207  Biso   1.000  Ca
  S3       1.0000 0.89905  0.96464  0.60697  Biso   1.000  S
  O13      1.0000 0.91645  0.22050  0.61093  Biso   1.000  O
  O14      1.0000 0.99510  0.80550  0.62991  Biso   1.000  O
  O15      1.0000 0.76429  0.52330  0.32800  Biso   1.000  O
  O16      1.0000 0.76073  0.91490  0.30914  Biso   1.000  O
  O17      1.0000 0.48673  0.52340  0.74609  Biso   1.000  O
  O18      1.0000 0.45762  0.91920  0.75518  Biso   1.000  O
  C29      1.0000 0.79890  0.79150  0.41053  Biso   1.000  C
  C30      1.0000 0.85350  0.61930  0.44989  Biso   1.000  C
  H17      1.0000 0.87140  0.46690  0.43520  Biso   1.000  H
  C31      1.0000 0.88210  0.66750  0.51064  Biso   1.000  C
  H18      1.0000 0.91990  0.55000  0.53760  Biso   1.000  H
  C32      1.0000 0.85421  0.89130  0.53095  Biso   1.000  C
  C33      1.0000 0.79470  0.06210  0.49254  Biso   1.000  C
  H19      1.0000 0.77260  0.21090  0.50750  Biso   1.000  H
  C34      1.0000 0.76790  0.01170  0.43184  Biso   1.000  C
  H20      1.0000 0.72840  0.12760  0.40500  Biso   1.000  H
  C35      1.0000 0.77440  0.73810  0.34480  Biso   1.000  C
  C36      1.0000 0.60064  0.79200  0.70102  Biso   1.000  C
  C37      1.0000 0.68840  0.62330  0.70027  Biso   1.000  C
  H21      1.0000 0.68540  0.47340  0.71980  Biso   1.000  H
  C38      1.0000 0.78040  0.67220  0.67116  Biso   1.000  C
  H22      1.0000 0.84100  0.55880  0.67120  Biso   1.000  H
  C39      1.0000 0.78125  0.89130  0.64209  Biso   1.000  C
  C40      1.0000 0.69290  0.06000  0.64072  Biso   1.000  C
  H23      1.0000 0.69430  0.20650  0.61950  Biso   1.000  H
  C41      1.0000 0.60262  0.01030  0.67092  Biso   1.000  C
  H24      1.0000 0.54240  0.12450  0.67110  Biso   1.000  H
  C42      1.0000 0.50626  0.74130  0.73674  Biso   1.000  C
  Ca4      1.0000 0.36255  0.25642  0.77793  Biso   1.000  Ca
  S4       1.0000 0.60095  0.46464  0.89303  Biso   1.000  S
  O19      1.0000 0.58355  0.72050  0.88907  Biso   1.000  O
  O20      1.0000 0.50490  0.30550  0.87009  Biso   1.000  O
  O21      1.0000 0.73571  0.02330  0.17200  Biso   1.000  O
  O22      1.0000 0.73927  0.41490  0.19086  Biso   1.000  O
  O23      1.0000 0.01327  0.02340  0.75391  Biso   1.000  O
  O24      1.0000 0.04238  0.41920  0.74482  Biso   1.000  O
  C43      1.0000 0.70110  0.29150  0.08947  Biso   1.000  C
  C44      1.0000 0.64650  0.11930  0.05011  Biso   1.000  C
  H25      1.0000 0.62860  0.96690  0.06480  Biso   1.000  H
  C45      1.0000 0.61790  0.16750  0.98936  Biso   1.000  C
  H26      1.0000 0.58010  0.05000  0.96240  Biso   1.000  H
  C46      1.0000 0.64579  0.39130  0.96905  Biso   1.000  C
  C47      1.0000 0.70530  0.56210  0.00746  Biso   1.000  C
  H27      1.0000 0.72740  0.71090  0.99250  Biso   1.000  H
  C48      1.0000 0.73210  0.51170  0.06816  Biso   1.000  C
  H28      1.0000 0.77160  0.62760  0.09500  Biso   1.000  H
  C49      1.0000 0.72560  0.23810  0.15520  Biso   1.000  C
  C50      1.0000 0.89936  0.29200  0.79898  Biso   1.000  C
  C51      1.0000 0.81160  0.12330  0.79973  Biso   1.000  C
  H29      1.0000 0.81460  0.97340  0.78020  Biso   1.000  H
  C52      1.0000 0.71960  0.17220  0.82884  Biso   1.000  C
  H30      1.0000 0.65900  0.05880  0.82880  Biso   1.000  H
  C53      1.0000 0.71875  0.39130  0.85791  Biso   1.000  C
  C54      1.0000 0.80710  0.56000  0.85928  Biso   1.000  C
  H31      1.0000 0.80570  0.70650  0.88050  Biso   1.000  H
  C55      1.0000 0.89738  0.51030  0.82908  Biso   1.000  C
  H32      1.0000 0.95760  0.62450  0.82890  Biso   1.000  H
  C56      1.0000 0.99374  0.24130  0.76326  Biso   1.000  C
