data_image0
_cell_length_a       16.469
_cell_length_b       15.5386
_cell_length_c       14.54
_cell_angle_alpha    90
_cell_angle_beta     117.5
_cell_angle_gamma    90

_symmetry_space_group_name_H-M    "P 1"
_symmetry_int_tables_number       1

loop_
  _symmetry_equiv_pos_as_xyz
  'x, y, z'

loop_
  _atom_site_label
  _atom_site_occupancy
  _atom_site_fract_x
  _atom_site_fract_y
  _atom_site_fract_z
  _atom_site_thermal_displace_type
  _atom_site_B_iso_or_equiv
  _atom_site_type_symbol
  O1       1.0000 0.58799  0.58415  0.75518  Biso   1.000  O
  O2       1.0000 0.57563  0.59357  0.59774  Biso   1.000  O
  O3       1.0000 0.91706  0.90533  0.91490  Biso   1.000  O
  O4       1.0000 0.91903  0.89850  0.76338  Biso   1.000  O
  O5       1.0000 0.41553  0.48161  0.57755  Biso   1.000  O
  H1       1.0000 0.36430  0.50760  0.54300  Biso   1.000  H
  H2       1.0000 0.40700  0.43120  0.57400  Biso   1.000  H
  C1       1.0000 0.60618  0.61723  0.68890  Biso   1.000  C
  C2       1.0000 0.67375  0.68976  0.72340  Biso   1.000  C
  C3       1.0000 0.75630  0.67662  0.80980  Biso   1.000  C
  H3       1.0000 0.76640  0.62580  0.84730  Biso   1.000  H
  C4       1.0000 0.82505  0.73884  0.84150  Biso   1.000  C
  H4       1.0000 0.88060  0.72870  0.89990  Biso   1.000  H
  C5       1.0000 0.81237  0.81395  0.78872  Biso   1.000  C
  C6       1.0000 0.72647  0.83208  0.70190  Biso   1.000  C
  C7       1.0000 0.70770  0.91255  0.65020  Biso   1.000  C
  H5       1.0000 0.75330  0.95430  0.67140  Biso   1.000  H
  C8       1.0000 0.62410  0.92950  0.57010  Biso   1.000  C
  H6       1.0000 0.61260  0.98270  0.53710  Biso   1.000  H
  C9       1.0000 0.55510  0.86710  0.53700  Biso   1.000  C
  H7       1.0000 0.49800  0.87910  0.48180  Biso   1.000  H
  C10      1.0000 0.57060  0.78890  0.58460  Biso   1.000  C
  H8       1.0000 0.52390  0.74820  0.56140  Biso   1.000  H
  C11      1.0000 0.65671  0.76871  0.66880  Biso   1.000  C
  C12      1.0000 0.88857  0.87817  0.82470  Biso   1.000  C
  O6       1.0000 0.08799  0.08415  0.75518  Biso   1.000  O
  O7       1.0000 0.07563  0.09357  0.59774  Biso   1.000  O
  O8       1.0000 0.41706  0.40533  0.91490  Biso   1.000  O
  O9       1.0000 0.41903  0.39850  0.76338  Biso   1.000  O
  O10      1.0000 0.91553  0.98161  0.57755  Biso   1.000  O
  H9       1.0000 0.86430  0.00760  0.54300  Biso   1.000  H
  H10      1.0000 0.90700  0.93120  0.57400  Biso   1.000  H
  C13      1.0000 0.10618  0.11723  0.68890  Biso   1.000  C
  C14      1.0000 0.17375  0.18976  0.72340  Biso   1.000  C
  C15      1.0000 0.25630  0.17662  0.80980  Biso   1.000  C
  H11      1.0000 0.26640  0.12580  0.84730  Biso   1.000  H
  C16      1.0000 0.32505  0.23884  0.84150  Biso   1.000  C
  H12      1.0000 0.38060  0.22870  0.89990  Biso   1.000  H
  C17      1.0000 0.31237  0.31395  0.78872  Biso   1.000  C
  C18      1.0000 0.22647  0.33208  0.70190  Biso   1.000  C
  C19      1.0000 0.20770  0.41255  0.65020  Biso   1.000  C
  H13      1.0000 0.25330  0.45430  0.67140  Biso   1.000  H
  C20      1.0000 0.12410  0.42950  0.57010  Biso   1.000  C
  H14      1.0000 0.11260  0.48270  0.53710  Biso   1.000  H
  C21      1.0000 0.05510  0.36710  0.53700  Biso   1.000  C
  H15      1.0000 0.99800  0.37910  0.48180  Biso   1.000  H
  C22      1.0000 0.07060  0.28890  0.58460  Biso   1.000  C
  H16      1.0000 0.02390  0.24820  0.56140  Biso   1.000  H
  C23      1.0000 0.15671  0.26871  0.66880  Biso   1.000  C
  C24      1.0000 0.38857  0.37817  0.82470  Biso   1.000  C
  O11      1.0000 0.41201  0.58415  0.74482  Biso   1.000  O
  O12      1.0000 0.42437  0.59357  0.90226  Biso   1.000  O
  O13      1.0000 0.08294  0.90533  0.58510  Biso   1.000  O
  O14      1.0000 0.08097  0.89850  0.73662  Biso   1.000  O
  O15      1.0000 0.58447  0.48161  0.92245  Biso   1.000  O
  H17      1.0000 0.63570  0.50760  0.95700  Biso   1.000  H
  H18      1.0000 0.59300  0.43120  0.92600  Biso   1.000  H
  C25      1.0000 0.39382  0.61723  0.81110  Biso   1.000  C
  C26      1.0000 0.32625  0.68976  0.77660  Biso   1.000  C
  C27      1.0000 0.24370  0.67662  0.69020  Biso   1.000  C
  H19      1.0000 0.23360  0.62580  0.65270  Biso   1.000  H
  C28      1.0000 0.17495  0.73884  0.65850  Biso   1.000  C
  H20      1.0000 0.11940  0.72870  0.60010  Biso   1.000  H
  C29      1.0000 0.18763  0.81395  0.71128  Biso   1.000  C
  C30      1.0000 0.27353  0.83208  0.79810  Biso   1.000  C
  C31      1.0000 0.29230  0.91255  0.84980  Biso   1.000  C
  H21      1.0000 0.24670  0.95430  0.82860  Biso   1.000  H
  C32      1.0000 0.37590  0.92950  0.92990  Biso   1.000  C
  H22      1.0000 0.38740  0.98270  0.96290  Biso   1.000  H
  C33      1.0000 0.44490  0.86710  0.96300  Biso   1.000  C
  H23      1.0000 0.50200  0.87910  0.01820  Biso   1.000  H
  C34      1.0000 0.42940  0.78890  0.91540  Biso   1.000  C
  H24      1.0000 0.47610  0.74820  0.93860  Biso   1.000  H
  C35      1.0000 0.34329  0.76871  0.83120  Biso   1.000  C
  C36      1.0000 0.11143  0.87817  0.67530  Biso   1.000  C
  O16      1.0000 0.91201  0.08415  0.74482  Biso   1.000  O
  O17      1.0000 0.92437  0.09357  0.90226  Biso   1.000  O
  O18      1.0000 0.58294  0.40533  0.58510  Biso   1.000  O
  O19      1.0000 0.58097  0.39850  0.73662  Biso   1.000  O
  O20      1.0000 0.08447  0.98161  0.92245  Biso   1.000  O
  H25      1.0000 0.13570  0.00760  0.95700  Biso   1.000  H
  H26      1.0000 0.09300  0.93120  0.92600  Biso   1.000  H
  C37      1.0000 0.89382  0.11723  0.81110  Biso   1.000  C
  C38      1.0000 0.82625  0.18976  0.77660  Biso   1.000  C
  C39      1.0000 0.74370  0.17662  0.69020  Biso   1.000  C
  H27      1.0000 0.73360  0.12580  0.65270  Biso   1.000  H
  C40      1.0000 0.67495  0.23884  0.65850  Biso   1.000  C
  H28      1.0000 0.61940  0.22870  0.60010  Biso   1.000  H
  C41      1.0000 0.68763  0.31395  0.71128  Biso   1.000  C
  C42      1.0000 0.77353  0.33208  0.79810  Biso   1.000  C
  C43      1.0000 0.79230  0.41255  0.84980  Biso   1.000  C
  H29      1.0000 0.74670  0.45430  0.82860  Biso   1.000  H
  C44      1.0000 0.87590  0.42950  0.92990  Biso   1.000  C
  H30      1.0000 0.88740  0.48270  0.96290  Biso   1.000  H
  C45      1.0000 0.94490  0.36710  0.96300  Biso   1.000  C
  H31      1.0000 0.00200  0.37910  0.01820  Biso   1.000  H
  C46      1.0000 0.92940  0.28890  0.91540  Biso   1.000  C
  H32      1.0000 0.97610  0.24820  0.93860  Biso   1.000  H
  C47      1.0000 0.84329  0.26871  0.83120  Biso   1.000  C
  C48      1.0000 0.61143  0.37817  0.67530  Biso   1.000  C
  O21      1.0000 0.41201  0.41585  0.24482  Biso   1.000  O
  O22      1.0000 0.42437  0.40643  0.40226  Biso   1.000  O
  O23      1.0000 0.08294  0.09467  0.08510  Biso   1.000  O
  O24      1.0000 0.08097  0.10150  0.23662  Biso   1.000  O
  O25      1.0000 0.58447  0.51839  0.42245  Biso   1.000  O
  H33      1.0000 0.63570  0.49240  0.45700  Biso   1.000  H
  H34      1.0000 0.59300  0.56880  0.42600  Biso   1.000  H
  C49      1.0000 0.39382  0.38277  0.31110  Biso   1.000  C
  C50      1.0000 0.32625  0.31024  0.27660  Biso   1.000  C
  C51      1.0000 0.24370  0.32338  0.19020  Biso   1.000  C
  H35      1.0000 0.23360  0.37420  0.15270  Biso   1.000  H
  C52      1.0000 0.17495  0.26116  0.15850  Biso   1.000  C
  H36      1.0000 0.11940  0.27130  0.10010  Biso   1.000  H
  C53      1.0000 0.18763  0.18605  0.21128  Biso   1.000  C
  C54      1.0000 0.27353  0.16792  0.29810  Biso   1.000  C
  C55      1.0000 0.29230  0.08745  0.34980  Biso   1.000  C
  H37      1.0000 0.24670  0.04570  0.32860  Biso   1.000  H
  C56      1.0000 0.37590  0.07050  0.42990  Biso   1.000  C
  H38      1.0000 0.38740  0.01730  0.46290  Biso   1.000  H
  C57      1.0000 0.44490  0.13290  0.46300  Biso   1.000  C
  H39      1.0000 0.50200  0.12090  0.51820  Biso   1.000  H
  C58      1.0000 0.42940  0.21110  0.41540  Biso   1.000  C
  H40      1.0000 0.47610  0.25180  0.43860  Biso   1.000  H
  C59      1.0000 0.34329  0.23129  0.33120  Biso   1.000  C
  C60      1.0000 0.11143  0.12183  0.17530  Biso   1.000  C
  O26      1.0000 0.91201  0.91585  0.24482  Biso   1.000  O
  O27      1.0000 0.92437  0.90643  0.40226  Biso   1.000  O
  O28      1.0000 0.58294  0.59467  0.08510  Biso   1.000  O
  O29      1.0000 0.58097  0.60150  0.23662  Biso   1.000  O
  O30      1.0000 0.08447  0.01839  0.42245  Biso   1.000  O
  H41      1.0000 0.13570  0.99240  0.45700  Biso   1.000  H
  H42      1.0000 0.09300  0.06880  0.42600  Biso   1.000  H
  C61      1.0000 0.89382  0.88277  0.31110  Biso   1.000  C
  C62      1.0000 0.82625  0.81024  0.27660  Biso   1.000  C
  C63      1.0000 0.74370  0.82338  0.19020  Biso   1.000  C
  H43      1.0000 0.73360  0.87420  0.15270  Biso   1.000  H
  C64      1.0000 0.67495  0.76116  0.15850  Biso   1.000  C
  H44      1.0000 0.61940  0.77130  0.10010  Biso   1.000  H
  C65      1.0000 0.68763  0.68605  0.21128  Biso   1.000  C
  C66      1.0000 0.77353  0.66792  0.29810  Biso   1.000  C
  C67      1.0000 0.79230  0.58745  0.34980  Biso   1.000  C
  H45      1.0000 0.74670  0.54570  0.32860  Biso   1.000  H
  C68      1.0000 0.87590  0.57050  0.42990  Biso   1.000  C
  H46      1.0000 0.88740  0.51730  0.46290  Biso   1.000  H
  C69      1.0000 0.94490  0.63290  0.46300  Biso   1.000  C
  H47      1.0000 0.00200  0.62090  0.51820  Biso   1.000  H
  C70      1.0000 0.92940  0.71110  0.41540  Biso   1.000  C
  H48      1.0000 0.97610  0.75180  0.43860  Biso   1.000  H
  C71      1.0000 0.84329  0.73129  0.33120  Biso   1.000  C
  C72      1.0000 0.61143  0.62183  0.17530  Biso   1.000  C
  O31      1.0000 0.58799  0.41585  0.25518  Biso   1.000  O
  O32      1.0000 0.57563  0.40643  0.09774  Biso   1.000  O
  O33      1.0000 0.91706  0.09467  0.41490  Biso   1.000  O
  O34      1.0000 0.91903  0.10150  0.26338  Biso   1.000  O
  O35      1.0000 0.41553  0.51839  0.07755  Biso   1.000  O
  H49      1.0000 0.36430  0.49240  0.04300  Biso   1.000  H
  H50      1.0000 0.40700  0.56880  0.07400  Biso   1.000  H
  C73      1.0000 0.60618  0.38277  0.18890  Biso   1.000  C
  C74      1.0000 0.67375  0.31024  0.22340  Biso   1.000  C
  C75      1.0000 0.75630  0.32338  0.30980  Biso   1.000  C
  H51      1.0000 0.76640  0.37420  0.34730  Biso   1.000  H
  C76      1.0000 0.82505  0.26116  0.34150  Biso   1.000  C
  H52      1.0000 0.88060  0.27130  0.39990  Biso   1.000  H
  C77      1.0000 0.81237  0.18605  0.28872  Biso   1.000  C
  C78      1.0000 0.72647  0.16792  0.20190  Biso   1.000  C
  C79      1.0000 0.70770  0.08745  0.15020  Biso   1.000  C
  H53      1.0000 0.75330  0.04570  0.17140  Biso   1.000  H
  C80      1.0000 0.62410  0.07050  0.07010  Biso   1.000  C
  H54      1.0000 0.61260  0.01730  0.03710  Biso   1.000  H
  C81      1.0000 0.55510  0.13290  0.03700  Biso   1.000  C
  H55      1.0000 0.49800  0.12090  0.98180  Biso   1.000  H
  C82      1.0000 0.57060  0.21110  0.08460  Biso   1.000  C
  H56      1.0000 0.52390  0.25180  0.06140  Biso   1.000  H
  C83      1.0000 0.65671  0.23129  0.16880  Biso   1.000  C
  C84      1.0000 0.88857  0.12183  0.32470  Biso   1.000  C
  O36      1.0000 0.08799  0.91585  0.25518  Biso   1.000  O
  O37      1.0000 0.07563  0.90643  0.09774  Biso   1.000  O
  O38      1.0000 0.41706  0.59467  0.41490  Biso   1.000  O
  O39      1.0000 0.41903  0.60150  0.26338  Biso   1.000  O
  O40      1.0000 0.91553  0.01839  0.07755  Biso   1.000  O
  H57      1.0000 0.86430  0.99240  0.04300  Biso   1.000  H
  H58      1.0000 0.90700  0.06880  0.07400  Biso   1.000  H
  C85      1.0000 0.10618  0.88277  0.18890  Biso   1.000  C
  C86      1.0000 0.17375  0.81024  0.22340  Biso   1.000  C
  C87      1.0000 0.25630  0.82338  0.30980  Biso   1.000  C
  H59      1.0000 0.26640  0.87420  0.34730  Biso   1.000  H
  C88      1.0000 0.32505  0.76116  0.34150  Biso   1.000  C
  H60      1.0000 0.38060  0.77130  0.39990  Biso   1.000  H
  C89      1.0000 0.31237  0.68605  0.28872  Biso   1.000  C
  C90      1.0000 0.22647  0.66792  0.20190  Biso   1.000  C
  C91      1.0000 0.20770  0.58745  0.15020  Biso   1.000  C
  H61      1.0000 0.25330  0.54570  0.17140  Biso   1.000  H
  C92      1.0000 0.12410  0.57050  0.07010  Biso   1.000  C
  H62      1.0000 0.11260  0.51730  0.03710  Biso   1.000  H
  C93      1.0000 0.05510  0.63290  0.03700  Biso   1.000  C
  H63      1.0000 0.99800  0.62090  0.98180  Biso   1.000  H
  C94      1.0000 0.07060  0.71110  0.08460  Biso   1.000  C
  H64      1.0000 0.02390  0.75180  0.06140  Biso   1.000  H
  C95      1.0000 0.15671  0.73129  0.16880  Biso   1.000  C
  C96      1.0000 0.38857  0.62183  0.32470  Biso   1.000  C
  Mg1      1.0000 0.50000  0.49169  0.75000  Biso   1.000  Mg
  Mg2      1.0000 0.00000  0.99169  0.75000  Biso   1.000  Mg
  Mg3      1.0000 0.50000  0.50831  0.25000  Biso   1.000  Mg
  Mg4      1.0000 0.00000  0.00831  0.25000  Biso   1.000  Mg
  Mg5      1.0000 0.50000  0.50000  0.50000  Biso   1.000  Mg
  Mg6      1.0000 0.00000  0.00000  0.50000  Biso   1.000  Mg
  Mg7      1.0000 0.50000  0.50000  0.00000  Biso   1.000  Mg
  Mg8      1.0000 0.00000  0.00000  0.00000  Biso   1.000  Mg
