data_image0
_cell_length_a       7.61
_cell_length_b       13.599
_cell_length_c       27.938
_cell_angle_alpha    90
_cell_angle_beta     90
_cell_angle_gamma    90

_symmetry_space_group_name_H-M    P 1
_symmetry_int_tables_number       1

loop_
  _symmetry_equiv_pos_as_xyz
  'x, y, z'

loop_
  _atom_site_label
  _atom_site_occupancy
  _atom_site_fract_x
  _atom_site_fract_y
  _atom_site_fract_z
  _atom_site_thermal_displace_type
  _atom_site_B_iso_or_equiv
  _atom_site_type_symbol
  Cd1      1.0000 0.00000  0.77258  0.76331  Biso   1.000  Cd
  Cd2      1.0000 0.00000  0.22742  0.23669  Biso   1.000  Cd
  Cd3      1.0000 0.00000  0.72742  0.26331  Biso   1.000  Cd
  Cd4      1.0000 0.00000  0.27258  0.73669  Biso   1.000  Cd
  Ni1      1.0000 0.50000  0.51714  0.79155  Biso   1.000  Ni
  Ni2      1.0000 0.50000  0.48286  0.20845  Biso   1.000  Ni
  Ni3      1.0000 0.50000  0.98286  0.29155  Biso   1.000  Ni
  Ni4      1.0000 0.50000  0.01714  0.70845  Biso   1.000  Ni
  H1       1.0000 0.89283  0.62519  0.69816  Biso   1.000  H
  H2       1.0000 0.88211  0.76859  0.64681  Biso   1.000  H
  H3       1.0000 0.88211  0.60353  0.60723  Biso   1.000  H
  H4       1.0000 0.88211  0.75902  0.55787  Biso   1.000  H
  H5       1.0000 0.88211  0.59243  0.51581  Biso   1.000  H
  H6       1.0000 0.88211  0.74925  0.46744  Biso   1.000  H
  H7       1.0000 0.88211  0.58646  0.42474  Biso   1.000  H
  H8       1.0000 0.11789  0.75751  0.87790  Biso   1.000  H
  H9       1.0000 0.10717  0.90883  0.83449  Biso   1.000  H
  H10      1.0000 0.89283  0.37481  0.30184  Biso   1.000  H
  H11      1.0000 0.88211  0.23141  0.35319  Biso   1.000  H
  H12      1.0000 0.88211  0.39647  0.39277  Biso   1.000  H
  H13      1.0000 0.88211  0.24098  0.44213  Biso   1.000  H
  H14      1.0000 0.88211  0.40757  0.48419  Biso   1.000  H
  H15      1.0000 0.88211  0.25075  0.53256  Biso   1.000  H
  H16      1.0000 0.88211  0.41354  0.57526  Biso   1.000  H
  H17      1.0000 0.11789  0.24249  0.12210  Biso   1.000  H
  H18      1.0000 0.10717  0.09117  0.16551  Biso   1.000  H
  H19      1.0000 0.10717  0.87481  0.19816  Biso   1.000  H
  H20      1.0000 0.11789  0.73141  0.14681  Biso   1.000  H
  H21      1.0000 0.11789  0.89647  0.10723  Biso   1.000  H
  H22      1.0000 0.11789  0.74098  0.05787  Biso   1.000  H
  H23      1.0000 0.11789  0.90757  0.01581  Biso   1.000  H
  H24      1.0000 0.11789  0.75075  0.96744  Biso   1.000  H
  H25      1.0000 0.11789  0.91354  0.92474  Biso   1.000  H
  H26      1.0000 0.88211  0.74249  0.37790  Biso   1.000  H
  H27      1.0000 0.89283  0.59117  0.33449  Biso   1.000  H
  H28      1.0000 0.10717  0.12519  0.80184  Biso   1.000  H
  H29      1.0000 0.11789  0.26859  0.85319  Biso   1.000  H
  H30      1.0000 0.11789  0.10353  0.89277  Biso   1.000  H
  H31      1.0000 0.11789  0.25902  0.94213  Biso   1.000  H
  H32      1.0000 0.11789  0.09243  0.98419  Biso   1.000  H
  H33      1.0000 0.11789  0.24925  0.03256  Biso   1.000  H
  H34      1.0000 0.11789  0.08646  0.07526  Biso   1.000  H
  H35      1.0000 0.88211  0.25751  0.62210  Biso   1.000  H
  H36      1.0000 0.89283  0.40883  0.66551  Biso   1.000  H
  H37      1.0000 0.10717  0.37481  0.30184  Biso   1.000  H
  H38      1.0000 0.11789  0.23141  0.35319  Biso   1.000  H
  H39      1.0000 0.11789  0.39647  0.39277  Biso   1.000  H
  H40      1.0000 0.11789  0.24098  0.44213  Biso   1.000  H
  H41      1.0000 0.11789  0.40757  0.48419  Biso   1.000  H
  H42      1.0000 0.11789  0.25075  0.53256  Biso   1.000  H
  H43      1.0000 0.11789  0.41354  0.57526  Biso   1.000  H
  H44      1.0000 0.88211  0.24249  0.12210  Biso   1.000  H
  H45      1.0000 0.89283  0.09117  0.16551  Biso   1.000  H
  H46      1.0000 0.10717  0.62519  0.69816  Biso   1.000  H
  H47      1.0000 0.11789  0.76859  0.64681  Biso   1.000  H
  H48      1.0000 0.11789  0.60353  0.60723  Biso   1.000  H
  H49      1.0000 0.11789  0.75902  0.55787  Biso   1.000  H
  H50      1.0000 0.11789  0.59243  0.51581  Biso   1.000  H
  H51      1.0000 0.11789  0.74925  0.46744  Biso   1.000  H
  H52      1.0000 0.11789  0.58646  0.42474  Biso   1.000  H
  H53      1.0000 0.88211  0.75751  0.87790  Biso   1.000  H
  H54      1.0000 0.89283  0.90883  0.83449  Biso   1.000  H
  H55      1.0000 0.89283  0.12519  0.80184  Biso   1.000  H
  H56      1.0000 0.88211  0.26859  0.85319  Biso   1.000  H
  H57      1.0000 0.88211  0.10353  0.89277  Biso   1.000  H
  H58      1.0000 0.88211  0.25902  0.94213  Biso   1.000  H
  H59      1.0000 0.88211  0.09243  0.98419  Biso   1.000  H
  H60      1.0000 0.88211  0.24925  0.03256  Biso   1.000  H
  H61      1.0000 0.88211  0.08646  0.07526  Biso   1.000  H
  H62      1.0000 0.11789  0.25751  0.62210  Biso   1.000  H
  H63      1.0000 0.10717  0.40883  0.66551  Biso   1.000  H
  H64      1.0000 0.89283  0.87481  0.19816  Biso   1.000  H
  H65      1.0000 0.88211  0.73141  0.14681  Biso   1.000  H
  H66      1.0000 0.88211  0.89647  0.10723  Biso   1.000  H
  H67      1.0000 0.88211  0.74098  0.05787  Biso   1.000  H
  H68      1.0000 0.88211  0.90757  0.01581  Biso   1.000  H
  H69      1.0000 0.88211  0.75075  0.96744  Biso   1.000  H
  H70      1.0000 0.88211  0.91354  0.92474  Biso   1.000  H
  H71      1.0000 0.11789  0.74249  0.37790  Biso   1.000  H
  H72      1.0000 0.10717  0.59117  0.33449  Biso   1.000  H
  C1       1.0000 0.67190  0.61340  0.79580  Biso   1.000  C
  C2       1.0000 0.32490  0.92340  0.71830  Biso   1.000  C
  C3       1.0000 0.67190  0.38660  0.20420  Biso   1.000  C
  C4       1.0000 0.32490  0.07660  0.28170  Biso   1.000  C
  C5       1.0000 0.32810  0.88660  0.29580  Biso   1.000  C
  C6       1.0000 0.67510  0.57660  0.21830  Biso   1.000  C
  C7       1.0000 0.32810  0.11340  0.70420  Biso   1.000  C
  C8       1.0000 0.67510  0.42340  0.78170  Biso   1.000  C
  C9       1.0000 0.32810  0.38660  0.20420  Biso   1.000  C
  C10      1.0000 0.67510  0.07660  0.28170  Biso   1.000  C
  C11      1.0000 0.32810  0.61340  0.79580  Biso   1.000  C
  C12      1.0000 0.67510  0.92340  0.71830  Biso   1.000  C
  C13      1.0000 0.67190  0.11340  0.70420  Biso   1.000  C
  C14      1.0000 0.32490  0.42340  0.78170  Biso   1.000  C
  C15      1.0000 0.67190  0.88660  0.29580  Biso   1.000  C
  C16      1.0000 0.32490  0.57660  0.21830  Biso   1.000  C
  C17      1.0000 0.00000  0.72210  0.64880  Biso   1.000  C
  C18      1.0000 0.00000  0.65020  0.60600  Biso   1.000  C
  C19      1.0000 0.00000  0.71240  0.55910  Biso   1.000  C
  C20      1.0000 0.00000  0.63910  0.51480  Biso   1.000  C
  C21      1.0000 0.00000  0.70260  0.46820  Biso   1.000  C
  C22      1.0000 0.00000  0.63310  0.42400  Biso   1.000  C
  C23      1.0000 0.00000  0.80420  0.87810  Biso   1.000  C
  C24      1.0000 0.00000  0.27790  0.35120  Biso   1.000  C
  C25      1.0000 0.00000  0.34980  0.39400  Biso   1.000  C
  C26      1.0000 0.00000  0.28760  0.44090  Biso   1.000  C
  C27      1.0000 0.00000  0.36090  0.48520  Biso   1.000  C
  C28      1.0000 0.00000  0.29740  0.53180  Biso   1.000  C
  C29      1.0000 0.00000  0.36690  0.57600  Biso   1.000  C
  C30      1.0000 0.00000  0.19580  0.12190  Biso   1.000  C
  C31      1.0000 0.00000  0.77790  0.14880  Biso   1.000  C
  C32      1.0000 0.00000  0.84980  0.10600  Biso   1.000  C
  C33      1.0000 0.00000  0.78760  0.05910  Biso   1.000  C
  C34      1.0000 0.00000  0.86090  0.01480  Biso   1.000  C
  C35      1.0000 0.00000  0.79740  0.96820  Biso   1.000  C
  C36      1.0000 0.00000  0.86690  0.92400  Biso   1.000  C
  C37      1.0000 0.00000  0.69580  0.37810  Biso   1.000  C
  C38      1.0000 0.00000  0.22210  0.85120  Biso   1.000  C
  C39      1.0000 0.00000  0.15020  0.89400  Biso   1.000  C
  C40      1.0000 0.00000  0.21240  0.94090  Biso   1.000  C
  C41      1.0000 0.00000  0.13910  0.98520  Biso   1.000  C
  C42      1.0000 0.00000  0.20260  0.03180  Biso   1.000  C
  C43      1.0000 0.00000  0.13310  0.07600  Biso   1.000  C
  C44      1.0000 0.00000  0.30420  0.62190  Biso   1.000  C
  N1       1.0000 0.77940  0.67230  0.79470  Biso   1.000  N
  N2       1.0000 0.21750  0.86910  0.72860  Biso   1.000  N
  N3       1.0000 0.77940  0.32770  0.20530  Biso   1.000  N
  N4       1.0000 0.21750  0.13090  0.27140  Biso   1.000  N
  N5       1.0000 0.22060  0.82770  0.29470  Biso   1.000  N
  N6       1.0000 0.78250  0.63090  0.22860  Biso   1.000  N
  N7       1.0000 0.22060  0.17230  0.70530  Biso   1.000  N
  N8       1.0000 0.78250  0.36910  0.77140  Biso   1.000  N
  N9       1.0000 0.22060  0.32770  0.20530  Biso   1.000  N
  N10      1.0000 0.78250  0.13090  0.27140  Biso   1.000  N
  N11      1.0000 0.22060  0.67230  0.79470  Biso   1.000  N
  N12      1.0000 0.78250  0.86910  0.72860  Biso   1.000  N
  N13      1.0000 0.77940  0.17230  0.70530  Biso   1.000  N
  N14      1.0000 0.21750  0.36910  0.77140  Biso   1.000  N
  N15      1.0000 0.77940  0.82770  0.29470  Biso   1.000  N
  N16      1.0000 0.21750  0.63090  0.22860  Biso   1.000  N
  N17      1.0000 0.00000  0.66750  0.69660  Biso   1.000  N
  N18      1.0000 0.00000  0.86640  0.83420  Biso   1.000  N
  N19      1.0000 0.00000  0.33250  0.30340  Biso   1.000  N
  N20      1.0000 0.00000  0.13360  0.16580  Biso   1.000  N
  N21      1.0000 0.00000  0.83250  0.19660  Biso   1.000  N
  N22      1.0000 0.00000  0.63360  0.33420  Biso   1.000  N
  N23      1.0000 0.00000  0.16750  0.80340  Biso   1.000  N
  N24      1.0000 0.00000  0.36640  0.66580  Biso   1.000  N
