data_image0
_cell_length_a       7.762
_cell_length_b       13.736
_cell_length_c       22.014
_cell_angle_alpha    90
_cell_angle_beta     90
_cell_angle_gamma    91.04

_symmetry_space_group_name_H-M    P 1
_symmetry_int_tables_number       1

loop_
  _symmetry_equiv_pos_as_xyz
  'x, y, z'

loop_
  _atom_site_label
  _atom_site_occupancy
  _atom_site_fract_x
  _atom_site_fract_y
  _atom_site_fract_z
  _atom_site_thermal_displace_type
  _atom_site_B_iso_or_equiv
  _atom_site_type_symbol
  Cd1      1.0000 0.93684  0.82856  0.79804  Biso   1.000  Cd
  Cd2      1.0000 0.06316  0.67144  0.29804  Biso   1.000  Cd
  Cd3      1.0000 0.06316  0.17144  0.20196  Biso   1.000  Cd
  Cd4      1.0000 0.93684  0.32856  0.70196  Biso   1.000  Cd
  Ni1      1.0000 0.43635  0.57693  0.76779  Biso   1.000  Ni
  Ni2      1.0000 0.56365  0.92307  0.26779  Biso   1.000  Ni
  Ni3      1.0000 0.56365  0.42307  0.23221  Biso   1.000  Ni
  Ni4      1.0000 0.43635  0.07693  0.73221  Biso   1.000  Ni
  H1       1.0000 0.94448  0.83938  0.67205  Biso   1.000  H
  H2       1.0000 0.12270  0.78813  0.69347  Biso   1.000  H
  H3       1.0000 0.78979  0.70229  0.66823  Biso   1.000  H
  H4       1.0000 0.94351  0.64191  0.71542  Biso   1.000  H
  H5       1.0000 0.15306  0.64757  0.63195  Biso   1.000  H
  H6       1.0000 0.95896  0.58099  0.61321  Biso   1.000  H
  H7       1.0000 0.07927  0.77869  0.56656  Biso   1.000  H
  H8       1.0000 0.86452  0.73085  0.55581  Biso   1.000  H
  H9       1.0000 0.98960  0.58094  0.50981  Biso   1.000  H
  H10      1.0000 0.20041  0.63594  0.51673  Biso   1.000  H
  H11      1.0000 0.90637  0.71771  0.44053  Biso   1.000  H
  H12      1.0000 0.12408  0.76387  0.44453  Biso   1.000  H
  H13      1.0000 0.97751  0.93063  0.90313  Biso   1.000  H
  H14      1.0000 0.78306  0.88321  0.90341  Biso   1.000  H
  H15      1.0000 0.05552  0.66062  0.17205  Biso   1.000  H
  H16      1.0000 0.87730  0.71187  0.19347  Biso   1.000  H
  H17      1.0000 0.21021  0.79771  0.16823  Biso   1.000  H
  H18      1.0000 0.05649  0.85809  0.21542  Biso   1.000  H
  H19      1.0000 0.84694  0.85243  0.13195  Biso   1.000  H
  H20      1.0000 0.04104  0.91901  0.11321  Biso   1.000  H
  H21      1.0000 0.92073  0.72131  0.06656  Biso   1.000  H
  H22      1.0000 0.13548  0.76915  0.05581  Biso   1.000  H
  H23      1.0000 0.01040  0.91906  0.00981  Biso   1.000  H
  H24      1.0000 0.79959  0.86406  0.01673  Biso   1.000  H
  H25      1.0000 0.09363  0.78229  0.94053  Biso   1.000  H
  H26      1.0000 0.87592  0.73613  0.94453  Biso   1.000  H
  H27      1.0000 0.02249  0.56937  0.40313  Biso   1.000  H
  H28      1.0000 0.21694  0.61679  0.40341  Biso   1.000  H
  H29      1.0000 0.05552  0.16062  0.32795  Biso   1.000  H
  H30      1.0000 0.87730  0.21187  0.30653  Biso   1.000  H
  H31      1.0000 0.21021  0.29771  0.33177  Biso   1.000  H
  H32      1.0000 0.05649  0.35809  0.28458  Biso   1.000  H
  H33      1.0000 0.84694  0.35243  0.36805  Biso   1.000  H
  H34      1.0000 0.04104  0.41901  0.38679  Biso   1.000  H
  H35      1.0000 0.92073  0.22131  0.43344  Biso   1.000  H
  H36      1.0000 0.13548  0.26915  0.44419  Biso   1.000  H
  H37      1.0000 0.01040  0.41906  0.49019  Biso   1.000  H
  H38      1.0000 0.79959  0.36406  0.48327  Biso   1.000  H
  H39      1.0000 0.09363  0.28229  0.55947  Biso   1.000  H
  H40      1.0000 0.87592  0.23613  0.55547  Biso   1.000  H
  H41      1.0000 0.02249  0.06937  0.09687  Biso   1.000  H
  H42      1.0000 0.21694  0.11679  0.09659  Biso   1.000  H
  H43      1.0000 0.94448  0.33938  0.82795  Biso   1.000  H
  H44      1.0000 0.12270  0.28813  0.80653  Biso   1.000  H
  H45      1.0000 0.78979  0.20229  0.83177  Biso   1.000  H
  H46      1.0000 0.94351  0.14191  0.78458  Biso   1.000  H
  H47      1.0000 0.15306  0.14757  0.86805  Biso   1.000  H
  H48      1.0000 0.95896  0.08099  0.88679  Biso   1.000  H
  H49      1.0000 0.07927  0.27869  0.93344  Biso   1.000  H
  H50      1.0000 0.86452  0.23085  0.94419  Biso   1.000  H
  H51      1.0000 0.98960  0.08094  0.99019  Biso   1.000  H
  H52      1.0000 0.20041  0.13594  0.98327  Biso   1.000  H
  H53      1.0000 0.90637  0.21771  0.05947  Biso   1.000  H
  H54      1.0000 0.12408  0.26387  0.05547  Biso   1.000  H
  H55      1.0000 0.97751  0.43063  0.59687  Biso   1.000  H
  H56      1.0000 0.78306  0.38321  0.59659  Biso   1.000  H
  C1       1.0000 0.60480  0.66230  0.79330  Biso   1.000  C
  C2       1.0000 0.61060  0.99550  0.76230  Biso   1.000  C
  C3       1.0000 0.26720  0.99320  0.76120  Biso   1.000  C
  C4       1.0000 0.26550  0.15940  0.70080  Biso   1.000  C
  C5       1.0000 0.92770  0.69450  0.67830  Biso   1.000  C
  C6       1.0000 0.01500  0.65380  0.62170  Biso   1.000  C
  C7       1.0000 0.99990  0.71170  0.56320  Biso   1.000  C
  C8       1.0000 0.06280  0.65020  0.50980  Biso   1.000  C
  C9       1.0000 0.04190  0.69790  0.44670  Biso   1.000  C
  C10      1.0000 0.39520  0.83770  0.29330  Biso   1.000  C
  C11      1.0000 0.38940  0.50450  0.26230  Biso   1.000  C
  C12      1.0000 0.73280  0.50680  0.26120  Biso   1.000  C
  C13      1.0000 0.73450  0.34060  0.20080  Biso   1.000  C
  C14      1.0000 0.07230  0.80550  0.17830  Biso   1.000  C
  C15      1.0000 0.98500  0.84620  0.12170  Biso   1.000  C
  C16      1.0000 0.00010  0.78830  0.06320  Biso   1.000  C
  C17      1.0000 0.93720  0.84980  0.00980  Biso   1.000  C
  C18      1.0000 0.95810  0.80210  0.94670  Biso   1.000  C
  C19      1.0000 0.39520  0.33770  0.20670  Biso   1.000  C
  C20      1.0000 0.38940  0.00450  0.23770  Biso   1.000  C
  C21      1.0000 0.73280  0.00680  0.23880  Biso   1.000  C
  C22      1.0000 0.73450  0.84060  0.29920  Biso   1.000  C
  C23      1.0000 0.07230  0.30550  0.32170  Biso   1.000  C
  C24      1.0000 0.98500  0.34620  0.37830  Biso   1.000  C
  C25      1.0000 0.00010  0.28830  0.43680  Biso   1.000  C
  C26      1.0000 0.93720  0.34980  0.49020  Biso   1.000  C
  C27      1.0000 0.95810  0.30210  0.55330  Biso   1.000  C
  C28      1.0000 0.60480  0.16230  0.70670  Biso   1.000  C
  C29      1.0000 0.61060  0.49550  0.73770  Biso   1.000  C
  C30      1.0000 0.26720  0.49320  0.73880  Biso   1.000  C
  C31      1.0000 0.26550  0.65940  0.79920  Biso   1.000  C
  C32      1.0000 0.92770  0.19450  0.82170  Biso   1.000  C
  C33      1.0000 0.01500  0.15380  0.87830  Biso   1.000  C
  C34      1.0000 0.99990  0.21170  0.93680  Biso   1.000  C
  C35      1.0000 0.06280  0.15020  0.99020  Biso   1.000  C
  C36      1.0000 0.04190  0.19790  0.05330  Biso   1.000  C
  N1       1.0000 0.70930  0.71580  0.80770  Biso   1.000  N
  N2       1.0000 0.72270  0.94660  0.77860  Biso   1.000  N
  N3       1.0000 0.16220  0.94470  0.78100  Biso   1.000  N
  N4       1.0000 0.16020  0.70970  0.81790  Biso   1.000  N
  N5       1.0000 0.99470  0.78810  0.69860  Biso   1.000  N
  N6       1.0000 0.90790  0.86940  0.89710  Biso   1.000  N
  N7       1.0000 0.29070  0.78420  0.30770  Biso   1.000  N
  N8       1.0000 0.27730  0.55340  0.27860  Biso   1.000  N
  N9       1.0000 0.83780  0.55530  0.28100  Biso   1.000  N
  N10      1.0000 0.83980  0.79030  0.31790  Biso   1.000  N
  N11      1.0000 0.00530  0.71190  0.19860  Biso   1.000  N
  N12      1.0000 0.09210  0.63060  0.39710  Biso   1.000  N
  N13      1.0000 0.29070  0.28420  0.19230  Biso   1.000  N
  N14      1.0000 0.27730  0.05340  0.22140  Biso   1.000  N
  N15      1.0000 0.83780  0.05530  0.21900  Biso   1.000  N
  N16      1.0000 0.83980  0.29030  0.18210  Biso   1.000  N
  N17      1.0000 0.00530  0.21190  0.30140  Biso   1.000  N
  N18      1.0000 0.09210  0.13060  0.10290  Biso   1.000  N
  N19      1.0000 0.70930  0.21580  0.69230  Biso   1.000  N
  N20      1.0000 0.72270  0.44660  0.72140  Biso   1.000  N
  N21      1.0000 0.16220  0.44470  0.71900  Biso   1.000  N
  N22      1.0000 0.16020  0.20970  0.68210  Biso   1.000  N
  N23      1.0000 0.99470  0.28810  0.80140  Biso   1.000  N
  N24      1.0000 0.90790  0.36940  0.60290  Biso   1.000  N
