data_image0
_cell_length_a       13.5895
_cell_length_b       8.8351
_cell_length_c       9.2294
_cell_angle_alpha    90
_cell_angle_beta     100.79
_cell_angle_gamma    90

_symmetry_space_group_name_H-M    "P 1"
_symmetry_int_tables_number       1

loop_
  _symmetry_equiv_pos_as_xyz
  'x, y, z'

loop_
  _atom_site_label
  _atom_site_occupancy
  _atom_site_fract_x
  _atom_site_fract_y
  _atom_site_fract_z
  _atom_site_thermal_displace_type
  _atom_site_B_iso_or_equiv
  _atom_site_type_symbol
  P1       1.0000 0.12940  0.11740  0.42950  Biso   1.000  P
  O1       1.0000 0.15370  0.15270  0.27690  Biso   1.000  O
  O2       1.0000 0.06600  0.44000  0.16980  Biso   1.000  O
  O3       1.0000 0.06520  0.34850  0.86690  Biso   1.000  O
  O4       1.0000 0.15170  0.94830  0.47890  Biso   1.000  O
  O5       1.0000 0.02090  0.14880  0.43840  Biso   1.000  O
  C1       1.0000 0.19430  0.25400  0.55640  Biso   1.000  C
  F1       1.0000 0.25090  0.33390  0.08140  Biso   1.000  F
  C2       1.0000 0.22380  0.21100  0.71700  Biso   1.000  C
  N1       1.0000 0.33470  0.16580  0.72320  Biso   1.000  N
  C3       1.0000 0.34910  0.00640  0.71770  Biso   1.000  C
  C4       1.0000 0.40030  0.94810  0.61690  Biso   1.000  C
  C5       1.0000 0.45520  0.02710  0.53400  Biso   1.000  C
  C6       1.0000 0.42660  0.18300  0.52910  Biso   1.000  C
  C7       1.0000 0.39660  0.24630  0.65490  Biso   1.000  C
  Zr1      1.0000 0.10990  0.25330  0.07050  Biso   1.000  Zr
  P2       1.0000 0.87060  0.11740  0.07050  Biso   1.000  P
  O6       1.0000 0.84630  0.15270  0.22310  Biso   1.000  O
  O7       1.0000 0.93400  0.44000  0.33020  Biso   1.000  O
  O8       1.0000 0.93480  0.34850  0.63310  Biso   1.000  O
  O9       1.0000 0.84830  0.94830  0.02110  Biso   1.000  O
  O10      1.0000 0.97910  0.14880  0.06160  Biso   1.000  O
  C8       1.0000 0.80570  0.25400  0.94360  Biso   1.000  C
  F2       1.0000 0.74910  0.33390  0.41860  Biso   1.000  F
  C9       1.0000 0.77620  0.21100  0.78300  Biso   1.000  C
  N2       1.0000 0.66530  0.16580  0.77680  Biso   1.000  N
  C10      1.0000 0.65090  0.00640  0.78230  Biso   1.000  C
  C11      1.0000 0.59970  0.94810  0.88310  Biso   1.000  C
  C12      1.0000 0.54480  0.02710  0.96600  Biso   1.000  C
  C13      1.0000 0.57340  0.18300  0.97090  Biso   1.000  C
  C14      1.0000 0.60340  0.24630  0.84510  Biso   1.000  C
  Zr2      1.0000 0.89010  0.25330  0.42950  Biso   1.000  Zr
  P3       1.0000 0.87060  0.88260  0.57050  Biso   1.000  P
  O11      1.0000 0.84630  0.84730  0.72310  Biso   1.000  O
  O12      1.0000 0.93400  0.56000  0.83020  Biso   1.000  O
  O13      1.0000 0.93480  0.65150  0.13310  Biso   1.000  O
  O14      1.0000 0.84830  0.05170  0.52110  Biso   1.000  O
  O15      1.0000 0.97910  0.85120  0.56160  Biso   1.000  O
  C15      1.0000 0.80570  0.74600  0.44360  Biso   1.000  C
  F3       1.0000 0.74910  0.66610  0.91860  Biso   1.000  F
  C16      1.0000 0.77620  0.78900  0.28300  Biso   1.000  C
  N3       1.0000 0.66530  0.83420  0.27680  Biso   1.000  N
  C17      1.0000 0.65090  0.99360  0.28230  Biso   1.000  C
  C18      1.0000 0.59970  0.05190  0.38310  Biso   1.000  C
  C19      1.0000 0.54480  0.97290  0.46600  Biso   1.000  C
  C20      1.0000 0.57340  0.81700  0.47090  Biso   1.000  C
  C21      1.0000 0.60340  0.75370  0.34510  Biso   1.000  C
  Zr3      1.0000 0.89010  0.74670  0.92950  Biso   1.000  Zr
  P4       1.0000 0.12940  0.88260  0.92950  Biso   1.000  P
  O16      1.0000 0.15370  0.84730  0.77690  Biso   1.000  O
  O17      1.0000 0.06600  0.56000  0.66980  Biso   1.000  O
  O18      1.0000 0.06520  0.65150  0.36690  Biso   1.000  O
  O19      1.0000 0.15170  0.05170  0.97890  Biso   1.000  O
  O20      1.0000 0.02090  0.85120  0.93840  Biso   1.000  O
  C22      1.0000 0.19430  0.74600  0.05640  Biso   1.000  C
  F4       1.0000 0.25090  0.66610  0.58140  Biso   1.000  F
  C23      1.0000 0.22380  0.78900  0.21700  Biso   1.000  C
  N4       1.0000 0.33470  0.83420  0.22320  Biso   1.000  N
  C24      1.0000 0.34910  0.99360  0.21770  Biso   1.000  C
  C25      1.0000 0.40030  0.05190  0.11690  Biso   1.000  C
  C26      1.0000 0.45520  0.97290  0.03400  Biso   1.000  C
  C27      1.0000 0.42660  0.81700  0.02910  Biso   1.000  C
  C28      1.0000 0.39660  0.75370  0.15490  Biso   1.000  C
  Zr4      1.0000 0.10990  0.74670  0.57050  Biso   1.000  Zr
  P5       1.0000 0.00000  0.54230  0.25000  Biso   1.000  P
  P6       1.0000 0.00000  0.45770  0.75000  Biso   1.000  P
