data_image0
_cell_length_a       6.4018
_cell_length_b       8.9909
_cell_length_c       26.271
_cell_angle_alpha    90
_cell_angle_beta     90
_cell_angle_gamma    90

_symmetry_space_group_name_H-M    P 1
_symmetry_int_tables_number       1

loop_
  _symmetry_equiv_pos_as_xyz
  'x, y, z'

loop_
  _atom_site_label
  _atom_site_occupancy
  _atom_site_fract_x
  _atom_site_fract_y
  _atom_site_fract_z
  _atom_site_thermal_displace_type
  _atom_site_B_iso_or_equiv
  _atom_site_type_symbol
  Co1      1.0000 0.00000  0.00000  0.71477  Biso   1.000  Co
  Co2      1.0000 0.50000  0.00000  0.78523  Biso   1.000  Co
  Co3      1.0000 0.00000  0.00000  0.28523  Biso   1.000  Co
  Co4      1.0000 0.50000  0.00000  0.21477  Biso   1.000  Co
  H1       1.0000 0.75440  0.87670  0.62650  Biso   1.000  H
  H2       1.0000 0.74790  0.87200  0.53940  Biso   1.000  H
  H3       1.0000 0.25440  0.12330  0.87350  Biso   1.000  H
  H4       1.0000 0.24790  0.12800  0.96060  Biso   1.000  H
  H5       1.0000 0.74560  0.87670  0.87350  Biso   1.000  H
  H6       1.0000 0.75210  0.87200  0.96060  Biso   1.000  H
  H7       1.0000 0.24560  0.12330  0.62650  Biso   1.000  H
  H8       1.0000 0.25210  0.12800  0.53940  Biso   1.000  H
  H9       1.0000 0.24560  0.12330  0.37350  Biso   1.000  H
  H10      1.0000 0.25210  0.12800  0.46060  Biso   1.000  H
  H11      1.0000 0.74560  0.87670  0.12650  Biso   1.000  H
  H12      1.0000 0.75210  0.87200  0.03940  Biso   1.000  H
  H13      1.0000 0.25440  0.12330  0.12650  Biso   1.000  H
  H14      1.0000 0.24790  0.12800  0.03940  Biso   1.000  H
  H15      1.0000 0.75440  0.87670  0.37350  Biso   1.000  H
  H16      1.0000 0.74790  0.87200  0.46060  Biso   1.000  H
  C1       1.0000 0.75630  0.49160  0.79401  Biso   1.000  C
  C2       1.0000 0.76050  0.33720  0.79410  Biso   1.000  C
  C3       1.0000 0.85720  0.92810  0.60870  Biso   1.000  C
  C4       1.0000 0.85190  0.92500  0.55610  Biso   1.000  C
  C5       1.0000 0.25630  0.50840  0.70599  Biso   1.000  C
  C6       1.0000 0.26050  0.66280  0.70590  Biso   1.000  C
  C7       1.0000 0.35720  0.07190  0.89130  Biso   1.000  C
  C8       1.0000 0.35190  0.07500  0.94390  Biso   1.000  C
  C9       1.0000 0.74370  0.49160  0.70599  Biso   1.000  C
  C10      1.0000 0.73950  0.33720  0.70590  Biso   1.000  C
  C11      1.0000 0.64280  0.92810  0.89130  Biso   1.000  C
  C12      1.0000 0.64810  0.92500  0.94390  Biso   1.000  C
  C13      1.0000 0.24370  0.50840  0.79401  Biso   1.000  C
  C14      1.0000 0.23950  0.66280  0.79410  Biso   1.000  C
  C15      1.0000 0.14280  0.07190  0.60870  Biso   1.000  C
  C16      1.0000 0.14810  0.07500  0.55610  Biso   1.000  C
  C17      1.0000 0.24370  0.50840  0.20599  Biso   1.000  C
  C18      1.0000 0.23950  0.66280  0.20590  Biso   1.000  C
  C19      1.0000 0.14280  0.07190  0.39130  Biso   1.000  C
  C20      1.0000 0.14810  0.07500  0.44390  Biso   1.000  C
  C21      1.0000 0.74370  0.49160  0.29401  Biso   1.000  C
  C22      1.0000 0.73950  0.33720  0.29410  Biso   1.000  C
  C23      1.0000 0.64280  0.92810  0.10870  Biso   1.000  C
  C24      1.0000 0.64810  0.92500  0.05610  Biso   1.000  C
  C25      1.0000 0.25630  0.50840  0.29401  Biso   1.000  C
  C26      1.0000 0.26050  0.66280  0.29410  Biso   1.000  C
  C27      1.0000 0.35720  0.07190  0.10870  Biso   1.000  C
  C28      1.0000 0.35190  0.07500  0.05610  Biso   1.000  C
  C29      1.0000 0.75630  0.49160  0.20599  Biso   1.000  C
  C30      1.0000 0.76050  0.33720  0.20590  Biso   1.000  C
  C31      1.0000 0.85720  0.92810  0.39130  Biso   1.000  C
  C32      1.0000 0.85190  0.92500  0.44390  Biso   1.000  C
  C33      1.0000 0.00000  0.00000  0.52870  Biso   1.000  C
  C34      1.0000 0.50000  0.00000  0.97130  Biso   1.000  C
  C35      1.0000 0.00000  0.00000  0.47130  Biso   1.000  C
  C36      1.0000 0.50000  0.00000  0.02870  Biso   1.000  C
  C37      1.0000 0.75000  0.74170  0.75000  Biso   1.000  C
  C38      1.0000 0.75000  0.57310  0.75000  Biso   1.000  C
  C39      1.0000 0.75000  0.25600  0.75000  Biso   1.000  C
  C40      1.0000 0.25000  0.25830  0.75000  Biso   1.000  C
  C41      1.0000 0.25000  0.42690  0.75000  Biso   1.000  C
  C42      1.0000 0.25000  0.74400  0.75000  Biso   1.000  C
  C43      1.0000 0.25000  0.25830  0.25000  Biso   1.000  C
  C44      1.0000 0.25000  0.42690  0.25000  Biso   1.000  C
  C45      1.0000 0.25000  0.74400  0.25000  Biso   1.000  C
  C46      1.0000 0.75000  0.74170  0.25000  Biso   1.000  C
  C47      1.0000 0.75000  0.57310  0.25000  Biso   1.000  C
  C48      1.0000 0.75000  0.25600  0.25000  Biso   1.000  C
  N1       1.0000 0.00000  0.00000  0.63500  Biso   1.000  N
  N2       1.0000 0.50000  0.00000  0.86500  Biso   1.000  N
  N3       1.0000 0.00000  0.00000  0.36500  Biso   1.000  N
  N4       1.0000 0.50000  0.00000  0.13500  Biso   1.000  N
  O1       1.0000 0.83620  0.80420  0.71308  Biso   1.000  O
  O2       1.0000 0.33620  0.19580  0.78692  Biso   1.000  O
  O3       1.0000 0.66380  0.80420  0.78692  Biso   1.000  O
  O4       1.0000 0.16380  0.19580  0.71308  Biso   1.000  O
  O5       1.0000 0.16380  0.19580  0.28692  Biso   1.000  O
  O6       1.0000 0.66380  0.80420  0.21308  Biso   1.000  O
  O7       1.0000 0.33620  0.19580  0.21308  Biso   1.000  O
  O8       1.0000 0.83620  0.80420  0.28692  Biso   1.000  O
  O9       1.0000 0.75000  0.10510  0.75000  Biso   1.000  O
  O10      1.0000 0.25000  0.89490  0.75000  Biso   1.000  O
  O11      1.0000 0.25000  0.89490  0.25000  Biso   1.000  O
  O12      1.0000 0.75000  0.10510  0.25000  Biso   1.000  O
  F1       1.0000 0.76600  0.55880  0.84013  Biso   1.000  F
  F2       1.0000 0.77280  0.26540  0.83923  Biso   1.000  F
  F3       1.0000 0.26600  0.44120  0.65987  Biso   1.000  F
  F4       1.0000 0.27280  0.73460  0.66077  Biso   1.000  F
  F5       1.0000 0.73400  0.55880  0.65987  Biso   1.000  F
  F6       1.0000 0.72720  0.26540  0.66077  Biso   1.000  F
  F7       1.0000 0.23400  0.44120  0.84013  Biso   1.000  F
  F8       1.0000 0.22720  0.73460  0.83923  Biso   1.000  F
  F9       1.0000 0.23400  0.44120  0.15987  Biso   1.000  F
  F10      1.0000 0.22720  0.73460  0.16077  Biso   1.000  F
  F11      1.0000 0.73400  0.55880  0.34013  Biso   1.000  F
  F12      1.0000 0.72720  0.26540  0.33923  Biso   1.000  F
  F13      1.0000 0.26600  0.44120  0.34013  Biso   1.000  F
  F14      1.0000 0.27280  0.73460  0.33923  Biso   1.000  F
  F15      1.0000 0.76600  0.55880  0.15987  Biso   1.000  F
  F16      1.0000 0.77280  0.26540  0.16077  Biso   1.000  F
