data_image0
_cell_length_a       24.8606
_cell_length_b       24.8606
_cell_length_c       4.8016
_cell_angle_alpha    90
_cell_angle_beta     90
_cell_angle_gamma    90

_symmetry_space_group_name_H-M    "P 1"
_symmetry_int_tables_number       1

loop_
  _symmetry_equiv_pos_as_xyz
  'x, y, z'

loop_
  _atom_site_label
  _atom_site_occupancy
  _atom_site_fract_x
  _atom_site_fract_y
  _atom_site_fract_z
  _atom_site_thermal_displace_type
  _atom_site_B_iso_or_equiv
  _atom_site_type_symbol
  N1       1.0000 0.03180  0.93180  0.76880  Biso   1.000  N
  C1       1.0000 0.03680  0.85600  0.13350  Biso   1.000  C
  C2       1.0000 0.08530  0.83540  0.23200  Biso   1.000  C
  H1       1.0000 0.11840  0.85020  0.16980  Biso   1.000  H
  C3       1.0000 0.08510  0.79390  0.41880  Biso   1.000  C
  H2       1.0000 0.11850  0.77940  0.47800  Biso   1.000  H
  C4       1.0000 0.03870  0.77240  0.52370  Biso   1.000  C
  C5       1.0000 0.99130  0.79440  0.42350  Biso   1.000  C
  H3       1.0000 0.95810  0.78080  0.49280  Biso   1.000  H
  C6       1.0000 0.98980  0.83440  0.23100  Biso   1.000  C
  H4       1.0000 0.95630  0.84730  0.16420  Biso   1.000  H
  C7       1.0000 0.03500  0.89810  0.93230  Biso   1.000  C
  N2       1.0000 0.53180  0.43180  0.26880  Biso   1.000  N
  C8       1.0000 0.53680  0.35600  0.63350  Biso   1.000  C
  C9       1.0000 0.58530  0.33540  0.73200  Biso   1.000  C
  H5       1.0000 0.61840  0.35020  0.66980  Biso   1.000  H
  C10      1.0000 0.58510  0.29390  0.91880  Biso   1.000  C
  H6       1.0000 0.61850  0.27940  0.97800  Biso   1.000  H
  C11      1.0000 0.53870  0.27240  0.02370  Biso   1.000  C
  C12      1.0000 0.49130  0.29440  0.92350  Biso   1.000  C
  H7       1.0000 0.45810  0.28080  0.99280  Biso   1.000  H
  C13      1.0000 0.48980  0.33440  0.73100  Biso   1.000  C
  H8       1.0000 0.45630  0.34730  0.66420  Biso   1.000  H
  C14      1.0000 0.53500  0.39810  0.43230  Biso   1.000  C
  N3       1.0000 0.96820  0.06820  0.76880  Biso   1.000  N
  C15      1.0000 0.96320  0.14400  0.13350  Biso   1.000  C
  C16      1.0000 0.91470  0.16460  0.23200  Biso   1.000  C
  H9       1.0000 0.88160  0.14980  0.16980  Biso   1.000  H
  C17      1.0000 0.91490  0.20610  0.41880  Biso   1.000  C
  H10      1.0000 0.88150  0.22060  0.47800  Biso   1.000  H
  C18      1.0000 0.96130  0.22760  0.52370  Biso   1.000  C
  C19      1.0000 0.00870  0.20560  0.42350  Biso   1.000  C
  H11      1.0000 0.04190  0.21920  0.49280  Biso   1.000  H
  C20      1.0000 0.01020  0.16560  0.23100  Biso   1.000  C
  H12      1.0000 0.04370  0.15270  0.16420  Biso   1.000  H
  C21      1.0000 0.96500  0.10190  0.93230  Biso   1.000  C
  N4       1.0000 0.46820  0.56820  0.26880  Biso   1.000  N
  C22      1.0000 0.46320  0.64400  0.63350  Biso   1.000  C
  C23      1.0000 0.41470  0.66460  0.73200  Biso   1.000  C
  H13      1.0000 0.38160  0.64980  0.66980  Biso   1.000  H
  C24      1.0000 0.41490  0.70610  0.91880  Biso   1.000  C
  H14      1.0000 0.38150  0.72060  0.97800  Biso   1.000  H
  C25      1.0000 0.46130  0.72760  0.02370  Biso   1.000  C
  C26      1.0000 0.50870  0.70560  0.92350  Biso   1.000  C
  H15      1.0000 0.54190  0.71920  0.99280  Biso   1.000  H
  C27      1.0000 0.51020  0.66560  0.73100  Biso   1.000  C
  H16      1.0000 0.54370  0.65270  0.66420  Biso   1.000  H
  C28      1.0000 0.46500  0.60190  0.43230  Biso   1.000  C
  N5       1.0000 0.93180  0.96820  0.23120  Biso   1.000  N
  C29      1.0000 0.85600  0.96320  0.86650  Biso   1.000  C
  C30      1.0000 0.83540  0.91470  0.76800  Biso   1.000  C
  H17      1.0000 0.85020  0.88160  0.83020  Biso   1.000  H
  C31      1.0000 0.79390  0.91490  0.58120  Biso   1.000  C
  H18      1.0000 0.77940  0.88150  0.52200  Biso   1.000  H
  C32      1.0000 0.77240  0.96130  0.47630  Biso   1.000  C
  C33      1.0000 0.79440  0.00870  0.57650  Biso   1.000  C
  H19      1.0000 0.78080  0.04190  0.50720  Biso   1.000  H
  C34      1.0000 0.83440  0.01020  0.76900  Biso   1.000  C
  H20      1.0000 0.84730  0.04370  0.83580  Biso   1.000  H
  C35      1.0000 0.89810  0.96500  0.06770  Biso   1.000  C
  N6       1.0000 0.43180  0.46820  0.73120  Biso   1.000  N
  C36      1.0000 0.35600  0.46320  0.36650  Biso   1.000  C
  C37      1.0000 0.33540  0.41470  0.26800  Biso   1.000  C
  H21      1.0000 0.35020  0.38160  0.33020  Biso   1.000  H
  C38      1.0000 0.29390  0.41490  0.08120  Biso   1.000  C
  H22      1.0000 0.27940  0.38150  0.02200  Biso   1.000  H
  C39      1.0000 0.27240  0.46130  0.97630  Biso   1.000  C
  C40      1.0000 0.29440  0.50870  0.07650  Biso   1.000  C
  H23      1.0000 0.28080  0.54190  0.00720  Biso   1.000  H
  C41      1.0000 0.33440  0.51020  0.26900  Biso   1.000  C
  H24      1.0000 0.34730  0.54370  0.33580  Biso   1.000  H
  C42      1.0000 0.39810  0.46500  0.56770  Biso   1.000  C
  N7       1.0000 0.06820  0.03180  0.23120  Biso   1.000  N
  C43      1.0000 0.14400  0.03680  0.86650  Biso   1.000  C
  C44      1.0000 0.16460  0.08530  0.76800  Biso   1.000  C
  H25      1.0000 0.14980  0.11840  0.83020  Biso   1.000  H
  C45      1.0000 0.20610  0.08510  0.58120  Biso   1.000  C
  H26      1.0000 0.22060  0.11850  0.52200  Biso   1.000  H
  C46      1.0000 0.22760  0.03870  0.47630  Biso   1.000  C
  C47      1.0000 0.20560  0.99130  0.57650  Biso   1.000  C
  H27      1.0000 0.21920  0.95810  0.50720  Biso   1.000  H
  C48      1.0000 0.16560  0.98980  0.76900  Biso   1.000  C
  H28      1.0000 0.15270  0.95630  0.83580  Biso   1.000  H
  C49      1.0000 0.10190  0.03500  0.06770  Biso   1.000  C
  N8       1.0000 0.56820  0.53180  0.73120  Biso   1.000  N
  C50      1.0000 0.64400  0.53680  0.36650  Biso   1.000  C
  C51      1.0000 0.66460  0.58530  0.26800  Biso   1.000  C
  H29      1.0000 0.64980  0.61840  0.33020  Biso   1.000  H
  C52      1.0000 0.70610  0.58510  0.08120  Biso   1.000  C
  H30      1.0000 0.72060  0.61850  0.02200  Biso   1.000  H
  C53      1.0000 0.72760  0.53870  0.97630  Biso   1.000  C
  C54      1.0000 0.70560  0.49130  0.07650  Biso   1.000  C
  H31      1.0000 0.71920  0.45810  0.00720  Biso   1.000  H
  C55      1.0000 0.66560  0.48980  0.26900  Biso   1.000  C
  H32      1.0000 0.65270  0.45630  0.33580  Biso   1.000  H
  C56      1.0000 0.60190  0.53500  0.56770  Biso   1.000  C
  N9       1.0000 0.46820  0.93180  0.98120  Biso   1.000  N
  C57      1.0000 0.46320  0.85600  0.61650  Biso   1.000  C
  C58      1.0000 0.41470  0.83540  0.51800  Biso   1.000  C
  H33      1.0000 0.38160  0.85020  0.58020  Biso   1.000  H
  C59      1.0000 0.41490  0.79390  0.33120  Biso   1.000  C
  H34      1.0000 0.38150  0.77940  0.27200  Biso   1.000  H
  C60      1.0000 0.46130  0.77240  0.22630  Biso   1.000  C
  C61      1.0000 0.50870  0.79440  0.32650  Biso   1.000  C
  H35      1.0000 0.54190  0.78080  0.25720  Biso   1.000  H
  C62      1.0000 0.51020  0.83440  0.51900  Biso   1.000  C
  H36      1.0000 0.54370  0.84730  0.58580  Biso   1.000  H
  C63      1.0000 0.46500  0.89810  0.81770  Biso   1.000  C
  N10      1.0000 0.96820  0.43180  0.48120  Biso   1.000  N
  C64      1.0000 0.96320  0.35600  0.11650  Biso   1.000  C
  C65      1.0000 0.91470  0.33540  0.01800  Biso   1.000  C
  H37      1.0000 0.88160  0.35020  0.08020  Biso   1.000  H
  C66      1.0000 0.91490  0.29390  0.83120  Biso   1.000  C
  H38      1.0000 0.88150  0.27940  0.77200  Biso   1.000  H
  C67      1.0000 0.96130  0.27240  0.72630  Biso   1.000  C
  C68      1.0000 0.00870  0.29440  0.82650  Biso   1.000  C
  H39      1.0000 0.04190  0.28080  0.75720  Biso   1.000  H
  C69      1.0000 0.01020  0.33440  0.01900  Biso   1.000  C
  H40      1.0000 0.04370  0.34730  0.08580  Biso   1.000  H
  C70      1.0000 0.96500  0.39810  0.31770  Biso   1.000  C
  N11      1.0000 0.53180  0.06820  0.98120  Biso   1.000  N
  C71      1.0000 0.53680  0.14400  0.61650  Biso   1.000  C
  C72      1.0000 0.58530  0.16460  0.51800  Biso   1.000  C
  H41      1.0000 0.61840  0.14980  0.58020  Biso   1.000  H
  C73      1.0000 0.58510  0.20610  0.33120  Biso   1.000  C
  H42      1.0000 0.61850  0.22060  0.27200  Biso   1.000  H
  C74      1.0000 0.53870  0.22760  0.22630  Biso   1.000  C
  C75      1.0000 0.49130  0.20560  0.32650  Biso   1.000  C
  H43      1.0000 0.45810  0.21920  0.25720  Biso   1.000  H
  C76      1.0000 0.48980  0.16560  0.51900  Biso   1.000  C
  H44      1.0000 0.45630  0.15270  0.58580  Biso   1.000  H
  C77      1.0000 0.53500  0.10190  0.81770  Biso   1.000  C
  N12      1.0000 0.03180  0.56820  0.48120  Biso   1.000  N
  C78      1.0000 0.03680  0.64400  0.11650  Biso   1.000  C
  C79      1.0000 0.08530  0.66460  0.01800  Biso   1.000  C
  H45      1.0000 0.11840  0.64980  0.08020  Biso   1.000  H
  C80      1.0000 0.08510  0.70610  0.83120  Biso   1.000  C
  H46      1.0000 0.11850  0.72060  0.77200  Biso   1.000  H
  C81      1.0000 0.03870  0.72760  0.72630  Biso   1.000  C
  C82      1.0000 0.99130  0.70560  0.82650  Biso   1.000  C
  H47      1.0000 0.95810  0.71920  0.75720  Biso   1.000  H
  C83      1.0000 0.98980  0.66560  0.01900  Biso   1.000  C
  H48      1.0000 0.95630  0.65270  0.08580  Biso   1.000  H
  C84      1.0000 0.03500  0.60190  0.31770  Biso   1.000  C
  N13      1.0000 0.56820  0.96820  0.51880  Biso   1.000  N
  C85      1.0000 0.64400  0.96320  0.88350  Biso   1.000  C
  C86      1.0000 0.66460  0.91470  0.98200  Biso   1.000  C
  H49      1.0000 0.64980  0.88160  0.91980  Biso   1.000  H
  C87      1.0000 0.70610  0.91490  0.16880  Biso   1.000  C
  H50      1.0000 0.72060  0.88150  0.22800  Biso   1.000  H
  C88      1.0000 0.72760  0.96130  0.27370  Biso   1.000  C
  C89      1.0000 0.70560  0.00870  0.17350  Biso   1.000  C
  H51      1.0000 0.71920  0.04190  0.24280  Biso   1.000  H
  C90      1.0000 0.66560  0.01020  0.98100  Biso   1.000  C
  H52      1.0000 0.65270  0.04370  0.91420  Biso   1.000  H
  C91      1.0000 0.60190  0.96500  0.68230  Biso   1.000  C
  N14      1.0000 0.06820  0.46820  0.01880  Biso   1.000  N
  C92      1.0000 0.14400  0.46320  0.38350  Biso   1.000  C
  C93      1.0000 0.16460  0.41470  0.48200  Biso   1.000  C
  H53      1.0000 0.14980  0.38160  0.41980  Biso   1.000  H
  C94      1.0000 0.20610  0.41490  0.66880  Biso   1.000  C
  H54      1.0000 0.22060  0.38150  0.72800  Biso   1.000  H
  C95      1.0000 0.22760  0.46130  0.77370  Biso   1.000  C
  C96      1.0000 0.20560  0.50870  0.67350  Biso   1.000  C
  H55      1.0000 0.21920  0.54190  0.74280  Biso   1.000  H
  C97      1.0000 0.16560  0.51020  0.48100  Biso   1.000  C
  H56      1.0000 0.15270  0.54370  0.41420  Biso   1.000  H
  C98      1.0000 0.10190  0.46500  0.18230  Biso   1.000  C
  N15      1.0000 0.43180  0.03180  0.51880  Biso   1.000  N
  C99      1.0000 0.35600  0.03680  0.88350  Biso   1.000  C
  C100     1.0000 0.33540  0.08530  0.98200  Biso   1.000  C
  H57      1.0000 0.35020  0.11840  0.91980  Biso   1.000  H
  C101     1.0000 0.29390  0.08510  0.16880  Biso   1.000  C
  H58      1.0000 0.27940  0.11850  0.22800  Biso   1.000  H
  C102     1.0000 0.27240  0.03870  0.27370  Biso   1.000  C
  C103     1.0000 0.29440  0.99130  0.17350  Biso   1.000  C
  H59      1.0000 0.28080  0.95810  0.24280  Biso   1.000  H
  C104     1.0000 0.33440  0.98980  0.98100  Biso   1.000  C
  H60      1.0000 0.34730  0.95630  0.91420  Biso   1.000  H
  C105     1.0000 0.39810  0.03500  0.68230  Biso   1.000  C
  N16      1.0000 0.93180  0.53180  0.01880  Biso   1.000  N
  C106     1.0000 0.85600  0.53680  0.38350  Biso   1.000  C
  C107     1.0000 0.83540  0.58530  0.48200  Biso   1.000  C
  H61      1.0000 0.85020  0.61840  0.41980  Biso   1.000  H
  C108     1.0000 0.79390  0.58510  0.66880  Biso   1.000  C
  H62      1.0000 0.77940  0.61850  0.72800  Biso   1.000  H
  C109     1.0000 0.77240  0.53870  0.77370  Biso   1.000  C
  C110     1.0000 0.79440  0.49130  0.67350  Biso   1.000  C
  H63      1.0000 0.78080  0.45810  0.74280  Biso   1.000  H
  C111     1.0000 0.83440  0.48980  0.48100  Biso   1.000  C
  H64      1.0000 0.84730  0.45630  0.41420  Biso   1.000  H
  C112     1.0000 0.89810  0.53500  0.18230  Biso   1.000  C
  Ag1      1.0000 0.00000  0.00000  0.50000  Biso   1.000  Ag
  Ag2      1.0000 0.50000  0.50000  0.00000  Biso   1.000  Ag
  Ag3      1.0000 0.50000  0.00000  0.25000  Biso   1.000  Ag
  Ag4      1.0000 0.00000  0.50000  0.75000  Biso   1.000  Ag
