data_image0
_cell_length_a       5.7716
_cell_length_b       29.4517
_cell_length_c       30.5119
_cell_angle_alpha    90
_cell_angle_beta     90
_cell_angle_gamma    90

_symmetry_space_group_name_H-M    "P 1"
_symmetry_int_tables_number       1

loop_
  _symmetry_equiv_pos_as_xyz
  'x, y, z'

loop_
  _atom_site_label
  _atom_site_occupancy
  _atom_site_fract_x
  _atom_site_fract_y
  _atom_site_fract_z
  _atom_site_thermal_displace_type
  _atom_site_B_iso_or_equiv
  _atom_site_type_symbol
  N1       1.0000 0.39710  0.16570  0.08620  Biso   1.000  N
  C1       1.0000 0.76380  0.20000  0.05130  Biso   1.000  C
  C2       1.0000 0.86410  0.23830  0.06930  Biso   1.000  C
  H1       1.0000 0.80360  0.25130  0.09540  Biso   1.000  H
  C3       1.0000 0.05590  0.25770  0.04860  Biso   1.000  C
  H2       1.0000 0.12380  0.28420  0.06080  Biso   1.000  H
  C4       1.0000 0.14870  0.23960  0.01120  Biso   1.000  C
  C5       1.0000 0.04970  0.20010  0.99460  Biso   1.000  C
  H3       1.0000 0.11420  0.18620  0.96930  Biso   1.000  H
  C6       1.0000 0.86010  0.18100  0.01450  Biso   1.000  C
  H4       1.0000 0.79420  0.15420  0.00260  Biso   1.000  H
  C7       1.0000 0.56080  0.18070  0.07100  Biso   1.000  C
  N2       1.0000 0.39710  0.66570  0.58620  Biso   1.000  N
  C8       1.0000 0.76380  0.70000  0.55130  Biso   1.000  C
  C9       1.0000 0.86410  0.73830  0.56930  Biso   1.000  C
  H5       1.0000 0.80360  0.75130  0.59540  Biso   1.000  H
  C10      1.0000 0.05590  0.75770  0.54860  Biso   1.000  C
  H6       1.0000 0.12380  0.78420  0.56080  Biso   1.000  H
  C11      1.0000 0.14870  0.73960  0.51120  Biso   1.000  C
  C12      1.0000 0.04970  0.70010  0.49460  Biso   1.000  C
  H7       1.0000 0.11420  0.68620  0.46930  Biso   1.000  H
  C13      1.0000 0.86010  0.68100  0.51450  Biso   1.000  C
  H8       1.0000 0.79420  0.65420  0.50260  Biso   1.000  H
  C14      1.0000 0.56080  0.68070  0.57100  Biso   1.000  C
  N3       1.0000 0.89710  0.16570  0.58620  Biso   1.000  N
  C15      1.0000 0.26380  0.20000  0.55130  Biso   1.000  C
  C16      1.0000 0.36410  0.23830  0.56930  Biso   1.000  C
  H9       1.0000 0.30360  0.25130  0.59540  Biso   1.000  H
  C17      1.0000 0.55590  0.25770  0.54860  Biso   1.000  C
  H10      1.0000 0.62380  0.28420  0.56080  Biso   1.000  H
  C18      1.0000 0.64870  0.23960  0.51120  Biso   1.000  C
  C19      1.0000 0.54970  0.20010  0.49460  Biso   1.000  C
  H11      1.0000 0.61420  0.18620  0.46930  Biso   1.000  H
  C20      1.0000 0.36010  0.18100  0.51450  Biso   1.000  C
  H12      1.0000 0.29420  0.15420  0.50260  Biso   1.000  H
  C21      1.0000 0.06080  0.18070  0.57100  Biso   1.000  C
  N4       1.0000 0.89710  0.66570  0.08620  Biso   1.000  N
  C22      1.0000 0.26380  0.70000  0.05130  Biso   1.000  C
  C23      1.0000 0.36410  0.73830  0.06930  Biso   1.000  C
  H13      1.0000 0.30360  0.75130  0.09540  Biso   1.000  H
  C24      1.0000 0.55590  0.75770  0.04860  Biso   1.000  C
  H14      1.0000 0.62380  0.78420  0.06080  Biso   1.000  H
  C25      1.0000 0.64870  0.73960  0.01120  Biso   1.000  C
  C26      1.0000 0.54970  0.70010  0.99460  Biso   1.000  C
  H15      1.0000 0.61420  0.68620  0.96930  Biso   1.000  H
  C27      1.0000 0.36010  0.68100  0.01450  Biso   1.000  C
  H16      1.0000 0.29420  0.65420  0.00260  Biso   1.000  H
  C28      1.0000 0.06080  0.68070  0.07100  Biso   1.000  C
  N5       1.0000 0.35290  0.58430  0.08620  Biso   1.000  N
  C29      1.0000 0.98620  0.55000  0.05130  Biso   1.000  C
  C30      1.0000 0.88590  0.51170  0.06930  Biso   1.000  C
  H17      1.0000 0.94640  0.49870  0.09540  Biso   1.000  H
  C31      1.0000 0.69410  0.49230  0.04860  Biso   1.000  C
  H18      1.0000 0.62620  0.46580  0.06080  Biso   1.000  H
  C32      1.0000 0.60130  0.51040  0.01120  Biso   1.000  C
  C33      1.0000 0.70030  0.54990  0.99460  Biso   1.000  C
  H19      1.0000 0.63580  0.56380  0.96930  Biso   1.000  H
  C34      1.0000 0.88990  0.56900  0.01450  Biso   1.000  C
  H20      1.0000 0.95580  0.59580  0.00260  Biso   1.000  H
  C35      1.0000 0.18920  0.56930  0.07100  Biso   1.000  C
  N6       1.0000 0.35290  0.08430  0.58620  Biso   1.000  N
  C36      1.0000 0.98620  0.05000  0.55130  Biso   1.000  C
  C37      1.0000 0.88590  0.01170  0.56930  Biso   1.000  C
  H21      1.0000 0.94640  0.99870  0.59540  Biso   1.000  H
  C38      1.0000 0.69410  0.99230  0.54860  Biso   1.000  C
  H22      1.0000 0.62620  0.96580  0.56080  Biso   1.000  H
  C39      1.0000 0.60130  0.01040  0.51120  Biso   1.000  C
  C40      1.0000 0.70030  0.04990  0.49460  Biso   1.000  C
  H23      1.0000 0.63580  0.06380  0.46930  Biso   1.000  H
  C41      1.0000 0.88990  0.06900  0.51450  Biso   1.000  C
  H24      1.0000 0.95580  0.09580  0.50260  Biso   1.000  H
  C42      1.0000 0.18920  0.06930  0.57100  Biso   1.000  C
  N7       1.0000 0.85290  0.58430  0.58620  Biso   1.000  N
  C43      1.0000 0.48620  0.55000  0.55130  Biso   1.000  C
  C44      1.0000 0.38590  0.51170  0.56930  Biso   1.000  C
  H25      1.0000 0.44640  0.49870  0.59540  Biso   1.000  H
  C45      1.0000 0.19410  0.49230  0.54860  Biso   1.000  C
  H26      1.0000 0.12620  0.46580  0.56080  Biso   1.000  H
  C46      1.0000 0.10130  0.51040  0.51120  Biso   1.000  C
  C47      1.0000 0.20030  0.54990  0.49460  Biso   1.000  C
  H27      1.0000 0.13580  0.56380  0.46930  Biso   1.000  H
  C48      1.0000 0.38990  0.56900  0.51450  Biso   1.000  C
  H28      1.0000 0.45580  0.59580  0.50260  Biso   1.000  H
  C49      1.0000 0.68920  0.56930  0.57100  Biso   1.000  C
  N8       1.0000 0.85290  0.08430  0.08620  Biso   1.000  N
  C50      1.0000 0.48620  0.05000  0.05130  Biso   1.000  C
  C51      1.0000 0.38590  0.01170  0.06930  Biso   1.000  C
  H29      1.0000 0.44640  0.99870  0.09540  Biso   1.000  H
  C52      1.0000 0.19410  0.99230  0.04860  Biso   1.000  C
  H30      1.0000 0.12620  0.96580  0.06080  Biso   1.000  H
  C53      1.0000 0.10130  0.01040  0.01120  Biso   1.000  C
  C54      1.0000 0.20030  0.04990  0.99460  Biso   1.000  C
  H31      1.0000 0.13580  0.06380  0.96930  Biso   1.000  H
  C55      1.0000 0.38990  0.06900  0.01450  Biso   1.000  C
  H32      1.0000 0.45580  0.09580  0.00260  Biso   1.000  H
  C56      1.0000 0.68920  0.06930  0.07100  Biso   1.000  C
  N9       1.0000 0.35290  0.16570  0.66380  Biso   1.000  N
  C57      1.0000 0.98620  0.20000  0.69870  Biso   1.000  C
  C58      1.0000 0.88590  0.23830  0.68070  Biso   1.000  C
  H33      1.0000 0.94640  0.25130  0.65460  Biso   1.000  H
  C59      1.0000 0.69410  0.25770  0.70140  Biso   1.000  C
  H34      1.0000 0.62620  0.28420  0.68920  Biso   1.000  H
  C60      1.0000 0.60130  0.23960  0.73880  Biso   1.000  C
  C61      1.0000 0.70030  0.20010  0.75540  Biso   1.000  C
  H35      1.0000 0.63580  0.18620  0.78070  Biso   1.000  H
  C62      1.0000 0.88990  0.18100  0.73550  Biso   1.000  C
  H36      1.0000 0.95580  0.15420  0.74740  Biso   1.000  H
  C63      1.0000 0.18920  0.18070  0.67900  Biso   1.000  C
  N10      1.0000 0.35290  0.66570  0.16380  Biso   1.000  N
  C64      1.0000 0.98620  0.70000  0.19870  Biso   1.000  C
  C65      1.0000 0.88590  0.73830  0.18070  Biso   1.000  C
  H37      1.0000 0.94640  0.75130  0.15460  Biso   1.000  H
  C66      1.0000 0.69410  0.75770  0.20140  Biso   1.000  C
  H38      1.0000 0.62620  0.78420  0.18920  Biso   1.000  H
  C67      1.0000 0.60130  0.73960  0.23880  Biso   1.000  C
  C68      1.0000 0.70030  0.70010  0.25540  Biso   1.000  C
  H39      1.0000 0.63580  0.68620  0.28070  Biso   1.000  H
  C69      1.0000 0.88990  0.68100  0.23550  Biso   1.000  C
  H40      1.0000 0.95580  0.65420  0.24740  Biso   1.000  H
  C70      1.0000 0.18920  0.68070  0.17900  Biso   1.000  C
  N11      1.0000 0.85290  0.16570  0.16380  Biso   1.000  N
  C71      1.0000 0.48620  0.20000  0.19870  Biso   1.000  C
  C72      1.0000 0.38590  0.23830  0.18070  Biso   1.000  C
  H41      1.0000 0.44640  0.25130  0.15460  Biso   1.000  H
  C73      1.0000 0.19410  0.25770  0.20140  Biso   1.000  C
  H42      1.0000 0.12620  0.28420  0.18920  Biso   1.000  H
  C74      1.0000 0.10130  0.23960  0.23880  Biso   1.000  C
  C75      1.0000 0.20030  0.20010  0.25540  Biso   1.000  C
  H43      1.0000 0.13580  0.18620  0.28070  Biso   1.000  H
  C76      1.0000 0.38990  0.18100  0.23550  Biso   1.000  C
  H44      1.0000 0.45580  0.15420  0.24740  Biso   1.000  H
  C77      1.0000 0.68920  0.18070  0.17900  Biso   1.000  C
  N12      1.0000 0.85290  0.66570  0.66380  Biso   1.000  N
  C78      1.0000 0.48620  0.70000  0.69870  Biso   1.000  C
  C79      1.0000 0.38590  0.73830  0.68070  Biso   1.000  C
  H45      1.0000 0.44640  0.75130  0.65460  Biso   1.000  H
  C80      1.0000 0.19410  0.75770  0.70140  Biso   1.000  C
  H46      1.0000 0.12620  0.78420  0.68920  Biso   1.000  H
  C81      1.0000 0.10130  0.73960  0.73880  Biso   1.000  C
  C82      1.0000 0.20030  0.70010  0.75540  Biso   1.000  C
  H47      1.0000 0.13580  0.68620  0.78070  Biso   1.000  H
  C83      1.0000 0.38990  0.68100  0.73550  Biso   1.000  C
  H48      1.0000 0.45580  0.65420  0.74740  Biso   1.000  H
  C84      1.0000 0.68920  0.68070  0.67900  Biso   1.000  C
  N13      1.0000 0.39710  0.58430  0.66380  Biso   1.000  N
  C85      1.0000 0.76380  0.55000  0.69870  Biso   1.000  C
  C86      1.0000 0.86410  0.51170  0.68070  Biso   1.000  C
  H49      1.0000 0.80360  0.49870  0.65460  Biso   1.000  H
  C87      1.0000 0.05590  0.49230  0.70140  Biso   1.000  C
  H50      1.0000 0.12380  0.46580  0.68920  Biso   1.000  H
  C88      1.0000 0.14870  0.51040  0.73880  Biso   1.000  C
  C89      1.0000 0.04970  0.54990  0.75540  Biso   1.000  C
  H51      1.0000 0.11420  0.56380  0.78070  Biso   1.000  H
  C90      1.0000 0.86010  0.56900  0.73550  Biso   1.000  C
  H52      1.0000 0.79420  0.59580  0.74740  Biso   1.000  H
  C91      1.0000 0.56080  0.56930  0.67900  Biso   1.000  C
  N14      1.0000 0.39710  0.08430  0.16380  Biso   1.000  N
  C92      1.0000 0.76380  0.05000  0.19870  Biso   1.000  C
  C93      1.0000 0.86410  0.01170  0.18070  Biso   1.000  C
  H53      1.0000 0.80360  0.99870  0.15460  Biso   1.000  H
  C94      1.0000 0.05590  0.99230  0.20140  Biso   1.000  C
  H54      1.0000 0.12380  0.96580  0.18920  Biso   1.000  H
  C95      1.0000 0.14870  0.01040  0.23880  Biso   1.000  C
  C96      1.0000 0.04970  0.04990  0.25540  Biso   1.000  C
  H55      1.0000 0.11420  0.06380  0.28070  Biso   1.000  H
  C97      1.0000 0.86010  0.06900  0.23550  Biso   1.000  C
  H56      1.0000 0.79420  0.09580  0.24740  Biso   1.000  H
  C98      1.0000 0.56080  0.06930  0.17900  Biso   1.000  C
  N15      1.0000 0.89710  0.58430  0.16380  Biso   1.000  N
  C99      1.0000 0.26380  0.55000  0.19870  Biso   1.000  C
  C100     1.0000 0.36410  0.51170  0.18070  Biso   1.000  C
  H57      1.0000 0.30360  0.49870  0.15460  Biso   1.000  H
  C101     1.0000 0.55590  0.49230  0.20140  Biso   1.000  C
  H58      1.0000 0.62380  0.46580  0.18920  Biso   1.000  H
  C102     1.0000 0.64870  0.51040  0.23880  Biso   1.000  C
  C103     1.0000 0.54970  0.54990  0.25540  Biso   1.000  C
  H59      1.0000 0.61420  0.56380  0.28070  Biso   1.000  H
  C104     1.0000 0.36010  0.56900  0.23550  Biso   1.000  C
  H60      1.0000 0.29420  0.59580  0.24740  Biso   1.000  H
  C105     1.0000 0.06080  0.56930  0.17900  Biso   1.000  C
  N16      1.0000 0.89710  0.08430  0.66380  Biso   1.000  N
  C106     1.0000 0.26380  0.05000  0.69870  Biso   1.000  C
  C107     1.0000 0.36410  0.01170  0.68070  Biso   1.000  C
  H61      1.0000 0.30360  0.99870  0.65460  Biso   1.000  H
  C108     1.0000 0.55590  0.99230  0.70140  Biso   1.000  C
  H62      1.0000 0.62380  0.96580  0.68920  Biso   1.000  H
  C109     1.0000 0.64870  0.01040  0.73880  Biso   1.000  C
  C110     1.0000 0.54970  0.04990  0.75540  Biso   1.000  C
  H63      1.0000 0.61420  0.06380  0.78070  Biso   1.000  H
  C111     1.0000 0.36010  0.06900  0.73550  Biso   1.000  C
  H64      1.0000 0.29420  0.09580  0.74740  Biso   1.000  H
  C112     1.0000 0.06080  0.06930  0.67900  Biso   1.000  C
  N17      1.0000 0.60290  0.83430  0.91380  Biso   1.000  N
  C113     1.0000 0.23620  0.80000  0.94870  Biso   1.000  C
  C114     1.0000 0.13590  0.76170  0.93070  Biso   1.000  C
  H65      1.0000 0.19640  0.74870  0.90460  Biso   1.000  H
  C115     1.0000 0.94410  0.74230  0.95140  Biso   1.000  C
  H66      1.0000 0.87620  0.71580  0.93920  Biso   1.000  H
  C116     1.0000 0.85130  0.76040  0.98880  Biso   1.000  C
  C117     1.0000 0.95030  0.79990  0.00540  Biso   1.000  C
  H67      1.0000 0.88580  0.81380  0.03070  Biso   1.000  H
  C118     1.0000 0.13990  0.81900  0.98550  Biso   1.000  C
  H68      1.0000 0.20580  0.84580  0.99740  Biso   1.000  H
  C119     1.0000 0.43920  0.81930  0.92900  Biso   1.000  C
  N18      1.0000 0.60290  0.33430  0.41380  Biso   1.000  N
  C120     1.0000 0.23620  0.30000  0.44870  Biso   1.000  C
  C121     1.0000 0.13590  0.26170  0.43070  Biso   1.000  C
  H69      1.0000 0.19640  0.24870  0.40460  Biso   1.000  H
  C122     1.0000 0.94410  0.24230  0.45140  Biso   1.000  C
  H70      1.0000 0.87620  0.21580  0.43920  Biso   1.000  H
  C123     1.0000 0.85130  0.26040  0.48880  Biso   1.000  C
  C124     1.0000 0.95030  0.29990  0.50540  Biso   1.000  C
  H71      1.0000 0.88580  0.31380  0.53070  Biso   1.000  H
  C125     1.0000 0.13990  0.31900  0.48550  Biso   1.000  C
  H72      1.0000 0.20580  0.34580  0.49740  Biso   1.000  H
  C126     1.0000 0.43920  0.31930  0.42900  Biso   1.000  C
  N19      1.0000 0.10290  0.83430  0.41380  Biso   1.000  N
  C127     1.0000 0.73620  0.80000  0.44870  Biso   1.000  C
  C128     1.0000 0.63590  0.76170  0.43070  Biso   1.000  C
  H73      1.0000 0.69640  0.74870  0.40460  Biso   1.000  H
  C129     1.0000 0.44410  0.74230  0.45140  Biso   1.000  C
  H74      1.0000 0.37620  0.71580  0.43920  Biso   1.000  H
  C130     1.0000 0.35130  0.76040  0.48880  Biso   1.000  C
  C131     1.0000 0.45030  0.79990  0.50540  Biso   1.000  C
  H75      1.0000 0.38580  0.81380  0.53070  Biso   1.000  H
  C132     1.0000 0.63990  0.81900  0.48550  Biso   1.000  C
  H76      1.0000 0.70580  0.84580  0.49740  Biso   1.000  H
  C133     1.0000 0.93920  0.81930  0.42900  Biso   1.000  C
  N20      1.0000 0.10290  0.33430  0.91380  Biso   1.000  N
  C134     1.0000 0.73620  0.30000  0.94870  Biso   1.000  C
  C135     1.0000 0.63590  0.26170  0.93070  Biso   1.000  C
  H77      1.0000 0.69640  0.24870  0.90460  Biso   1.000  H
  C136     1.0000 0.44410  0.24230  0.95140  Biso   1.000  C
  H78      1.0000 0.37620  0.21580  0.93920  Biso   1.000  H
  C137     1.0000 0.35130  0.26040  0.98880  Biso   1.000  C
  C138     1.0000 0.45030  0.29990  0.00540  Biso   1.000  C
  H79      1.0000 0.38580  0.31380  0.03070  Biso   1.000  H
  C139     1.0000 0.63990  0.31900  0.98550  Biso   1.000  C
  H80      1.0000 0.70580  0.34580  0.99740  Biso   1.000  H
  C140     1.0000 0.93920  0.31930  0.92900  Biso   1.000  C
  N21      1.0000 0.64710  0.41570  0.91380  Biso   1.000  N
  C141     1.0000 0.01380  0.45000  0.94870  Biso   1.000  C
  C142     1.0000 0.11410  0.48830  0.93070  Biso   1.000  C
  H81      1.0000 0.05360  0.50130  0.90460  Biso   1.000  H
  C143     1.0000 0.30590  0.50770  0.95140  Biso   1.000  C
  H82      1.0000 0.37380  0.53420  0.93920  Biso   1.000  H
  C144     1.0000 0.39870  0.48960  0.98880  Biso   1.000  C
  C145     1.0000 0.29970  0.45010  0.00540  Biso   1.000  C
  H83      1.0000 0.36420  0.43620  0.03070  Biso   1.000  H
  C146     1.0000 0.11010  0.43100  0.98550  Biso   1.000  C
  H84      1.0000 0.04420  0.40420  0.99740  Biso   1.000  H
  C147     1.0000 0.81080  0.43070  0.92900  Biso   1.000  C
  N22      1.0000 0.64710  0.91570  0.41380  Biso   1.000  N
  C148     1.0000 0.01380  0.95000  0.44870  Biso   1.000  C
  C149     1.0000 0.11410  0.98830  0.43070  Biso   1.000  C
  H85      1.0000 0.05360  0.00130  0.40460  Biso   1.000  H
  C150     1.0000 0.30590  0.00770  0.45140  Biso   1.000  C
  H86      1.0000 0.37380  0.03420  0.43920  Biso   1.000  H
  C151     1.0000 0.39870  0.98960  0.48880  Biso   1.000  C
  C152     1.0000 0.29970  0.95010  0.50540  Biso   1.000  C
  H87      1.0000 0.36420  0.93620  0.53070  Biso   1.000  H
  C153     1.0000 0.11010  0.93100  0.48550  Biso   1.000  C
  H88      1.0000 0.04420  0.90420  0.49740  Biso   1.000  H
  C154     1.0000 0.81080  0.93070  0.42900  Biso   1.000  C
  N23      1.0000 0.14710  0.41570  0.41380  Biso   1.000  N
  C155     1.0000 0.51380  0.45000  0.44870  Biso   1.000  C
  C156     1.0000 0.61410  0.48830  0.43070  Biso   1.000  C
  H89      1.0000 0.55360  0.50130  0.40460  Biso   1.000  H
  C157     1.0000 0.80590  0.50770  0.45140  Biso   1.000  C
  H90      1.0000 0.87380  0.53420  0.43920  Biso   1.000  H
  C158     1.0000 0.89870  0.48960  0.48880  Biso   1.000  C
  C159     1.0000 0.79970  0.45010  0.50540  Biso   1.000  C
  H91      1.0000 0.86420  0.43620  0.53070  Biso   1.000  H
  C160     1.0000 0.61010  0.43100  0.48550  Biso   1.000  C
  H92      1.0000 0.54420  0.40420  0.49740  Biso   1.000  H
  C161     1.0000 0.31080  0.43070  0.42900  Biso   1.000  C
  N24      1.0000 0.14710  0.91570  0.91380  Biso   1.000  N
  C162     1.0000 0.51380  0.95000  0.94870  Biso   1.000  C
  C163     1.0000 0.61410  0.98830  0.93070  Biso   1.000  C
  H93      1.0000 0.55360  0.00130  0.90460  Biso   1.000  H
  C164     1.0000 0.80590  0.00770  0.95140  Biso   1.000  C
  H94      1.0000 0.87380  0.03420  0.93920  Biso   1.000  H
  C165     1.0000 0.89870  0.98960  0.98880  Biso   1.000  C
  C166     1.0000 0.79970  0.95010  0.00540  Biso   1.000  C
  H95      1.0000 0.86420  0.93620  0.03070  Biso   1.000  H
  C167     1.0000 0.61010  0.93100  0.98550  Biso   1.000  C
  H96      1.0000 0.54420  0.90420  0.99740  Biso   1.000  H
  C168     1.0000 0.31080  0.93070  0.92900  Biso   1.000  C
  N25      1.0000 0.64710  0.83430  0.33620  Biso   1.000  N
  C169     1.0000 0.01380  0.80000  0.30130  Biso   1.000  C
  C170     1.0000 0.11410  0.76170  0.31930  Biso   1.000  C
  H97      1.0000 0.05360  0.74870  0.34540  Biso   1.000  H
  C171     1.0000 0.30590  0.74230  0.29860  Biso   1.000  C
  H98      1.0000 0.37380  0.71580  0.31080  Biso   1.000  H
  C172     1.0000 0.39870  0.76040  0.26120  Biso   1.000  C
  C173     1.0000 0.29970  0.79990  0.24460  Biso   1.000  C
  H99      1.0000 0.36420  0.81380  0.21930  Biso   1.000  H
  C174     1.0000 0.11010  0.81900  0.26450  Biso   1.000  C
  H100     1.0000 0.04420  0.84580  0.25260  Biso   1.000  H
  C175     1.0000 0.81080  0.81930  0.32100  Biso   1.000  C
  N26      1.0000 0.64710  0.33430  0.83620  Biso   1.000  N
  C176     1.0000 0.01380  0.30000  0.80130  Biso   1.000  C
  C177     1.0000 0.11410  0.26170  0.81930  Biso   1.000  C
  H101     1.0000 0.05360  0.24870  0.84540  Biso   1.000  H
  C178     1.0000 0.30590  0.24230  0.79860  Biso   1.000  C
  H102     1.0000 0.37380  0.21580  0.81080  Biso   1.000  H
  C179     1.0000 0.39870  0.26040  0.76120  Biso   1.000  C
  C180     1.0000 0.29970  0.29990  0.74460  Biso   1.000  C
  H103     1.0000 0.36420  0.31380  0.71930  Biso   1.000  H
  C181     1.0000 0.11010  0.31900  0.76450  Biso   1.000  C
  H104     1.0000 0.04420  0.34580  0.75260  Biso   1.000  H
  C182     1.0000 0.81080  0.31930  0.82100  Biso   1.000  C
  N27      1.0000 0.14710  0.83430  0.83620  Biso   1.000  N
  C183     1.0000 0.51380  0.80000  0.80130  Biso   1.000  C
  C184     1.0000 0.61410  0.76170  0.81930  Biso   1.000  C
  H105     1.0000 0.55360  0.74870  0.84540  Biso   1.000  H
  C185     1.0000 0.80590  0.74230  0.79860  Biso   1.000  C
  H106     1.0000 0.87380  0.71580  0.81080  Biso   1.000  H
  C186     1.0000 0.89870  0.76040  0.76120  Biso   1.000  C
  C187     1.0000 0.79970  0.79990  0.74460  Biso   1.000  C
  H107     1.0000 0.86420  0.81380  0.71930  Biso   1.000  H
  C188     1.0000 0.61010  0.81900  0.76450  Biso   1.000  C
  H108     1.0000 0.54420  0.84580  0.75260  Biso   1.000  H
  C189     1.0000 0.31080  0.81930  0.82100  Biso   1.000  C
  N28      1.0000 0.14710  0.33430  0.33620  Biso   1.000  N
  C190     1.0000 0.51380  0.30000  0.30130  Biso   1.000  C
  C191     1.0000 0.61410  0.26170  0.31930  Biso   1.000  C
  H109     1.0000 0.55360  0.24870  0.34540  Biso   1.000  H
  C192     1.0000 0.80590  0.24230  0.29860  Biso   1.000  C
  H110     1.0000 0.87380  0.21580  0.31080  Biso   1.000  H
  C193     1.0000 0.89870  0.26040  0.26120  Biso   1.000  C
  C194     1.0000 0.79970  0.29990  0.24460  Biso   1.000  C
  H111     1.0000 0.86420  0.31380  0.21930  Biso   1.000  H
  C195     1.0000 0.61010  0.31900  0.26450  Biso   1.000  C
  H112     1.0000 0.54420  0.34580  0.25260  Biso   1.000  H
  C196     1.0000 0.31080  0.31930  0.32100  Biso   1.000  C
  N29      1.0000 0.60290  0.41570  0.33620  Biso   1.000  N
  C197     1.0000 0.23620  0.45000  0.30130  Biso   1.000  C
  C198     1.0000 0.13590  0.48830  0.31930  Biso   1.000  C
  H113     1.0000 0.19640  0.50130  0.34540  Biso   1.000  H
  C199     1.0000 0.94410  0.50770  0.29860  Biso   1.000  C
  H114     1.0000 0.87620  0.53420  0.31080  Biso   1.000  H
  C200     1.0000 0.85130  0.48960  0.26120  Biso   1.000  C
  C201     1.0000 0.95030  0.45010  0.24460  Biso   1.000  C
  H115     1.0000 0.88580  0.43620  0.21930  Biso   1.000  H
  C202     1.0000 0.13990  0.43100  0.26450  Biso   1.000  C
  H116     1.0000 0.20580  0.40420  0.25260  Biso   1.000  H
  C203     1.0000 0.43920  0.43070  0.32100  Biso   1.000  C
  N30      1.0000 0.60290  0.91570  0.83620  Biso   1.000  N
  C204     1.0000 0.23620  0.95000  0.80130  Biso   1.000  C
  C205     1.0000 0.13590  0.98830  0.81930  Biso   1.000  C
  H117     1.0000 0.19640  0.00130  0.84540  Biso   1.000  H
  C206     1.0000 0.94410  0.00770  0.79860  Biso   1.000  C
  H118     1.0000 0.87620  0.03420  0.81080  Biso   1.000  H
  C207     1.0000 0.85130  0.98960  0.76120  Biso   1.000  C
  C208     1.0000 0.95030  0.95010  0.74460  Biso   1.000  C
  H119     1.0000 0.88580  0.93620  0.71930  Biso   1.000  H
  C209     1.0000 0.13990  0.93100  0.76450  Biso   1.000  C
  H120     1.0000 0.20580  0.90420  0.75260  Biso   1.000  H
  C210     1.0000 0.43920  0.93070  0.82100  Biso   1.000  C
  N31      1.0000 0.10290  0.41570  0.83620  Biso   1.000  N
  C211     1.0000 0.73620  0.45000  0.80130  Biso   1.000  C
  C212     1.0000 0.63590  0.48830  0.81930  Biso   1.000  C
  H121     1.0000 0.69640  0.50130  0.84540  Biso   1.000  H
  C213     1.0000 0.44410  0.50770  0.79860  Biso   1.000  C
  H122     1.0000 0.37620  0.53420  0.81080  Biso   1.000  H
  C214     1.0000 0.35130  0.48960  0.76120  Biso   1.000  C
  C215     1.0000 0.45030  0.45010  0.74460  Biso   1.000  C
  H123     1.0000 0.38580  0.43620  0.71930  Biso   1.000  H
  C216     1.0000 0.63990  0.43100  0.76450  Biso   1.000  C
  H124     1.0000 0.70580  0.40420  0.75260  Biso   1.000  H
  C217     1.0000 0.93920  0.43070  0.82100  Biso   1.000  C
  N32      1.0000 0.10290  0.91570  0.33620  Biso   1.000  N
  C218     1.0000 0.73620  0.95000  0.30130  Biso   1.000  C
  C219     1.0000 0.63590  0.98830  0.31930  Biso   1.000  C
  H125     1.0000 0.69640  0.00130  0.34540  Biso   1.000  H
  C220     1.0000 0.44410  0.00770  0.29860  Biso   1.000  C
  H126     1.0000 0.37620  0.03420  0.31080  Biso   1.000  H
  C221     1.0000 0.35130  0.98960  0.26120  Biso   1.000  C
  C222     1.0000 0.45030  0.95010  0.24460  Biso   1.000  C
  H127     1.0000 0.38580  0.93620  0.21930  Biso   1.000  H
  C223     1.0000 0.63990  0.93100  0.26450  Biso   1.000  C
  H128     1.0000 0.70580  0.90420  0.25260  Biso   1.000  H
  C224     1.0000 0.93920  0.93070  0.32100  Biso   1.000  C
  Ag1      1.0000 0.12500  0.12500  0.12500  Biso   1.000  Ag
  Ag2      1.0000 0.12500  0.62500  0.62500  Biso   1.000  Ag
  Ag3      1.0000 0.62500  0.12500  0.62500  Biso   1.000  Ag
  Ag4      1.0000 0.62500  0.62500  0.12500  Biso   1.000  Ag
  Ag5      1.0000 0.87500  0.87500  0.87500  Biso   1.000  Ag
  Ag6      1.0000 0.87500  0.37500  0.37500  Biso   1.000  Ag
  Ag7      1.0000 0.37500  0.87500  0.37500  Biso   1.000  Ag
  Ag8      1.0000 0.37500  0.37500  0.87500  Biso   1.000  Ag
