data_image0
_cell_length_a       16.1811
_cell_length_b       16.1811
_cell_length_c       30.4774
_cell_angle_alpha    90
_cell_angle_beta     90
_cell_angle_gamma    120

_symmetry_space_group_name_H-M    "P 1"
_symmetry_int_tables_number       1

loop_
  _symmetry_equiv_pos_as_xyz
  'x, y, z'

loop_
  _atom_site_label
  _atom_site_occupancy
  _atom_site_fract_x
  _atom_site_fract_y
  _atom_site_fract_z
  _atom_site_thermal_displace_type
  _atom_site_B_iso_or_equiv
  _atom_site_type_symbol
  O1       1.0000 0.64310  0.12350  0.44678  Biso   1.000  O
  O2       1.0000 0.97230  0.69930  0.23985  Biso   1.000  O
  O3       1.0000 0.49840  0.10200  0.45773  Biso   1.000  O
  C1       1.0000 0.62140  0.25710  0.44027  Biso   1.000  C
  C2       1.0000 0.68600  0.44990  0.42262  Biso   1.000  C
  N1       1.0000 0.71980  0.54780  0.41358  Biso   1.000  N
  O4       1.0000 0.67470  0.78980  0.56772  Biso   1.000  O
  O5       1.0000 0.68280  0.87460  0.50910  Biso   1.000  O
  C3       1.0000 0.84100  0.59790  0.30593  Biso   1.000  C
  H1       1.0000 0.83140  0.56910  0.27860  Biso   1.000  H
  C4       1.0000 0.56280  0.29630  0.44675  Biso   1.000  C
  H2       1.0000 0.50120  0.25770  0.45730  Biso   1.000  H
  C5       1.0000 0.68620  0.58600  0.48679  Biso   1.000  C
  H3       1.0000 0.68530  0.53230  0.49830  Biso   1.000  H
  C6       1.0000 0.59390  0.39090  0.43787  Biso   1.000  C
  H4       1.0000 0.55310  0.41510  0.44210  Biso   1.000  H
  C7       1.0000 0.78840  0.59470  0.37999  Biso   1.000  C
  C8       1.0000 0.71410  0.31710  0.42548  Biso   1.000  C
  H5       1.0000 0.75480  0.29270  0.42120  Biso   1.000  H
  C9       1.0000 0.69830  0.60340  0.44191  Biso   1.000  C
  C10      1.0000 0.93620  0.72840  0.35449  Biso   1.000  C
  H6       1.0000 0.99040  0.78690  0.36000  Biso   1.000  H
  C11      1.0000 0.77530  0.55250  0.33852  Biso   1.000  C
  H7       1.0000 0.72180  0.49330  0.33310  Biso   1.000  H
  C12      1.0000 0.69270  0.68070  0.42487  Biso   1.000  C
  H8       1.0000 0.69520  0.69020  0.39470  Biso   1.000  H
  C13      1.0000 0.67540  0.64770  0.51434  Biso   1.000  C
  H9       1.0000 0.66740  0.63540  0.54430  Biso   1.000  H
  C14      1.0000 0.58580  0.15440  0.44913  Biso   1.000  C
  C15      1.0000 0.86960  0.68280  0.38739  Biso   1.000  C
  H10      1.0000 0.87930  0.71150  0.41480  Biso   1.000  H
  C16      1.0000 0.99230  0.73110  0.27646  Biso   1.000  C
  O6       1.0000 0.07590  0.79960  0.28713  Biso   1.000  O
  H11      1.0000 0.14160  0.81370  0.28930  Biso   1.000  H
  C17      1.0000 0.67720  0.80310  0.52661  Biso   1.000  C
  C18      1.0000 0.74620  0.41190  0.41714  Biso   1.000  C
  H12      1.0000 0.80870  0.45120  0.40780  Biso   1.000  H
  C19      1.0000 0.92210  0.68690  0.31313  Biso   1.000  C
  C20      1.0000 0.68350  0.74260  0.45249  Biso   1.000  C
  H13      1.0000 0.68190  0.79490  0.44080  Biso   1.000  H
  C21      1.0000 0.67650  0.72860  0.49756  Biso   1.000  C
  O7       1.0000 0.87650  0.51960  0.11345  Biso   1.000  O
  O8       1.0000 0.30070  0.27300  0.90652  Biso   1.000  O
  O9       1.0000 0.89800  0.39640  0.12440  Biso   1.000  O
  C22      1.0000 0.74290  0.36430  0.10694  Biso   1.000  C
  C23      1.0000 0.55010  0.23610  0.08929  Biso   1.000  C
  N2       1.0000 0.45220  0.17200  0.08025  Biso   1.000  N
  O10      1.0000 0.21020  0.88490  0.23439  Biso   1.000  O
  O11      1.0000 0.12540  0.80820  0.17577  Biso   1.000  O
  C24      1.0000 0.40210  0.24310  0.97260  Biso   1.000  C
  H14      1.0000 0.43090  0.26230  0.94527  Biso   1.000  H
  C25      1.0000 0.70370  0.26650  0.11342  Biso   1.000  C
  H15      1.0000 0.74230  0.24350  0.12397  Biso   1.000  H
  C26      1.0000 0.41400  0.10020  0.15346  Biso   1.000  C
  H16      1.0000 0.46770  0.15300  0.16497  Biso   1.000  H
  C27      1.0000 0.60910  0.20300  0.10454  Biso   1.000  C
  H17      1.0000 0.58490  0.13800  0.10877  Biso   1.000  H
  C28      1.0000 0.40530  0.19370  0.04666  Biso   1.000  C
  C29      1.0000 0.68290  0.39700  0.09215  Biso   1.000  C
  H18      1.0000 0.70730  0.46210  0.08787  Biso   1.000  H
  C30      1.0000 0.39660  0.09490  0.10858  Biso   1.000  C
  C31      1.0000 0.27160  0.20780  0.02116  Biso   1.000  C
  H19      1.0000 0.21310  0.20350  0.02667  Biso   1.000  H
  C32      1.0000 0.44750  0.22280  0.00519  Biso   1.000  C
  H20      1.0000 0.50670  0.22850  0.99977  Biso   1.000  H
  C33      1.0000 0.31930  0.01200  0.09154  Biso   1.000  C
  H21      1.0000 0.30980  0.00500  0.06137  Biso   1.000  H
  C34      1.0000 0.35230  0.02770  0.18101  Biso   1.000  C
  H22      1.0000 0.36460  0.03200  0.21097  Biso   1.000  H
  C35      1.0000 0.84560  0.43140  0.11580  Biso   1.000  C
  C36      1.0000 0.31720  0.18680  0.05406  Biso   1.000  C
  H23      1.0000 0.28850  0.16780  0.08147  Biso   1.000  H
  C37      1.0000 0.26890  0.26120  0.94313  Biso   1.000  C
  O12      1.0000 0.20040  0.27630  0.95380  Biso   1.000  O
  H24      1.0000 0.18630  0.32790  0.95597  Biso   1.000  H
  C38      1.0000 0.19690  0.87410  0.19328  Biso   1.000  C
  C39      1.0000 0.58810  0.33430  0.08381  Biso   1.000  C
  H25      1.0000 0.54880  0.35750  0.07447  Biso   1.000  H
  C40      1.0000 0.31310  0.23520  0.97980  Biso   1.000  C
  C41      1.0000 0.25740  0.94090  0.11916  Biso   1.000  C
  H26      1.0000 0.20510  0.88700  0.10747  Biso   1.000  H
  C42      1.0000 0.27140  0.94790  0.16423  Biso   1.000  C
  O13      1.0000 0.48040  0.35690  0.78011  Biso   1.000  O
  O14      1.0000 0.72700  0.02770  0.57318  Biso   1.000  O
  O15      1.0000 0.60360  0.50160  0.79106  Biso   1.000  O
  C43      1.0000 0.63570  0.37860  0.77360  Biso   1.000  C
  C44      1.0000 0.76390  0.31400  0.75595  Biso   1.000  C
  N3       1.0000 0.82800  0.28020  0.74691  Biso   1.000  N
  O16      1.0000 0.11510  0.32530  0.90105  Biso   1.000  O
  O17      1.0000 0.19180  0.31720  0.84243  Biso   1.000  O
  C45      1.0000 0.75690  0.15900  0.63926  Biso   1.000  C
  H27      1.0000 0.73770  0.16860  0.61193  Biso   1.000  H
  C46      1.0000 0.73350  0.43720  0.78008  Biso   1.000  C
  H28      1.0000 0.75650  0.49880  0.79063  Biso   1.000  H
  C47      1.0000 0.89980  0.31380  0.82012  Biso   1.000  C
  H29      1.0000 0.84700  0.31470  0.83163  Biso   1.000  H
  C48      1.0000 0.79700  0.40610  0.77120  Biso   1.000  C
  H30      1.0000 0.86200  0.44690  0.77543  Biso   1.000  H
  C49      1.0000 0.80630  0.21160  0.71332  Biso   1.000  C
  C50      1.0000 0.60300  0.28590  0.75881  Biso   1.000  C
  H31      1.0000 0.53790  0.24520  0.75453  Biso   1.000  H
  C51      1.0000 0.90510  0.30170  0.77524  Biso   1.000  C
  C52      1.0000 0.79220  0.06380  0.68782  Biso   1.000  C
  H32      1.0000 0.79650  0.00960  0.69333  Biso   1.000  H
  C53      1.0000 0.77720  0.22470  0.67185  Biso   1.000  C
  H33      1.0000 0.77150  0.27820  0.66643  Biso   1.000  H
  C54      1.0000 0.98800  0.30730  0.75820  Biso   1.000  C
  H34      1.0000 0.99500  0.30480  0.72803  Biso   1.000  H
  C55      1.0000 0.97230  0.32460  0.84767  Biso   1.000  C
  H35      1.0000 0.96800  0.33260  0.87763  Biso   1.000  H
  C56      1.0000 0.56860  0.41420  0.78246  Biso   1.000  C
  C57      1.0000 0.81320  0.13040  0.72072  Biso   1.000  C
  H36      1.0000 0.83220  0.12070  0.74813  Biso   1.000  H
  C58      1.0000 0.73880  0.00770  0.60979  Biso   1.000  C
  O18      1.0000 0.72370  0.92410  0.62046  Biso   1.000  O
  H37      1.0000 0.67210  0.85840  0.62263  Biso   1.000  H
  C59      1.0000 0.12590  0.32280  0.85994  Biso   1.000  C
  C60      1.0000 0.66570  0.25380  0.75047  Biso   1.000  C
  H38      1.0000 0.64250  0.19130  0.74113  Biso   1.000  H
  C61      1.0000 0.76480  0.07790  0.64646  Biso   1.000  C
  C62      1.0000 0.05910  0.31650  0.78582  Biso   1.000  C
  H39      1.0000 0.11300  0.31810  0.77413  Biso   1.000  H
  C63      1.0000 0.05210  0.32350  0.83089  Biso   1.000  C
  O19      1.0000 0.35690  0.87650  0.44678  Biso   1.000  O
  O20      1.0000 0.02770  0.30070  0.23985  Biso   1.000  O
  O21      1.0000 0.50160  0.89800  0.45773  Biso   1.000  O
  C64      1.0000 0.37860  0.74290  0.44027  Biso   1.000  C
  C65      1.0000 0.31400  0.55010  0.42262  Biso   1.000  C
  N4       1.0000 0.28020  0.45220  0.41358  Biso   1.000  N
  O22      1.0000 0.32530  0.21020  0.56772  Biso   1.000  O
  O23      1.0000 0.31720  0.12540  0.50910  Biso   1.000  O
  C66      1.0000 0.15900  0.40210  0.30593  Biso   1.000  C
  H40      1.0000 0.16860  0.43090  0.27860  Biso   1.000  H
  C67      1.0000 0.43720  0.70370  0.44675  Biso   1.000  C
  H41      1.0000 0.49880  0.74230  0.45730  Biso   1.000  H
  C68      1.0000 0.31380  0.41400  0.48679  Biso   1.000  C
  H42      1.0000 0.31470  0.46770  0.49830  Biso   1.000  H
  C69      1.0000 0.40610  0.60910  0.43787  Biso   1.000  C
  H43      1.0000 0.44690  0.58490  0.44210  Biso   1.000  H
  C70      1.0000 0.21160  0.40530  0.37999  Biso   1.000  C
  C71      1.0000 0.28590  0.68290  0.42548  Biso   1.000  C
  H44      1.0000 0.24520  0.70730  0.42120  Biso   1.000  H
  C72      1.0000 0.30170  0.39660  0.44191  Biso   1.000  C
  C73      1.0000 0.06380  0.27160  0.35449  Biso   1.000  C
  H45      1.0000 0.00960  0.21310  0.36000  Biso   1.000  H
  C74      1.0000 0.22470  0.44750  0.33852  Biso   1.000  C
  H46      1.0000 0.27820  0.50670  0.33310  Biso   1.000  H
  C75      1.0000 0.30730  0.31930  0.42487  Biso   1.000  C
  H47      1.0000 0.30480  0.30980  0.39470  Biso   1.000  H
  C76      1.0000 0.32460  0.35230  0.51434  Biso   1.000  C
  H48      1.0000 0.33260  0.36460  0.54430  Biso   1.000  H
  C77      1.0000 0.41420  0.84560  0.44913  Biso   1.000  C
  C78      1.0000 0.13040  0.31720  0.38739  Biso   1.000  C
  H49      1.0000 0.12070  0.28850  0.41480  Biso   1.000  H
  C79      1.0000 0.00770  0.26890  0.27646  Biso   1.000  C
  O24      1.0000 0.92410  0.20040  0.28713  Biso   1.000  O
  H50      1.0000 0.85840  0.18630  0.28930  Biso   1.000  H
  C80      1.0000 0.32280  0.19690  0.52661  Biso   1.000  C
  C81      1.0000 0.25380  0.58810  0.41714  Biso   1.000  C
  H51      1.0000 0.19130  0.54880  0.40780  Biso   1.000  H
  C82      1.0000 0.07790  0.31310  0.31313  Biso   1.000  C
  C83      1.0000 0.31650  0.25740  0.45249  Biso   1.000  C
  H52      1.0000 0.31810  0.20510  0.44080  Biso   1.000  H
  C84      1.0000 0.32350  0.27140  0.49756  Biso   1.000  C
  O25      1.0000 0.12350  0.48040  0.11345  Biso   1.000  O
  O26      1.0000 0.69930  0.72700  0.90652  Biso   1.000  O
  O27      1.0000 0.10200  0.60360  0.12440  Biso   1.000  O
  C85      1.0000 0.25710  0.63570  0.10694  Biso   1.000  C
  C86      1.0000 0.44990  0.76390  0.08929  Biso   1.000  C
  N5       1.0000 0.54780  0.82800  0.08025  Biso   1.000  N
  O28      1.0000 0.78980  0.11510  0.23439  Biso   1.000  O
  O29      1.0000 0.87460  0.19180  0.17577  Biso   1.000  O
  C87      1.0000 0.59790  0.75690  0.97260  Biso   1.000  C
  H53      1.0000 0.56910  0.73770  0.94527  Biso   1.000  H
  C88      1.0000 0.29630  0.73350  0.11342  Biso   1.000  C
  H54      1.0000 0.25770  0.75650  0.12397  Biso   1.000  H
  C89      1.0000 0.58600  0.89980  0.15346  Biso   1.000  C
  H55      1.0000 0.53230  0.84700  0.16497  Biso   1.000  H
  C90      1.0000 0.39090  0.79700  0.10454  Biso   1.000  C
  H56      1.0000 0.41510  0.86200  0.10877  Biso   1.000  H
  C91      1.0000 0.59470  0.80630  0.04666  Biso   1.000  C
  C92      1.0000 0.31710  0.60300  0.09215  Biso   1.000  C
  H57      1.0000 0.29270  0.53790  0.08787  Biso   1.000  H
  C93      1.0000 0.60340  0.90510  0.10858  Biso   1.000  C
  C94      1.0000 0.72840  0.79220  0.02116  Biso   1.000  C
  H58      1.0000 0.78690  0.79650  0.02667  Biso   1.000  H
  C95      1.0000 0.55250  0.77720  0.00519  Biso   1.000  C
  H59      1.0000 0.49330  0.77150  0.99977  Biso   1.000  H
  C96      1.0000 0.68070  0.98800  0.09154  Biso   1.000  C
  H60      1.0000 0.69020  0.99500  0.06137  Biso   1.000  H
  C97      1.0000 0.64770  0.97230  0.18101  Biso   1.000  C
  H61      1.0000 0.63540  0.96800  0.21097  Biso   1.000  H
  C98      1.0000 0.15440  0.56860  0.11580  Biso   1.000  C
  C99      1.0000 0.68280  0.81320  0.05406  Biso   1.000  C
  H62      1.0000 0.71150  0.83220  0.08147  Biso   1.000  H
  C100     1.0000 0.73110  0.73880  0.94313  Biso   1.000  C
  O30      1.0000 0.79960  0.72370  0.95380  Biso   1.000  O
  H63      1.0000 0.81370  0.67210  0.95597  Biso   1.000  H
  C101     1.0000 0.80310  0.12590  0.19328  Biso   1.000  C
  C102     1.0000 0.41190  0.66570  0.08381  Biso   1.000  C
  H64      1.0000 0.45120  0.64250  0.07447  Biso   1.000  H
  C103     1.0000 0.68690  0.76480  0.97980  Biso   1.000  C
  C104     1.0000 0.74260  0.05910  0.11916  Biso   1.000  C
  H65      1.0000 0.79490  0.11300  0.10747  Biso   1.000  H
  C105     1.0000 0.72860  0.05210  0.16423  Biso   1.000  C
  O31      1.0000 0.51960  0.64310  0.78011  Biso   1.000  O
  O32      1.0000 0.27300  0.97230  0.57318  Biso   1.000  O
  O33      1.0000 0.39640  0.49840  0.79106  Biso   1.000  O
  C106     1.0000 0.36430  0.62140  0.77360  Biso   1.000  C
  C107     1.0000 0.23610  0.68600  0.75595  Biso   1.000  C
  N6       1.0000 0.17200  0.71980  0.74691  Biso   1.000  N
  O34      1.0000 0.88490  0.67470  0.90105  Biso   1.000  O
  O35      1.0000 0.80820  0.68280  0.84243  Biso   1.000  O
  C108     1.0000 0.24310  0.84100  0.63926  Biso   1.000  C
  H66      1.0000 0.26230  0.83140  0.61193  Biso   1.000  H
  C109     1.0000 0.26650  0.56280  0.78008  Biso   1.000  C
  H67      1.0000 0.24350  0.50120  0.79063  Biso   1.000  H
  C110     1.0000 0.10020  0.68620  0.82012  Biso   1.000  C
  H68      1.0000 0.15300  0.68530  0.83163  Biso   1.000  H
  C111     1.0000 0.20300  0.59390  0.77120  Biso   1.000  C
  H69      1.0000 0.13800  0.55310  0.77543  Biso   1.000  H
  C112     1.0000 0.19370  0.78840  0.71332  Biso   1.000  C
  C113     1.0000 0.39700  0.71410  0.75881  Biso   1.000  C
  H70      1.0000 0.46210  0.75480  0.75453  Biso   1.000  H
  C114     1.0000 0.09490  0.69830  0.77524  Biso   1.000  C
  C115     1.0000 0.20780  0.93620  0.68782  Biso   1.000  C
  H71      1.0000 0.20350  0.99040  0.69333  Biso   1.000  H
  C116     1.0000 0.22280  0.77530  0.67185  Biso   1.000  C
  H72      1.0000 0.22850  0.72180  0.66643  Biso   1.000  H
  C117     1.0000 0.01200  0.69270  0.75820  Biso   1.000  C
  H73      1.0000 0.00500  0.69520  0.72803  Biso   1.000  H
  C118     1.0000 0.02770  0.67540  0.84767  Biso   1.000  C
  H74      1.0000 0.03200  0.66740  0.87763  Biso   1.000  H
  C119     1.0000 0.43140  0.58580  0.78246  Biso   1.000  C
  C120     1.0000 0.18680  0.86960  0.72072  Biso   1.000  C
  H75      1.0000 0.16780  0.87930  0.74813  Biso   1.000  H
  C121     1.0000 0.26120  0.99230  0.60979  Biso   1.000  C
  O36      1.0000 0.27630  0.07590  0.62046  Biso   1.000  O
  H76      1.0000 0.32790  0.14160  0.62263  Biso   1.000  H
  C122     1.0000 0.87410  0.67720  0.85994  Biso   1.000  C
  C123     1.0000 0.33430  0.74620  0.75047  Biso   1.000  C
  H77      1.0000 0.35750  0.80870  0.74113  Biso   1.000  H
  C124     1.0000 0.23520  0.92210  0.64646  Biso   1.000  C
  C125     1.0000 0.94090  0.68350  0.78582  Biso   1.000  C
  H78      1.0000 0.88700  0.68190  0.77413  Biso   1.000  H
  C126     1.0000 0.94790  0.67650  0.83089  Biso   1.000  C
  O37      1.0000 0.12350  0.64310  0.21989  Biso   1.000  O
  O38      1.0000 0.69930  0.97230  0.42682  Biso   1.000  O
  O39      1.0000 0.10200  0.49840  0.20894  Biso   1.000  O
  C127     1.0000 0.25710  0.62140  0.22640  Biso   1.000  C
  C128     1.0000 0.44990  0.68600  0.24405  Biso   1.000  C
  N7       1.0000 0.54780  0.71980  0.25309  Biso   1.000  N
  O40      1.0000 0.78980  0.67470  0.09895  Biso   1.000  O
  O41      1.0000 0.87460  0.68280  0.15757  Biso   1.000  O
  C129     1.0000 0.59790  0.84100  0.36074  Biso   1.000  C
  H79      1.0000 0.56910  0.83140  0.38807  Biso   1.000  H
  C130     1.0000 0.29630  0.56280  0.21992  Biso   1.000  C
  H80      1.0000 0.25770  0.50120  0.20937  Biso   1.000  H
  C131     1.0000 0.58600  0.68620  0.17988  Biso   1.000  C
  H81      1.0000 0.53230  0.68530  0.16837  Biso   1.000  H
  C132     1.0000 0.39090  0.59390  0.22880  Biso   1.000  C
  H82      1.0000 0.41510  0.55310  0.22457  Biso   1.000  H
  C133     1.0000 0.59470  0.78840  0.28668  Biso   1.000  C
  C134     1.0000 0.31710  0.71410  0.24119  Biso   1.000  C
  H83      1.0000 0.29270  0.75480  0.24547  Biso   1.000  H
  C135     1.0000 0.60340  0.69830  0.22476  Biso   1.000  C
  C136     1.0000 0.72840  0.93620  0.31218  Biso   1.000  C
  H84      1.0000 0.78690  0.99040  0.30667  Biso   1.000  H
  C137     1.0000 0.55250  0.77530  0.32815  Biso   1.000  C
  H85      1.0000 0.49330  0.72180  0.33357  Biso   1.000  H
  C138     1.0000 0.68070  0.69270  0.24180  Biso   1.000  C
  H86      1.0000 0.69020  0.69520  0.27197  Biso   1.000  H
  C139     1.0000 0.64770  0.67540  0.15233  Biso   1.000  C
  H87      1.0000 0.63540  0.66740  0.12237  Biso   1.000  H
  C140     1.0000 0.15440  0.58580  0.21754  Biso   1.000  C
  C141     1.0000 0.68280  0.86960  0.27928  Biso   1.000  C
  H88      1.0000 0.71150  0.87930  0.25187  Biso   1.000  H
  C142     1.0000 0.73110  0.99230  0.39021  Biso   1.000  C
  O42      1.0000 0.79960  0.07590  0.37954  Biso   1.000  O
  H89      1.0000 0.81370  0.14160  0.37737  Biso   1.000  H
  C143     1.0000 0.80310  0.67720  0.14006  Biso   1.000  C
  C144     1.0000 0.41190  0.74620  0.24953  Biso   1.000  C
  H90      1.0000 0.45120  0.80870  0.25887  Biso   1.000  H
  C145     1.0000 0.68690  0.92210  0.35354  Biso   1.000  C
  C146     1.0000 0.74260  0.68350  0.21418  Biso   1.000  C
  H91      1.0000 0.79490  0.68190  0.22587  Biso   1.000  H
  C147     1.0000 0.72860  0.67650  0.16911  Biso   1.000  C
  O43      1.0000 0.51960  0.87650  0.55322  Biso   1.000  O
  O44      1.0000 0.27300  0.30070  0.76015  Biso   1.000  O
  O45      1.0000 0.39640  0.89800  0.54227  Biso   1.000  O
  C148     1.0000 0.36430  0.74290  0.55973  Biso   1.000  C
  C149     1.0000 0.23610  0.55010  0.57738  Biso   1.000  C
  N8       1.0000 0.17200  0.45220  0.58642  Biso   1.000  N
  O46      1.0000 0.88490  0.21020  0.43228  Biso   1.000  O
  O47      1.0000 0.80820  0.12540  0.49090  Biso   1.000  O
  C150     1.0000 0.24310  0.40210  0.69407  Biso   1.000  C
  H92      1.0000 0.26230  0.43090  0.72140  Biso   1.000  H
  C151     1.0000 0.26650  0.70370  0.55325  Biso   1.000  C
  H93      1.0000 0.24350  0.74230  0.54270  Biso   1.000  H
  C152     1.0000 0.10020  0.41400  0.51321  Biso   1.000  C
  H94      1.0000 0.15300  0.46770  0.50170  Biso   1.000  H
  C153     1.0000 0.20300  0.60910  0.56213  Biso   1.000  C
  H95      1.0000 0.13800  0.58490  0.55790  Biso   1.000  H
  C154     1.0000 0.19370  0.40530  0.62001  Biso   1.000  C
  C155     1.0000 0.39700  0.68290  0.57452  Biso   1.000  C
  H96      1.0000 0.46210  0.70730  0.57880  Biso   1.000  H
  C156     1.0000 0.09490  0.39660  0.55809  Biso   1.000  C
  C157     1.0000 0.20780  0.27160  0.64551  Biso   1.000  C
  H97      1.0000 0.20350  0.21310  0.64000  Biso   1.000  H
  C158     1.0000 0.22280  0.44750  0.66148  Biso   1.000  C
  H98      1.0000 0.22850  0.50670  0.66690  Biso   1.000  H
  C159     1.0000 0.01200  0.31930  0.57513  Biso   1.000  C
  H99      1.0000 0.00500  0.30980  0.60530  Biso   1.000  H
  C160     1.0000 0.02770  0.35230  0.48566  Biso   1.000  C
  H100     1.0000 0.03200  0.36460  0.45570  Biso   1.000  H
  C161     1.0000 0.43140  0.84560  0.55087  Biso   1.000  C
  C162     1.0000 0.18680  0.31720  0.61261  Biso   1.000  C
  H101     1.0000 0.16780  0.28850  0.58520  Biso   1.000  H
  C163     1.0000 0.26120  0.26890  0.72354  Biso   1.000  C
  O48      1.0000 0.27630  0.20040  0.71287  Biso   1.000  O
  H102     1.0000 0.32790  0.18630  0.71070  Biso   1.000  H
  C164     1.0000 0.87410  0.19690  0.47339  Biso   1.000  C
  C165     1.0000 0.33430  0.58810  0.58286  Biso   1.000  C
  H103     1.0000 0.35750  0.54880  0.59220  Biso   1.000  H
  C166     1.0000 0.23520  0.31310  0.68687  Biso   1.000  C
  C167     1.0000 0.94090  0.25740  0.54751  Biso   1.000  C
  H104     1.0000 0.88700  0.20510  0.55920  Biso   1.000  H
  C168     1.0000 0.94790  0.27140  0.50244  Biso   1.000  C
  O49      1.0000 0.35690  0.48040  0.88655  Biso   1.000  O
  O50      1.0000 0.02770  0.72700  0.09348  Biso   1.000  O
  O51      1.0000 0.50160  0.60360  0.87560  Biso   1.000  O
  C169     1.0000 0.37860  0.63570  0.89306  Biso   1.000  C
  C170     1.0000 0.31400  0.76390  0.91071  Biso   1.000  C
  N9       1.0000 0.28020  0.82800  0.91975  Biso   1.000  N
  O52      1.0000 0.32530  0.11510  0.76561  Biso   1.000  O
  O53      1.0000 0.31720  0.19180  0.82423  Biso   1.000  O
  C171     1.0000 0.15900  0.75690  0.02740  Biso   1.000  C
  H105     1.0000 0.16860  0.73770  0.05473  Biso   1.000  H
  C172     1.0000 0.43720  0.73350  0.88658  Biso   1.000  C
  H106     1.0000 0.49880  0.75650  0.87603  Biso   1.000  H
  C173     1.0000 0.31380  0.89980  0.84654  Biso   1.000  C
  H107     1.0000 0.31470  0.84700  0.83503  Biso   1.000  H
  C174     1.0000 0.40610  0.79700  0.89546  Biso   1.000  C
  H108     1.0000 0.44690  0.86200  0.89123  Biso   1.000  H
  C175     1.0000 0.21160  0.80630  0.95334  Biso   1.000  C
  C176     1.0000 0.28590  0.60300  0.90785  Biso   1.000  C
  H109     1.0000 0.24520  0.53790  0.91213  Biso   1.000  H
  C177     1.0000 0.30170  0.90510  0.89142  Biso   1.000  C
  C178     1.0000 0.06380  0.79220  0.97884  Biso   1.000  C
  H110     1.0000 0.00960  0.79650  0.97333  Biso   1.000  H
  C179     1.0000 0.22470  0.77720  0.99481  Biso   1.000  C
  H111     1.0000 0.27820  0.77150  0.00023  Biso   1.000  H
  C180     1.0000 0.30730  0.98800  0.90846  Biso   1.000  C
  H112     1.0000 0.30480  0.99500  0.93863  Biso   1.000  H
  C181     1.0000 0.32460  0.97230  0.81899  Biso   1.000  C
  H113     1.0000 0.33260  0.96800  0.78903  Biso   1.000  H
  C182     1.0000 0.41420  0.56860  0.88420  Biso   1.000  C
  C183     1.0000 0.13040  0.81320  0.94594  Biso   1.000  C
  H114     1.0000 0.12070  0.83220  0.91853  Biso   1.000  H
  C184     1.0000 0.00770  0.73880  0.05687  Biso   1.000  C
  O54      1.0000 0.92410  0.72370  0.04620  Biso   1.000  O
  H115     1.0000 0.85840  0.67210  0.04403  Biso   1.000  H
  C185     1.0000 0.32280  0.12590  0.80672  Biso   1.000  C
  C186     1.0000 0.25380  0.66570  0.91619  Biso   1.000  C
  H116     1.0000 0.19130  0.64250  0.92553  Biso   1.000  H
  C187     1.0000 0.07790  0.76480  0.02020  Biso   1.000  C
  C188     1.0000 0.31650  0.05910  0.88084  Biso   1.000  C
  H117     1.0000 0.31810  0.11300  0.89253  Biso   1.000  H
  C189     1.0000 0.32350  0.05210  0.83577  Biso   1.000  C
  O55      1.0000 0.87650  0.35690  0.21989  Biso   1.000  O
  O56      1.0000 0.30070  0.02770  0.42682  Biso   1.000  O
  O57      1.0000 0.89800  0.50160  0.20894  Biso   1.000  O
  C190     1.0000 0.74290  0.37860  0.22640  Biso   1.000  C
  C191     1.0000 0.55010  0.31400  0.24405  Biso   1.000  C
  N10      1.0000 0.45220  0.28020  0.25309  Biso   1.000  N
  O58      1.0000 0.21020  0.32530  0.09895  Biso   1.000  O
  O59      1.0000 0.12540  0.31720  0.15757  Biso   1.000  O
  C192     1.0000 0.40210  0.15900  0.36074  Biso   1.000  C
  H118     1.0000 0.43090  0.16860  0.38807  Biso   1.000  H
  C193     1.0000 0.70370  0.43720  0.21992  Biso   1.000  C
  H119     1.0000 0.74230  0.49880  0.20937  Biso   1.000  H
  C194     1.0000 0.41400  0.31380  0.17988  Biso   1.000  C
  H120     1.0000 0.46770  0.31470  0.16837  Biso   1.000  H
  C195     1.0000 0.60910  0.40610  0.22880  Biso   1.000  C
  H121     1.0000 0.58490  0.44690  0.22457  Biso   1.000  H
  C196     1.0000 0.40530  0.21160  0.28668  Biso   1.000  C
  C197     1.0000 0.68290  0.28590  0.24119  Biso   1.000  C
  H122     1.0000 0.70730  0.24520  0.24547  Biso   1.000  H
  C198     1.0000 0.39660  0.30170  0.22476  Biso   1.000  C
  C199     1.0000 0.27160  0.06380  0.31218  Biso   1.000  C
  H123     1.0000 0.21310  0.00960  0.30667  Biso   1.000  H
  C200     1.0000 0.44750  0.22470  0.32815  Biso   1.000  C
  H124     1.0000 0.50670  0.27820  0.33357  Biso   1.000  H
  C201     1.0000 0.31930  0.30730  0.24180  Biso   1.000  C
  H125     1.0000 0.30980  0.30480  0.27197  Biso   1.000  H
  C202     1.0000 0.35230  0.32460  0.15233  Biso   1.000  C
  H126     1.0000 0.36460  0.33260  0.12237  Biso   1.000  H
  C203     1.0000 0.84560  0.41420  0.21754  Biso   1.000  C
  C204     1.0000 0.31720  0.13040  0.27928  Biso   1.000  C
  H127     1.0000 0.28850  0.12070  0.25187  Biso   1.000  H
  C205     1.0000 0.26890  0.00770  0.39021  Biso   1.000  C
  O60      1.0000 0.20040  0.92410  0.37954  Biso   1.000  O
  H128     1.0000 0.18630  0.85840  0.37737  Biso   1.000  H
  C206     1.0000 0.19690  0.32280  0.14006  Biso   1.000  C
  C207     1.0000 0.58810  0.25380  0.24953  Biso   1.000  C
  H129     1.0000 0.54880  0.19130  0.25887  Biso   1.000  H
  C208     1.0000 0.31310  0.07790  0.35354  Biso   1.000  C
  C209     1.0000 0.25740  0.31650  0.21418  Biso   1.000  C
  H130     1.0000 0.20510  0.31810  0.22587  Biso   1.000  H
  C210     1.0000 0.27140  0.32350  0.16911  Biso   1.000  C
  O61      1.0000 0.48040  0.12350  0.55322  Biso   1.000  O
  O62      1.0000 0.72700  0.69930  0.76015  Biso   1.000  O
  O63      1.0000 0.60360  0.10200  0.54227  Biso   1.000  O
  C211     1.0000 0.63570  0.25710  0.55973  Biso   1.000  C
  C212     1.0000 0.76390  0.44990  0.57738  Biso   1.000  C
  N11      1.0000 0.82800  0.54780  0.58642  Biso   1.000  N
  O64      1.0000 0.11510  0.78980  0.43228  Biso   1.000  O
  O65      1.0000 0.19180  0.87460  0.49090  Biso   1.000  O
  C213     1.0000 0.75690  0.59790  0.69407  Biso   1.000  C
  H131     1.0000 0.73770  0.56910  0.72140  Biso   1.000  H
  C214     1.0000 0.73350  0.29630  0.55325  Biso   1.000  C
  H132     1.0000 0.75650  0.25770  0.54270  Biso   1.000  H
  C215     1.0000 0.89980  0.58600  0.51321  Biso   1.000  C
  H133     1.0000 0.84700  0.53230  0.50170  Biso   1.000  H
  C216     1.0000 0.79700  0.39090  0.56213  Biso   1.000  C
  H134     1.0000 0.86200  0.41510  0.55790  Biso   1.000  H
  C217     1.0000 0.80630  0.59470  0.62001  Biso   1.000  C
  C218     1.0000 0.60300  0.31710  0.57452  Biso   1.000  C
  H135     1.0000 0.53790  0.29270  0.57880  Biso   1.000  H
  C219     1.0000 0.90510  0.60340  0.55809  Biso   1.000  C
  C220     1.0000 0.79220  0.72840  0.64551  Biso   1.000  C
  H136     1.0000 0.79650  0.78690  0.64000  Biso   1.000  H
  C221     1.0000 0.77720  0.55250  0.66148  Biso   1.000  C
  H137     1.0000 0.77150  0.49330  0.66690  Biso   1.000  H
  C222     1.0000 0.98800  0.68070  0.57513  Biso   1.000  C
  H138     1.0000 0.99500  0.69020  0.60530  Biso   1.000  H
  C223     1.0000 0.97230  0.64770  0.48566  Biso   1.000  C
  H139     1.0000 0.96800  0.63540  0.45570  Biso   1.000  H
  C224     1.0000 0.56860  0.15440  0.55087  Biso   1.000  C
  C225     1.0000 0.81320  0.68280  0.61261  Biso   1.000  C
  H140     1.0000 0.83220  0.71150  0.58520  Biso   1.000  H
  C226     1.0000 0.73880  0.73110  0.72354  Biso   1.000  C
  O66      1.0000 0.72370  0.79960  0.71287  Biso   1.000  O
  H141     1.0000 0.67210  0.81370  0.71070  Biso   1.000  H
  C227     1.0000 0.12590  0.80310  0.47339  Biso   1.000  C
  C228     1.0000 0.66570  0.41190  0.58286  Biso   1.000  C
  H142     1.0000 0.64250  0.45120  0.59220  Biso   1.000  H
  C229     1.0000 0.76480  0.68690  0.68687  Biso   1.000  C
  C230     1.0000 0.05910  0.74260  0.54751  Biso   1.000  C
  H143     1.0000 0.11300  0.79490  0.55920  Biso   1.000  H
  C231     1.0000 0.05210  0.72860  0.50244  Biso   1.000  C
  O67      1.0000 0.64310  0.51960  0.88655  Biso   1.000  O
  O68      1.0000 0.97230  0.27300  0.09348  Biso   1.000  O
  O69      1.0000 0.49840  0.39640  0.87560  Biso   1.000  O
  C232     1.0000 0.62140  0.36430  0.89306  Biso   1.000  C
  C233     1.0000 0.68600  0.23610  0.91071  Biso   1.000  C
  N12      1.0000 0.71980  0.17200  0.91975  Biso   1.000  N
  O70      1.0000 0.67470  0.88490  0.76561  Biso   1.000  O
  O71      1.0000 0.68280  0.80820  0.82423  Biso   1.000  O
  C234     1.0000 0.84100  0.24310  0.02740  Biso   1.000  C
  H144     1.0000 0.83140  0.26230  0.05473  Biso   1.000  H
  C235     1.0000 0.56280  0.26650  0.88658  Biso   1.000  C
  H145     1.0000 0.50120  0.24350  0.87603  Biso   1.000  H
  C236     1.0000 0.68620  0.10020  0.84654  Biso   1.000  C
  H146     1.0000 0.68530  0.15300  0.83503  Biso   1.000  H
  C237     1.0000 0.59390  0.20300  0.89546  Biso   1.000  C
  H147     1.0000 0.55310  0.13800  0.89123  Biso   1.000  H
  C238     1.0000 0.78840  0.19370  0.95334  Biso   1.000  C
  C239     1.0000 0.71410  0.39700  0.90785  Biso   1.000  C
  H148     1.0000 0.75480  0.46210  0.91213  Biso   1.000  H
  C240     1.0000 0.69830  0.09490  0.89142  Biso   1.000  C
  C241     1.0000 0.93620  0.20780  0.97884  Biso   1.000  C
  H149     1.0000 0.99040  0.20350  0.97333  Biso   1.000  H
  C242     1.0000 0.77530  0.22280  0.99481  Biso   1.000  C
  H150     1.0000 0.72180  0.22850  0.00023  Biso   1.000  H
  C243     1.0000 0.69270  0.01200  0.90846  Biso   1.000  C
  H151     1.0000 0.69520  0.00500  0.93863  Biso   1.000  H
  C244     1.0000 0.67540  0.02770  0.81899  Biso   1.000  C
  H152     1.0000 0.66740  0.03200  0.78903  Biso   1.000  H
  C245     1.0000 0.58580  0.43140  0.88420  Biso   1.000  C
  C246     1.0000 0.86960  0.18680  0.94594  Biso   1.000  C
  H153     1.0000 0.87930  0.16780  0.91853  Biso   1.000  H
  C247     1.0000 0.99230  0.26120  0.05687  Biso   1.000  C
  O72      1.0000 0.07590  0.27630  0.04620  Biso   1.000  O
  H154     1.0000 0.14160  0.32790  0.04403  Biso   1.000  H
  C248     1.0000 0.67720  0.87410  0.80672  Biso   1.000  C
  C249     1.0000 0.74620  0.33430  0.91619  Biso   1.000  C
  H155     1.0000 0.80870  0.35750  0.92553  Biso   1.000  H
  C250     1.0000 0.92210  0.23520  0.02020  Biso   1.000  C
  C251     1.0000 0.68350  0.94090  0.88084  Biso   1.000  C
  H156     1.0000 0.68190  0.88700  0.89253  Biso   1.000  H
  C252     1.0000 0.67650  0.94790  0.83577  Biso   1.000  C
  La1      1.0000 0.35666  0.00000  0.50000  Biso   1.000  La
  La2      1.0000 0.00000  0.35666  0.16667  Biso   1.000  La
  La3      1.0000 0.64334  0.64334  0.83333  Biso   1.000  La
  La4      1.0000 0.64334  0.00000  0.50000  Biso   1.000  La
  La5      1.0000 0.00000  0.64334  0.16667  Biso   1.000  La
  La6      1.0000 0.35666  0.35666  0.83333  Biso   1.000  La
