data_image0
_cell_length_a       9.824
_cell_length_b       9.963
_cell_length_c       10.15
_cell_angle_alpha    74.044
_cell_angle_beta     86.361
_cell_angle_gamma    78.328

_symmetry_space_group_name_H-M    P 1
_symmetry_int_tables_number       1

loop_
  _symmetry_equiv_pos_as_xyz
  'x, y, z'

loop_
  _atom_site_label
  _atom_site_occupancy
  _atom_site_fract_x
  _atom_site_fract_y
  _atom_site_fract_z
  _atom_site_thermal_displace_type
  _atom_site_B_iso_or_equiv
  _atom_site_type_symbol
  Ca1      1.0000 0.50784  0.87968  0.88347  Biso   1.000  Ca
  Ca2      1.0000 0.49216  0.12032  0.11653  Biso   1.000  Ca
  Ca3      1.0000 0.50000  0.00000  0.50000  Biso   1.000  Ca
  H1       1.0000 0.30860  0.72120  0.52700  Biso   1.000  H
  H2       1.0000 0.32760  0.31400  0.53040  Biso   1.000  H
  H3       1.0000 0.48850  0.40730  0.84210  Biso   1.000  H
  H4       1.0000 0.27400  0.41630  0.30360  Biso   1.000  H
  H5       1.0000 0.13540  0.41730  0.39040  Biso   1.000  H
  H6       1.0000 0.26380  0.53550  0.06240  Biso   1.000  H
  H7       1.0000 0.13190  0.65690  0.86990  Biso   1.000  H
  H8       1.0000 0.80260  0.74040  0.10770  Biso   1.000  H
  H9       1.0000 0.93120  0.61500  0.29880  Biso   1.000  H
  H10      1.0000 0.69140  0.27880  0.47300  Biso   1.000  H
  H11      1.0000 0.67240  0.68600  0.46960  Biso   1.000  H
  H12      1.0000 0.51150  0.59270  0.15790  Biso   1.000  H
  H13      1.0000 0.72600  0.58370  0.69640  Biso   1.000  H
  H14      1.0000 0.86460  0.58270  0.60960  Biso   1.000  H
  H15      1.0000 0.73620  0.46450  0.93760  Biso   1.000  H
  H16      1.0000 0.86810  0.34310  0.13010  Biso   1.000  H
  H17      1.0000 0.19740  0.25960  0.89230  Biso   1.000  H
  H18      1.0000 0.06880  0.38500  0.70120  Biso   1.000  H
  C1       1.0000 0.44880  0.68700  0.75308  Biso   1.000  C
  C2       1.0000 0.40610  0.58040  0.69218  Biso   1.000  C
  C3       1.0000 0.33470  0.62470  0.56995  Biso   1.000  C
  C4       1.0000 0.30180  0.52440  0.51115  Biso   1.000  C
  C5       1.0000 0.34550  0.38100  0.57186  Biso   1.000  C
  C6       1.0000 0.41660  0.33720  0.69593  Biso   1.000  C
  C7       1.0000 0.44450  0.43670  0.75764  Biso   1.000  C
  C8       1.0000 0.46530  0.18230  0.75924  Biso   1.000  C
  C9       1.0000 0.19130  0.47690  0.32750  Biso   1.000  C
  C10      1.0000 0.11000  0.56060  0.20120  Biso   1.000  C
  C11      1.0000 0.17060  0.57500  0.07170  Biso   1.000  C
  C12      1.0000 0.09140  0.64870  0.95640  Biso   1.000  C
  C13      1.0000 0.95290  0.71030  0.96790  Biso   1.000  C
  C14      1.0000 0.86600  0.78570  0.84300  Biso   1.000  C
  C15      1.0000 0.89470  0.69790  0.09800  Biso   1.000  C
  C16      1.0000 0.97210  0.62340  0.21250  Biso   1.000  C
  C17      1.0000 0.55120  0.31300  0.24692  Biso   1.000  C
  C18      1.0000 0.59390  0.41960  0.30782  Biso   1.000  C
  C19      1.0000 0.66530  0.37530  0.43005  Biso   1.000  C
  C20      1.0000 0.69820  0.47560  0.48885  Biso   1.000  C
  C21      1.0000 0.65450  0.61900  0.42814  Biso   1.000  C
  C22      1.0000 0.58340  0.66280  0.30407  Biso   1.000  C
  C23      1.0000 0.55550  0.56330  0.24236  Biso   1.000  C
  C24      1.0000 0.53470  0.81770  0.24076  Biso   1.000  C
  C25      1.0000 0.80870  0.52310  0.67250  Biso   1.000  C
  C26      1.0000 0.89000  0.43940  0.79880  Biso   1.000  C
  C27      1.0000 0.82940  0.42500  0.92830  Biso   1.000  C
  C28      1.0000 0.90860  0.35130  0.04360  Biso   1.000  C
  C29      1.0000 0.04710  0.28970  0.03210  Biso   1.000  C
  C30      1.0000 0.13400  0.21430  0.15700  Biso   1.000  C
  C31      1.0000 0.10530  0.30210  0.90200  Biso   1.000  C
  C32      1.0000 0.02790  0.37660  0.78750  Biso   1.000  C
  O1       1.0000 0.92337  0.80000  0.72795  Biso   1.000  O
  O2       1.0000 0.73903  0.83190  0.85916  Biso   1.000  O
  O3       1.0000 0.22925  0.57804  0.39044  Biso   1.000  O
  O4       1.0000 0.45413  0.81078  0.67615  Biso   1.000  O
  O5       1.0000 0.47986  0.65121  0.87626  Biso   1.000  O
  O6       1.0000 0.47942  0.09606  0.68608  Biso   1.000  O
  O7       1.0000 0.49201  0.13759  0.88544  Biso   1.000  O
  O8       1.0000 0.74030  0.92780  0.52557  Biso   1.000  O
  O9       1.0000 0.26802  0.93420  0.92128  Biso   1.000  O
  O10      1.0000 0.07663  0.20000  0.27205  Biso   1.000  O
  O11      1.0000 0.26097  0.16810  0.14084  Biso   1.000  O
  O12      1.0000 0.77075  0.42196  0.60956  Biso   1.000  O
  O13      1.0000 0.54587  0.18922  0.32385  Biso   1.000  O
  O14      1.0000 0.52014  0.34879  0.12374  Biso   1.000  O
  O15      1.0000 0.52058  0.90394  0.31392  Biso   1.000  O
  O16      1.0000 0.50799  0.86241  0.11456  Biso   1.000  O
  O17      1.0000 0.25970  0.07220  0.47443  Biso   1.000  O
  O18      1.0000 0.73198  0.06580  0.07872  Biso   1.000  O
