data_image0
_cell_length_a       18.373
_cell_length_b       11.523
_cell_length_c       11.034
_cell_angle_alpha    90
_cell_angle_beta     94.251
_cell_angle_gamma    90

_symmetry_space_group_name_H-M    "P 1"
_symmetry_int_tables_number       1

loop_
  _symmetry_equiv_pos_as_xyz
  'x, y, z'

loop_
  _atom_site_label
  _atom_site_occupancy
  _atom_site_fract_x
  _atom_site_fract_y
  _atom_site_fract_z
  _atom_site_thermal_displace_type
  _atom_site_B_iso_or_equiv
  _atom_site_type_symbol
  Co1      1.0000 0.07530  0.93022  0.99285  Biso   1.000  Co
  C1       1.0000 0.12800  0.75220  0.16580  Biso   1.000  C
  C2       1.0000 0.19540  0.68760  0.22100  Biso   1.000  C
  C3       1.0000 0.20040  0.66510  0.34690  Biso   1.000  C
  H1       1.0000 0.16140  0.68810  0.39360  Biso   1.000  H
  C4       1.0000 0.25950  0.61140  0.40350  Biso   1.000  C
  H2       1.0000 0.26330  0.59730  0.48860  Biso   1.000  H
  C5       1.0000 0.31310  0.57910  0.33110  Biso   1.000  C
  C6       1.0000 0.31050  0.60190  0.20850  Biso   1.000  C
  C7       1.0000 0.24980  0.65910  0.14950  Biso   1.000  C
  H3       1.0000 0.24720  0.67650  0.06510  Biso   1.000  H
  N1       1.0000 0.37710  0.52380  0.36150  Biso   1.000  N
  N2       1.0000 0.41150  0.51310  0.26000  Biso   1.000  N
  N3       1.0000 0.37280  0.55950  0.16610  Biso   1.000  N
  O1       1.0000 0.97960  0.91360  0.06760  Biso   1.000  O
  H4       1.0000 0.95750  0.85720  0.03800  Biso   1.000  H
  O2       1.0000 0.07770  0.76720  0.23350  Biso   1.000  O
  O3       1.0000 0.13030  0.78620  0.05700  Biso   1.000  O
  Co2      1.0000 0.57530  0.43022  0.99285  Biso   1.000  Co
  C8       1.0000 0.62800  0.25220  0.16580  Biso   1.000  C
  C9       1.0000 0.69540  0.18760  0.22100  Biso   1.000  C
  C10      1.0000 0.70040  0.16510  0.34690  Biso   1.000  C
  H5       1.0000 0.66140  0.18810  0.39360  Biso   1.000  H
  C11      1.0000 0.75950  0.11140  0.40350  Biso   1.000  C
  H6       1.0000 0.76330  0.09730  0.48860  Biso   1.000  H
  C12      1.0000 0.81310  0.07910  0.33110  Biso   1.000  C
  C13      1.0000 0.81050  0.10190  0.20850  Biso   1.000  C
  C14      1.0000 0.74980  0.15910  0.14950  Biso   1.000  C
  H7       1.0000 0.74720  0.17650  0.06510  Biso   1.000  H
  N4       1.0000 0.87710  0.02380  0.36150  Biso   1.000  N
  N5       1.0000 0.91150  0.01310  0.26000  Biso   1.000  N
  N6       1.0000 0.87280  0.05950  0.16610  Biso   1.000  N
  O4       1.0000 0.47960  0.41360  0.06760  Biso   1.000  O
  H8       1.0000 0.45750  0.35720  0.03800  Biso   1.000  H
  O5       1.0000 0.57770  0.26720  0.23350  Biso   1.000  O
  O6       1.0000 0.63030  0.28620  0.05700  Biso   1.000  O
  Co3      1.0000 0.92470  0.93022  0.50715  Biso   1.000  Co
  C15      1.0000 0.87200  0.75220  0.33420  Biso   1.000  C
  C16      1.0000 0.80460  0.68760  0.27900  Biso   1.000  C
  C17      1.0000 0.79960  0.66510  0.15310  Biso   1.000  C
  H9       1.0000 0.83860  0.68810  0.10640  Biso   1.000  H
  C18      1.0000 0.74050  0.61140  0.09650  Biso   1.000  C
  H10      1.0000 0.73670  0.59730  0.01140  Biso   1.000  H
  C19      1.0000 0.68690  0.57910  0.16890  Biso   1.000  C
  C20      1.0000 0.68950  0.60190  0.29150  Biso   1.000  C
  C21      1.0000 0.75020  0.65910  0.35050  Biso   1.000  C
  H11      1.0000 0.75280  0.67650  0.43490  Biso   1.000  H
  N7       1.0000 0.62290  0.52380  0.13850  Biso   1.000  N
  N8       1.0000 0.58850  0.51310  0.24000  Biso   1.000  N
  N9       1.0000 0.62720  0.55950  0.33390  Biso   1.000  N
  O7       1.0000 0.02040  0.91360  0.43240  Biso   1.000  O
  H12      1.0000 0.04250  0.85720  0.46200  Biso   1.000  H
  O8       1.0000 0.92230  0.76720  0.26650  Biso   1.000  O
  O9       1.0000 0.86970  0.78620  0.44300  Biso   1.000  O
  Co4      1.0000 0.42470  0.43022  0.50715  Biso   1.000  Co
  C22      1.0000 0.37200  0.25220  0.33420  Biso   1.000  C
  C23      1.0000 0.30460  0.18760  0.27900  Biso   1.000  C
  C24      1.0000 0.29960  0.16510  0.15310  Biso   1.000  C
  H13      1.0000 0.33860  0.18810  0.10640  Biso   1.000  H
  C25      1.0000 0.24050  0.11140  0.09650  Biso   1.000  C
  H14      1.0000 0.23670  0.09730  0.01140  Biso   1.000  H
  C26      1.0000 0.18690  0.07910  0.16890  Biso   1.000  C
  C27      1.0000 0.18950  0.10190  0.29150  Biso   1.000  C
  C28      1.0000 0.25020  0.15910  0.35050  Biso   1.000  C
  H15      1.0000 0.25280  0.17650  0.43490  Biso   1.000  H
  N10      1.0000 0.12290  0.02380  0.13850  Biso   1.000  N
  N11      1.0000 0.08850  0.01310  0.24000  Biso   1.000  N
  N12      1.0000 0.12720  0.05950  0.33390  Biso   1.000  N
  O10      1.0000 0.52040  0.41360  0.43240  Biso   1.000  O
  H16      1.0000 0.54250  0.35720  0.46200  Biso   1.000  H
  O11      1.0000 0.42230  0.26720  0.26650  Biso   1.000  O
  O12      1.0000 0.36970  0.28620  0.44300  Biso   1.000  O
  Co5      1.0000 0.92470  0.06978  0.00715  Biso   1.000  Co
  C29      1.0000 0.87200  0.24780  0.83420  Biso   1.000  C
  C30      1.0000 0.80460  0.31240  0.77900  Biso   1.000  C
  C31      1.0000 0.79960  0.33490  0.65310  Biso   1.000  C
  H17      1.0000 0.83860  0.31190  0.60640  Biso   1.000  H
  C32      1.0000 0.74050  0.38860  0.59650  Biso   1.000  C
  H18      1.0000 0.73670  0.40270  0.51140  Biso   1.000  H
  C33      1.0000 0.68690  0.42090  0.66890  Biso   1.000  C
  C34      1.0000 0.68950  0.39810  0.79150  Biso   1.000  C
  C35      1.0000 0.75020  0.34090  0.85050  Biso   1.000  C
  H19      1.0000 0.75280  0.32350  0.93490  Biso   1.000  H
  N13      1.0000 0.62290  0.47620  0.63850  Biso   1.000  N
  N14      1.0000 0.58850  0.48690  0.74000  Biso   1.000  N
  N15      1.0000 0.62720  0.44050  0.83390  Biso   1.000  N
  O13      1.0000 0.02040  0.08640  0.93240  Biso   1.000  O
  H20      1.0000 0.04250  0.14280  0.96200  Biso   1.000  H
  O14      1.0000 0.92230  0.23280  0.76650  Biso   1.000  O
  O15      1.0000 0.86970  0.21380  0.94300  Biso   1.000  O
  Co6      1.0000 0.42470  0.56978  0.00715  Biso   1.000  Co
  C36      1.0000 0.37200  0.74780  0.83420  Biso   1.000  C
  C37      1.0000 0.30460  0.81240  0.77900  Biso   1.000  C
  C38      1.0000 0.29960  0.83490  0.65310  Biso   1.000  C
  H21      1.0000 0.33860  0.81190  0.60640  Biso   1.000  H
  C39      1.0000 0.24050  0.88860  0.59650  Biso   1.000  C
  H22      1.0000 0.23670  0.90270  0.51140  Biso   1.000  H
  C40      1.0000 0.18690  0.92090  0.66890  Biso   1.000  C
  C41      1.0000 0.18950  0.89810  0.79150  Biso   1.000  C
  C42      1.0000 0.25020  0.84090  0.85050  Biso   1.000  C
  H23      1.0000 0.25280  0.82350  0.93490  Biso   1.000  H
  N16      1.0000 0.12290  0.97620  0.63850  Biso   1.000  N
  N17      1.0000 0.08850  0.98690  0.74000  Biso   1.000  N
  N18      1.0000 0.12720  0.94050  0.83390  Biso   1.000  N
  O16      1.0000 0.52040  0.58640  0.93240  Biso   1.000  O
  H24      1.0000 0.54250  0.64280  0.96200  Biso   1.000  H
  O17      1.0000 0.42230  0.73280  0.76650  Biso   1.000  O
  O18      1.0000 0.36970  0.71380  0.94300  Biso   1.000  O
  Co7      1.0000 0.07530  0.06978  0.49285  Biso   1.000  Co
  C43      1.0000 0.12800  0.24780  0.66580  Biso   1.000  C
  C44      1.0000 0.19540  0.31240  0.72100  Biso   1.000  C
  C45      1.0000 0.20040  0.33490  0.84690  Biso   1.000  C
  H25      1.0000 0.16140  0.31190  0.89360  Biso   1.000  H
  C46      1.0000 0.25950  0.38860  0.90350  Biso   1.000  C
  H26      1.0000 0.26330  0.40270  0.98860  Biso   1.000  H
  C47      1.0000 0.31310  0.42090  0.83110  Biso   1.000  C
  C48      1.0000 0.31050  0.39810  0.70850  Biso   1.000  C
  C49      1.0000 0.24980  0.34090  0.64950  Biso   1.000  C
  H27      1.0000 0.24720  0.32350  0.56510  Biso   1.000  H
  N19      1.0000 0.37710  0.47620  0.86150  Biso   1.000  N
  N20      1.0000 0.41150  0.48690  0.76000  Biso   1.000  N
  N21      1.0000 0.37280  0.44050  0.66610  Biso   1.000  N
  O19      1.0000 0.97960  0.08640  0.56760  Biso   1.000  O
  H28      1.0000 0.95750  0.14280  0.53800  Biso   1.000  H
  O20      1.0000 0.07770  0.23280  0.73350  Biso   1.000  O
  O21      1.0000 0.13030  0.21380  0.55700  Biso   1.000  O
  Co8      1.0000 0.57530  0.56978  0.49285  Biso   1.000  Co
  C50      1.0000 0.62800  0.74780  0.66580  Biso   1.000  C
  C51      1.0000 0.69540  0.81240  0.72100  Biso   1.000  C
  C52      1.0000 0.70040  0.83490  0.84690  Biso   1.000  C
  H29      1.0000 0.66140  0.81190  0.89360  Biso   1.000  H
  C53      1.0000 0.75950  0.88860  0.90350  Biso   1.000  C
  H30      1.0000 0.76330  0.90270  0.98860  Biso   1.000  H
  C54      1.0000 0.81310  0.92090  0.83110  Biso   1.000  C
  C55      1.0000 0.81050  0.89810  0.70850  Biso   1.000  C
  C56      1.0000 0.74980  0.84090  0.64950  Biso   1.000  C
  H31      1.0000 0.74720  0.82350  0.56510  Biso   1.000  H
  N22      1.0000 0.87710  0.97620  0.86150  Biso   1.000  N
  N23      1.0000 0.91150  0.98690  0.76000  Biso   1.000  N
  N24      1.0000 0.87280  0.94050  0.66610  Biso   1.000  N
  O22      1.0000 0.47960  0.58640  0.56760  Biso   1.000  O
  H32      1.0000 0.45750  0.64280  0.53800  Biso   1.000  H
  O23      1.0000 0.57770  0.73280  0.73350  Biso   1.000  O
  O24      1.0000 0.63030  0.71380  0.55700  Biso   1.000  O
  Co9      1.0000 0.00000  0.89567  0.25000  Biso   1.000  Co
  Co10     1.0000 0.50000  0.39567  0.25000  Biso   1.000  Co
  Co11     1.0000 0.00000  0.10433  0.75000  Biso   1.000  Co
  Co12     1.0000 0.50000  0.60433  0.75000  Biso   1.000  Co
