data_image0
_cell_length_a       18.28
_cell_length_b       11.9163
_cell_length_c       11.0923
_cell_angle_alpha    90
_cell_angle_beta     94.04
_cell_angle_gamma    90

_symmetry_space_group_name_H-M    "P 1"
_symmetry_int_tables_number       1

loop_
  _symmetry_equiv_pos_as_xyz
  'x, y, z'

loop_
  _atom_site_label
  _atom_site_occupancy
  _atom_site_fract_x
  _atom_site_fract_y
  _atom_site_fract_z
  _atom_site_thermal_displace_type
  _atom_site_B_iso_or_equiv
  _atom_site_type_symbol
  Co1      1.0000 0.57704  0.43290  0.99566  Biso   1.000  Co
  C1       1.0000 0.63000  0.26000  0.16760  Biso   1.000  C
  C2       1.0000 0.69560  0.19420  0.22140  Biso   1.000  C
  C3       1.0000 0.75080  0.16180  0.15000  Biso   1.000  C
  H1       1.0000 0.74850  0.17650  0.06750  Biso   1.000  H
  C4       1.0000 0.81060  0.10530  0.20860  Biso   1.000  C
  C5       1.0000 0.81300  0.08130  0.33080  Biso   1.000  C
  C6       1.0000 0.75720  0.11400  0.40350  Biso   1.000  C
  H2       1.0000 0.75940  0.09880  0.48600  Biso   1.000  H
  C7       1.0000 0.69920  0.16960  0.34600  Biso   1.000  C
  H3       1.0000 0.66060  0.19200  0.39090  Biso   1.000  H
  N1       1.0000 0.87299  0.06220  0.16520  Biso   1.000  N
  N2       1.0000 0.91108  0.01600  0.25890  Biso   1.000  N
  N3       1.0000 0.87712  0.02580  0.36020  Biso   1.000  N
  O1       1.0000 0.47979  0.41440  0.06670  Biso   1.000  O
  O2       1.0000 0.63150  0.29410  0.05880  Biso   1.000  O
  O3       1.0000 0.57891  0.27600  0.23530  Biso   1.000  O
  H4       1.0000 0.45670  0.35500  0.04700  Biso   1.000  H
  Co2      1.0000 0.07704  0.93290  0.99566  Biso   1.000  Co
  C8       1.0000 0.13000  0.76000  0.16760  Biso   1.000  C
  C9       1.0000 0.19560  0.69420  0.22140  Biso   1.000  C
  C10      1.0000 0.25080  0.66180  0.15000  Biso   1.000  C
  H5       1.0000 0.24850  0.67650  0.06750  Biso   1.000  H
  C11      1.0000 0.31060  0.60530  0.20860  Biso   1.000  C
  C12      1.0000 0.31300  0.58130  0.33080  Biso   1.000  C
  C13      1.0000 0.25720  0.61400  0.40350  Biso   1.000  C
  H6       1.0000 0.25940  0.59880  0.48600  Biso   1.000  H
  C14      1.0000 0.19920  0.66960  0.34600  Biso   1.000  C
  H7       1.0000 0.16060  0.69200  0.39090  Biso   1.000  H
  N4       1.0000 0.37299  0.56220  0.16520  Biso   1.000  N
  N5       1.0000 0.41108  0.51600  0.25890  Biso   1.000  N
  N6       1.0000 0.37712  0.52580  0.36020  Biso   1.000  N
  O4       1.0000 0.97979  0.91440  0.06670  Biso   1.000  O
  O5       1.0000 0.13150  0.79410  0.05880  Biso   1.000  O
  O6       1.0000 0.07891  0.77600  0.23530  Biso   1.000  O
  H8       1.0000 0.95670  0.85500  0.04700  Biso   1.000  H
  Co3      1.0000 0.42296  0.43290  0.50434  Biso   1.000  Co
  C15      1.0000 0.37000  0.26000  0.33240  Biso   1.000  C
  C16      1.0000 0.30440  0.19420  0.27860  Biso   1.000  C
  C17      1.0000 0.24920  0.16180  0.35000  Biso   1.000  C
  H9       1.0000 0.25150  0.17650  0.43250  Biso   1.000  H
  C18      1.0000 0.18940  0.10530  0.29140  Biso   1.000  C
  C19      1.0000 0.18700  0.08130  0.16920  Biso   1.000  C
  C20      1.0000 0.24280  0.11400  0.09650  Biso   1.000  C
  H10      1.0000 0.24060  0.09880  0.01400  Biso   1.000  H
  C21      1.0000 0.30080  0.16960  0.15400  Biso   1.000  C
  H11      1.0000 0.33940  0.19200  0.10910  Biso   1.000  H
  N7       1.0000 0.12701  0.06220  0.33480  Biso   1.000  N
  N8       1.0000 0.08892  0.01600  0.24110  Biso   1.000  N
  N9       1.0000 0.12288  0.02580  0.13980  Biso   1.000  N
  O7       1.0000 0.52021  0.41440  0.43330  Biso   1.000  O
  O8       1.0000 0.36850  0.29410  0.44120  Biso   1.000  O
  O9       1.0000 0.42109  0.27600  0.26470  Biso   1.000  O
  H12      1.0000 0.54330  0.35500  0.45300  Biso   1.000  H
  Co4      1.0000 0.92296  0.93290  0.50434  Biso   1.000  Co
  C22      1.0000 0.87000  0.76000  0.33240  Biso   1.000  C
  C23      1.0000 0.80440  0.69420  0.27860  Biso   1.000  C
  C24      1.0000 0.74920  0.66180  0.35000  Biso   1.000  C
  H13      1.0000 0.75150  0.67650  0.43250  Biso   1.000  H
  C25      1.0000 0.68940  0.60530  0.29140  Biso   1.000  C
  C26      1.0000 0.68700  0.58130  0.16920  Biso   1.000  C
  C27      1.0000 0.74280  0.61400  0.09650  Biso   1.000  C
  H14      1.0000 0.74060  0.59880  0.01400  Biso   1.000  H
  C28      1.0000 0.80080  0.66960  0.15400  Biso   1.000  C
  H15      1.0000 0.83940  0.69200  0.10910  Biso   1.000  H
  N10      1.0000 0.62701  0.56220  0.33480  Biso   1.000  N
  N11      1.0000 0.58892  0.51600  0.24110  Biso   1.000  N
  N12      1.0000 0.62288  0.52580  0.13980  Biso   1.000  N
  O10      1.0000 0.02021  0.91440  0.43330  Biso   1.000  O
  O11      1.0000 0.86850  0.79410  0.44120  Biso   1.000  O
  O12      1.0000 0.92109  0.77600  0.26470  Biso   1.000  O
  H16      1.0000 0.04330  0.85500  0.45300  Biso   1.000  H
  Co5      1.0000 0.42296  0.56710  0.00434  Biso   1.000  Co
  C29      1.0000 0.37000  0.74000  0.83240  Biso   1.000  C
  C30      1.0000 0.30440  0.80580  0.77860  Biso   1.000  C
  C31      1.0000 0.24920  0.83820  0.85000  Biso   1.000  C
  H17      1.0000 0.25150  0.82350  0.93250  Biso   1.000  H
  C32      1.0000 0.18940  0.89470  0.79140  Biso   1.000  C
  C33      1.0000 0.18700  0.91870  0.66920  Biso   1.000  C
  C34      1.0000 0.24280  0.88600  0.59650  Biso   1.000  C
  H18      1.0000 0.24060  0.90120  0.51400  Biso   1.000  H
  C35      1.0000 0.30080  0.83040  0.65400  Biso   1.000  C
  H19      1.0000 0.33940  0.80800  0.60910  Biso   1.000  H
  N13      1.0000 0.12701  0.93780  0.83480  Biso   1.000  N
  N14      1.0000 0.08892  0.98400  0.74110  Biso   1.000  N
  N15      1.0000 0.12288  0.97420  0.63980  Biso   1.000  N
  O13      1.0000 0.52021  0.58560  0.93330  Biso   1.000  O
  O14      1.0000 0.36850  0.70590  0.94120  Biso   1.000  O
  O15      1.0000 0.42109  0.72400  0.76470  Biso   1.000  O
  H20      1.0000 0.54330  0.64500  0.95300  Biso   1.000  H
  Co6      1.0000 0.92296  0.06710  0.00434  Biso   1.000  Co
  C36      1.0000 0.87000  0.24000  0.83240  Biso   1.000  C
  C37      1.0000 0.80440  0.30580  0.77860  Biso   1.000  C
  C38      1.0000 0.74920  0.33820  0.85000  Biso   1.000  C
  H21      1.0000 0.75150  0.32350  0.93250  Biso   1.000  H
  C39      1.0000 0.68940  0.39470  0.79140  Biso   1.000  C
  C40      1.0000 0.68700  0.41870  0.66920  Biso   1.000  C
  C41      1.0000 0.74280  0.38600  0.59650  Biso   1.000  C
  H22      1.0000 0.74060  0.40120  0.51400  Biso   1.000  H
  C42      1.0000 0.80080  0.33040  0.65400  Biso   1.000  C
  H23      1.0000 0.83940  0.30800  0.60910  Biso   1.000  H
  N16      1.0000 0.62701  0.43780  0.83480  Biso   1.000  N
  N17      1.0000 0.58892  0.48400  0.74110  Biso   1.000  N
  N18      1.0000 0.62288  0.47420  0.63980  Biso   1.000  N
  O16      1.0000 0.02021  0.08560  0.93330  Biso   1.000  O
  O17      1.0000 0.86850  0.20590  0.94120  Biso   1.000  O
  O18      1.0000 0.92109  0.22400  0.76470  Biso   1.000  O
  H24      1.0000 0.04330  0.14500  0.95300  Biso   1.000  H
  Co7      1.0000 0.57704  0.56710  0.49566  Biso   1.000  Co
  C43      1.0000 0.63000  0.74000  0.66760  Biso   1.000  C
  C44      1.0000 0.69560  0.80580  0.72140  Biso   1.000  C
  C45      1.0000 0.75080  0.83820  0.65000  Biso   1.000  C
  H25      1.0000 0.74850  0.82350  0.56750  Biso   1.000  H
  C46      1.0000 0.81060  0.89470  0.70860  Biso   1.000  C
  C47      1.0000 0.81300  0.91870  0.83080  Biso   1.000  C
  C48      1.0000 0.75720  0.88600  0.90350  Biso   1.000  C
  H26      1.0000 0.75940  0.90120  0.98600  Biso   1.000  H
  C49      1.0000 0.69920  0.83040  0.84600  Biso   1.000  C
  H27      1.0000 0.66060  0.80800  0.89090  Biso   1.000  H
  N19      1.0000 0.87299  0.93780  0.66520  Biso   1.000  N
  N20      1.0000 0.91108  0.98400  0.75890  Biso   1.000  N
  N21      1.0000 0.87712  0.97420  0.86020  Biso   1.000  N
  O19      1.0000 0.47979  0.58560  0.56670  Biso   1.000  O
  O20      1.0000 0.63150  0.70590  0.55880  Biso   1.000  O
  O21      1.0000 0.57891  0.72400  0.73530  Biso   1.000  O
  H28      1.0000 0.45670  0.64500  0.54700  Biso   1.000  H
  Co8      1.0000 0.07704  0.06710  0.49566  Biso   1.000  Co
  C50      1.0000 0.13000  0.24000  0.66760  Biso   1.000  C
  C51      1.0000 0.19560  0.30580  0.72140  Biso   1.000  C
  C52      1.0000 0.25080  0.33820  0.65000  Biso   1.000  C
  H29      1.0000 0.24850  0.32350  0.56750  Biso   1.000  H
  C53      1.0000 0.31060  0.39470  0.70860  Biso   1.000  C
  C54      1.0000 0.31300  0.41870  0.83080  Biso   1.000  C
  C55      1.0000 0.25720  0.38600  0.90350  Biso   1.000  C
  H30      1.0000 0.25940  0.40120  0.98600  Biso   1.000  H
  C56      1.0000 0.19920  0.33040  0.84600  Biso   1.000  C
  H31      1.0000 0.16060  0.30800  0.89090  Biso   1.000  H
  N22      1.0000 0.37299  0.43780  0.66520  Biso   1.000  N
  N23      1.0000 0.41108  0.48400  0.75890  Biso   1.000  N
  N24      1.0000 0.37712  0.47420  0.86020  Biso   1.000  N
  O22      1.0000 0.97979  0.08560  0.56670  Biso   1.000  O
  O23      1.0000 0.13150  0.20590  0.55880  Biso   1.000  O
  O24      1.0000 0.07891  0.22400  0.73530  Biso   1.000  O
  H32      1.0000 0.95670  0.14500  0.54700  Biso   1.000  H
  Co9      1.0000 0.50000  0.39937  0.25000  Biso   1.000  Co
  Co10     1.0000 0.00000  0.89937  0.25000  Biso   1.000  Co
  Co11     1.0000 0.50000  0.60063  0.75000  Biso   1.000  Co
  Co12     1.0000 0.00000  0.10063  0.75000  Biso   1.000  Co
