data_image0
_cell_length_a       15.3904
_cell_length_b       15.3904
_cell_length_c       9.8586
_cell_angle_alpha    90
_cell_angle_beta     90
_cell_angle_gamma    90

_symmetry_space_group_name_H-M    "P 1"
_symmetry_int_tables_number       1

loop_
  _symmetry_equiv_pos_as_xyz
  'x, y, z'

loop_
  _atom_site_label
  _atom_site_occupancy
  _atom_site_fract_x
  _atom_site_fract_y
  _atom_site_fract_z
  _atom_site_thermal_displace_type
  _atom_site_B_iso_or_equiv
  _atom_site_type_symbol
  C1       1.0000 0.19480  0.68790  0.12080  Biso   1.000  C
  H1       1.0000 0.17770  0.71270  0.20490  Biso   1.000  H
  C2       1.0000 0.24440  0.61320  0.11970  Biso   1.000  C
  H2       1.0000 0.26200  0.58770  0.20310  Biso   1.000  H
  O1       1.0000 0.37360  0.46940  0.12230  Biso   1.000  O
  C3       1.0000 0.80520  0.31210  0.12080  Biso   1.000  C
  H3       1.0000 0.82230  0.28730  0.20490  Biso   1.000  H
  C4       1.0000 0.75560  0.38680  0.11970  Biso   1.000  C
  H4       1.0000 0.73800  0.41230  0.20310  Biso   1.000  H
  O2       1.0000 0.62640  0.53060  0.12230  Biso   1.000  O
  C5       1.0000 0.31210  0.19480  0.12080  Biso   1.000  C
  H5       1.0000 0.28730  0.17770  0.20490  Biso   1.000  H
  C6       1.0000 0.38680  0.24440  0.11970  Biso   1.000  C
  H6       1.0000 0.41230  0.26200  0.20310  Biso   1.000  H
  O3       1.0000 0.53060  0.37360  0.12230  Biso   1.000  O
  C7       1.0000 0.68790  0.80520  0.12080  Biso   1.000  C
  H7       1.0000 0.71270  0.82230  0.20490  Biso   1.000  H
  C8       1.0000 0.61320  0.75560  0.11970  Biso   1.000  C
  H8       1.0000 0.58770  0.73800  0.20310  Biso   1.000  H
  O4       1.0000 0.46940  0.62640  0.12230  Biso   1.000  O
  C9       1.0000 0.80520  0.68790  0.37920  Biso   1.000  C
  H9       1.0000 0.82230  0.71270  0.29510  Biso   1.000  H
  C10      1.0000 0.75560  0.61320  0.38030  Biso   1.000  C
  H10      1.0000 0.73800  0.58770  0.29690  Biso   1.000  H
  O5       1.0000 0.62640  0.46940  0.37770  Biso   1.000  O
  C11      1.0000 0.19480  0.31210  0.37920  Biso   1.000  C
  H11      1.0000 0.17770  0.28730  0.29510  Biso   1.000  H
  C12      1.0000 0.24440  0.38680  0.38030  Biso   1.000  C
  H12      1.0000 0.26200  0.41230  0.29690  Biso   1.000  H
  O6       1.0000 0.37360  0.53060  0.37770  Biso   1.000  O
  C13      1.0000 0.68790  0.19480  0.37920  Biso   1.000  C
  H13      1.0000 0.71270  0.17770  0.29510  Biso   1.000  H
  C14      1.0000 0.61320  0.24440  0.38030  Biso   1.000  C
  H14      1.0000 0.58770  0.26200  0.29690  Biso   1.000  H
  O7       1.0000 0.46940  0.37360  0.37770  Biso   1.000  O
  C15      1.0000 0.31210  0.80520  0.37920  Biso   1.000  C
  H15      1.0000 0.28730  0.82230  0.29510  Biso   1.000  H
  C16      1.0000 0.38680  0.75560  0.38030  Biso   1.000  C
  H16      1.0000 0.41230  0.73800  0.29690  Biso   1.000  H
  O8       1.0000 0.53060  0.62640  0.37770  Biso   1.000  O
  C17      1.0000 0.80520  0.31210  0.87920  Biso   1.000  C
  H17      1.0000 0.82230  0.28730  0.79510  Biso   1.000  H
  C18      1.0000 0.75560  0.38680  0.88030  Biso   1.000  C
  H18      1.0000 0.73800  0.41230  0.79690  Biso   1.000  H
  O9       1.0000 0.62640  0.53060  0.87770  Biso   1.000  O
  C19      1.0000 0.19480  0.68790  0.87920  Biso   1.000  C
  H19      1.0000 0.17770  0.71270  0.79510  Biso   1.000  H
  C20      1.0000 0.24440  0.61320  0.88030  Biso   1.000  C
  H20      1.0000 0.26200  0.58770  0.79690  Biso   1.000  H
  O10      1.0000 0.37360  0.46940  0.87770  Biso   1.000  O
  C21      1.0000 0.68790  0.80520  0.87920  Biso   1.000  C
  H21      1.0000 0.71270  0.82230  0.79510  Biso   1.000  H
  C22      1.0000 0.61320  0.75560  0.88030  Biso   1.000  C
  H22      1.0000 0.58770  0.73800  0.79690  Biso   1.000  H
  O11      1.0000 0.46940  0.62640  0.87770  Biso   1.000  O
  C23      1.0000 0.31210  0.19480  0.87920  Biso   1.000  C
  H23      1.0000 0.28730  0.17770  0.79510  Biso   1.000  H
  C24      1.0000 0.38680  0.24440  0.88030  Biso   1.000  C
  H24      1.0000 0.41230  0.26200  0.79690  Biso   1.000  H
  O12      1.0000 0.53060  0.37360  0.87770  Biso   1.000  O
  C25      1.0000 0.19480  0.31210  0.62080  Biso   1.000  C
  H25      1.0000 0.17770  0.28730  0.70490  Biso   1.000  H
  C26      1.0000 0.24440  0.38680  0.61970  Biso   1.000  C
  H26      1.0000 0.26200  0.41230  0.70310  Biso   1.000  H
  O13      1.0000 0.37360  0.53060  0.62230  Biso   1.000  O
  C27      1.0000 0.80520  0.68790  0.62080  Biso   1.000  C
  H27      1.0000 0.82230  0.71270  0.70490  Biso   1.000  H
  C28      1.0000 0.75560  0.61320  0.61970  Biso   1.000  C
  H28      1.0000 0.73800  0.58770  0.70310  Biso   1.000  H
  O14      1.0000 0.62640  0.46940  0.62230  Biso   1.000  O
  C29      1.0000 0.31210  0.80520  0.62080  Biso   1.000  C
  H29      1.0000 0.28730  0.82230  0.70490  Biso   1.000  H
  C30      1.0000 0.38680  0.75560  0.61970  Biso   1.000  C
  H30      1.0000 0.41230  0.73800  0.70310  Biso   1.000  H
  O15      1.0000 0.53060  0.62640  0.62230  Biso   1.000  O
  C31      1.0000 0.68790  0.19480  0.62080  Biso   1.000  C
  H31      1.0000 0.71270  0.17770  0.70490  Biso   1.000  H
  C32      1.0000 0.61320  0.24440  0.61970  Biso   1.000  C
  H32      1.0000 0.58770  0.26200  0.70310  Biso   1.000  H
  O16      1.0000 0.46940  0.37360  0.62230  Biso   1.000  O
  Sm1      1.0000 0.50000  0.50000  0.25000  Biso   1.000  Sm
  Sm2      1.0000 0.50000  0.50000  0.75000  Biso   1.000  Sm
  S1       1.0000 0.32117  0.47399  0.00000  Biso   1.000  S
  O17      1.0000 0.25300  0.41040  0.00000  Biso   1.000  O
  C33      1.0000 0.26840  0.57550  0.00000  Biso   1.000  C
  C34      1.0000 0.16970  0.72710  0.00000  Biso   1.000  C
  C35      1.0000 0.25910  0.89450  0.00000  Biso   1.000  C
  H33      1.0000 0.29990  0.84810  0.00000  Biso   1.000  H
  N1       1.0000 0.13040  0.97000  0.00000  Biso   1.000  N
  C36      1.0000 0.11710  0.80900  0.00000  Biso   1.000  C
  C37      1.0000 0.16350  0.88670  0.00000  Biso   1.000  C
  C38      1.0000 0.02740  0.80370  0.00000  Biso   1.000  C
  C39      1.0000 0.27740  0.97990  0.00000  Biso   1.000  C
  H34      1.0000 0.33390  0.00470  0.00000  Biso   1.000  H
  S2       1.0000 0.67883  0.52601  0.00000  Biso   1.000  S
  O18      1.0000 0.74700  0.58960  0.00000  Biso   1.000  O
  C40      1.0000 0.73160  0.42450  0.00000  Biso   1.000  C
  C41      1.0000 0.83030  0.27290  0.00000  Biso   1.000  C
  C42      1.0000 0.74090  0.10550  0.00000  Biso   1.000  C
  H35      1.0000 0.70010  0.15190  0.00000  Biso   1.000  H
  N2       1.0000 0.86960  0.03000  0.00000  Biso   1.000  N
  C43      1.0000 0.88290  0.19100  0.00000  Biso   1.000  C
  C44      1.0000 0.83650  0.11330  0.00000  Biso   1.000  C
  C45      1.0000 0.97260  0.19630  0.00000  Biso   1.000  C
  C46      1.0000 0.72260  0.02010  0.00000  Biso   1.000  C
  H36      1.0000 0.66610  0.99530  0.00000  Biso   1.000  H
  S3       1.0000 0.52601  0.32117  0.00000  Biso   1.000  S
  O19      1.0000 0.58960  0.25300  0.00000  Biso   1.000  O
  C47      1.0000 0.42450  0.26840  0.00000  Biso   1.000  C
  C48      1.0000 0.27290  0.16970  0.00000  Biso   1.000  C
  C49      1.0000 0.10550  0.25910  0.00000  Biso   1.000  C
  H37      1.0000 0.15190  0.29990  0.00000  Biso   1.000  H
  N3       1.0000 0.03000  0.13040  0.00000  Biso   1.000  N
  C50      1.0000 0.19100  0.11710  0.00000  Biso   1.000  C
  C51      1.0000 0.11330  0.16350  0.00000  Biso   1.000  C
  C52      1.0000 0.19630  0.02740  0.00000  Biso   1.000  C
  C53      1.0000 0.02010  0.27740  0.00000  Biso   1.000  C
  H38      1.0000 0.99530  0.33390  0.00000  Biso   1.000  H
  S4       1.0000 0.47399  0.67883  0.00000  Biso   1.000  S
  O20      1.0000 0.41040  0.74700  0.00000  Biso   1.000  O
  C54      1.0000 0.57550  0.73160  0.00000  Biso   1.000  C
  C55      1.0000 0.72710  0.83030  0.00000  Biso   1.000  C
  C56      1.0000 0.89450  0.74090  0.00000  Biso   1.000  C
  H39      1.0000 0.84810  0.70010  0.00000  Biso   1.000  H
  N4       1.0000 0.97000  0.86960  0.00000  Biso   1.000  N
  C57      1.0000 0.80900  0.88290  0.00000  Biso   1.000  C
  C58      1.0000 0.88670  0.83650  0.00000  Biso   1.000  C
  C59      1.0000 0.80370  0.97260  0.00000  Biso   1.000  C
  C60      1.0000 0.97990  0.72260  0.00000  Biso   1.000  C
  H40      1.0000 0.00470  0.66610  0.00000  Biso   1.000  H
  S5       1.0000 0.67883  0.47399  0.50000  Biso   1.000  S
  O21      1.0000 0.74700  0.41040  0.50000  Biso   1.000  O
  C61      1.0000 0.73160  0.57550  0.50000  Biso   1.000  C
  C62      1.0000 0.83030  0.72710  0.50000  Biso   1.000  C
  C63      1.0000 0.74090  0.89450  0.50000  Biso   1.000  C
  H41      1.0000 0.70010  0.84810  0.50000  Biso   1.000  H
  N5       1.0000 0.86960  0.97000  0.50000  Biso   1.000  N
  C64      1.0000 0.88290  0.80900  0.50000  Biso   1.000  C
  C65      1.0000 0.83650  0.88670  0.50000  Biso   1.000  C
  C66      1.0000 0.97260  0.80370  0.50000  Biso   1.000  C
  C67      1.0000 0.72260  0.97990  0.50000  Biso   1.000  C
  H42      1.0000 0.66610  0.00470  0.50000  Biso   1.000  H
  S6       1.0000 0.32117  0.52601  0.50000  Biso   1.000  S
  O22      1.0000 0.25300  0.58960  0.50000  Biso   1.000  O
  C68      1.0000 0.26840  0.42450  0.50000  Biso   1.000  C
  C69      1.0000 0.16970  0.27290  0.50000  Biso   1.000  C
  C70      1.0000 0.25910  0.10550  0.50000  Biso   1.000  C
  H43      1.0000 0.29990  0.15190  0.50000  Biso   1.000  H
  N6       1.0000 0.13040  0.03000  0.50000  Biso   1.000  N
  C71      1.0000 0.11710  0.19100  0.50000  Biso   1.000  C
  C72      1.0000 0.16350  0.11330  0.50000  Biso   1.000  C
  C73      1.0000 0.02740  0.19630  0.50000  Biso   1.000  C
  C74      1.0000 0.27740  0.02010  0.50000  Biso   1.000  C
  H44      1.0000 0.33390  0.99530  0.50000  Biso   1.000  H
  S7       1.0000 0.47399  0.32117  0.50000  Biso   1.000  S
  O23      1.0000 0.41040  0.25300  0.50000  Biso   1.000  O
  C75      1.0000 0.57550  0.26840  0.50000  Biso   1.000  C
  C76      1.0000 0.72710  0.16970  0.50000  Biso   1.000  C
  C77      1.0000 0.89450  0.25910  0.50000  Biso   1.000  C
  H45      1.0000 0.84810  0.29990  0.50000  Biso   1.000  H
  N7       1.0000 0.97000  0.13040  0.50000  Biso   1.000  N
  C78      1.0000 0.80900  0.11710  0.50000  Biso   1.000  C
  C79      1.0000 0.88670  0.16350  0.50000  Biso   1.000  C
  C80      1.0000 0.80370  0.02740  0.50000  Biso   1.000  C
  C81      1.0000 0.97990  0.27740  0.50000  Biso   1.000  C
  H46      1.0000 0.00470  0.33390  0.50000  Biso   1.000  H
  S8       1.0000 0.52601  0.67883  0.50000  Biso   1.000  S
  O24      1.0000 0.58960  0.74700  0.50000  Biso   1.000  O
  C82      1.0000 0.42450  0.73160  0.50000  Biso   1.000  C
  C83      1.0000 0.27290  0.83030  0.50000  Biso   1.000  C
  C84      1.0000 0.10550  0.74090  0.50000  Biso   1.000  C
  H47      1.0000 0.15190  0.70010  0.50000  Biso   1.000  H
  N8       1.0000 0.03000  0.86960  0.50000  Biso   1.000  N
  C85      1.0000 0.19100  0.88290  0.50000  Biso   1.000  C
  C86      1.0000 0.11330  0.83650  0.50000  Biso   1.000  C
  C87      1.0000 0.19630  0.97260  0.50000  Biso   1.000  C
  C88      1.0000 0.02010  0.72260  0.50000  Biso   1.000  C
  H48      1.0000 0.99530  0.66610  0.50000  Biso   1.000  H
  O25      1.0000 0.00000  0.00000  0.25000  Biso   1.000  O
  O26      1.0000 0.00000  0.00000  0.75000  Biso   1.000  O
  V1       1.0000 0.00000  0.00000  0.08800  Biso   1.000  V
  V2       1.0000 0.00000  0.00000  0.41200  Biso   1.000  V
  V3       1.0000 0.00000  0.00000  0.91200  Biso   1.000  V
  V4       1.0000 0.00000  0.00000  0.58800  Biso   1.000  V
