data_image0
_cell_length_a       9.81003
_cell_length_b       18.571
_cell_length_c       20.2309
_cell_angle_alpha    80.7648
_cell_angle_beta     75.9687
_cell_angle_gamma    74.6852

_symmetry_space_group_name_H-M    P 1
_symmetry_int_tables_number       1

loop_
  _symmetry_equiv_pos_as_xyz
  'x, y, z'

loop_
  _atom_site_label
  _atom_site_occupancy
  _atom_site_fract_x
  _atom_site_fract_y
  _atom_site_fract_z
  _atom_site_thermal_displace_type
  _atom_site_B_iso_or_equiv
  _atom_site_type_symbol
  Zn1      1.0000 0.66214  0.59989  0.82101  Biso   1.000  Zn
  Zn2      1.0000 0.08304  0.90011  0.67899  Biso   1.000  Zn
  Zn3      1.0000 0.33786  0.40011  0.17899  Biso   1.000  Zn
  Zn4      1.0000 0.91696  0.09989  0.32101  Biso   1.000  Zn
  Zn5      1.0000 0.00889  0.75000  0.25000  Biso   1.000  Zn
  Zn6      1.0000 0.99111  0.25000  0.75000  Biso   1.000  Zn
  H1       1.0000 0.16660  0.23700  0.88820  Biso   1.000  H
  H2       1.0000 0.90060  0.54910  0.19930  Biso   1.000  H
  H3       1.0000 0.89270  0.42160  0.20740  Biso   1.000  H
  H4       1.0000 0.74140  0.47280  0.23600  Biso   1.000  H
  H5       1.0000 0.78710  0.36370  0.31310  Biso   1.000  H
  H6       1.0000 0.92980  0.38230  0.32010  Biso   1.000  H
  H7       1.0000 0.74760  0.41900  0.41420  Biso   1.000  H
  H8       1.0000 0.64900  0.46970  0.36570  Biso   1.000  H
  H9       1.0000 0.90900  0.49630  0.38310  Biso   1.000  H
  H10      1.0000 0.75410  0.54680  0.40700  Biso   1.000  H
  H11      1.0000 0.73110  0.58320  0.29460  Biso   1.000  H
  H12      1.0000 0.42640  0.55840  0.93660  Biso   1.000  H
  H13      1.0000 0.28320  0.47550  0.96750  Biso   1.000  H
  H14      1.0000 0.48710  0.38110  0.79510  Biso   1.000  H
  H15      1.0000 0.62960  0.46430  0.77090  Biso   1.000  H
  H16      1.0000 0.01850  0.18340  0.97660  Biso   1.000  H
  H17      1.0000 0.84280  0.14690  0.06350  Biso   1.000  H
  H18      1.0000 0.78250  0.32460  0.15360  Biso   1.000  H
  H19      1.0000 0.95770  0.36720  0.07120  Biso   1.000  H
  H20      1.0000 0.13480  0.65170  0.14030  Biso   1.000  H
  H21      1.0000 0.30430  0.63930  0.04070  Biso   1.000  H
  H22      1.0000 0.43800  0.81180  0.07840  Biso   1.000  H
  H23      1.0000 0.25810  0.82210  0.17570  Biso   1.000  H
  H24      1.0000 0.76210  0.85190  0.90670  Biso   1.000  H
  H25      1.0000 0.91910  0.91010  0.82890  Biso   1.000  H
  H26      1.0000 0.99530  0.75750  0.70390  Biso   1.000  H
  H27      1.0000 0.83600  0.69630  0.77910  Biso   1.000  H
  H28      1.0000 0.29180  0.26300  0.61180  Biso   1.000  H
  H29      1.0000 0.64900  0.95090  0.30070  Biso   1.000  H
  H30      1.0000 0.52170  0.07840  0.29260  Biso   1.000  H
  H31      1.0000 0.45020  0.02720  0.26400  Biso   1.000  H
  H32      1.0000 0.46390  0.13630  0.18690  Biso   1.000  H
  H33      1.0000 0.63220  0.11770  0.17990  Biso   1.000  H
  H34      1.0000 0.58080  0.08100  0.08580  Biso   1.000  H
  H35      1.0000 0.48440  0.03030  0.13430  Biso   1.000  H
  H36      1.0000 0.78840  0.00370  0.11690  Biso   1.000  H
  H37      1.0000 0.70790  0.95320  0.09300  Biso   1.000  H
  H38      1.0000 0.60890  0.91680  0.20540  Biso   1.000  H
  H39      1.0000 0.92140  0.94160  0.56340  Biso   1.000  H
  H40      1.0000 0.72620  0.02450  0.53250  Biso   1.000  H
  H41      1.0000 0.66330  0.11890  0.70490  Biso   1.000  H
  H42      1.0000 0.86480  0.03570  0.72910  Biso   1.000  H
  H43      1.0000 0.17850  0.31660  0.52340  Biso   1.000  H
  H44      1.0000 0.05320  0.35310  0.43650  Biso   1.000  H
  H45      1.0000 0.26070  0.17540  0.34640  Biso   1.000  H
  H46      1.0000 0.39610  0.13280  0.42880  Biso   1.000  H
  H47      1.0000 0.92680  0.84830  0.35970  Biso   1.000  H
  H48      1.0000 0.98430  0.86070  0.45930  Biso   1.000  H
  H49      1.0000 0.32820  0.68820  0.42160  Biso   1.000  H
  H50      1.0000 0.25590  0.67790  0.32430  Biso   1.000  H
  H51      1.0000 0.52070  0.64810  0.59330  Biso   1.000  H
  H52      1.0000 0.65810  0.58990  0.67110  Biso   1.000  H
  H53      1.0000 0.45670  0.74250  0.79610  Biso   1.000  H
  H54      1.0000 0.31140  0.80370  0.72090  Biso   1.000  H
  H55      1.0000 0.83340  0.76300  0.11180  Biso   1.000  H
  H56      1.0000 0.09940  0.45090  0.80070  Biso   1.000  H
  H57      1.0000 0.10730  0.57840  0.79260  Biso   1.000  H
  H58      1.0000 0.25860  0.52720  0.76400  Biso   1.000  H
  H59      1.0000 0.21290  0.63630  0.68690  Biso   1.000  H
  H60      1.0000 0.07020  0.61770  0.67990  Biso   1.000  H
  H61      1.0000 0.25240  0.58100  0.58580  Biso   1.000  H
  H62      1.0000 0.35100  0.53030  0.63430  Biso   1.000  H
  H63      1.0000 0.09100  0.50370  0.61690  Biso   1.000  H
  H64      1.0000 0.24590  0.45320  0.59300  Biso   1.000  H
  H65      1.0000 0.26890  0.41680  0.70540  Biso   1.000  H
  H66      1.0000 0.57360  0.44160  0.06340  Biso   1.000  H
  H67      1.0000 0.71680  0.52450  0.03250  Biso   1.000  H
  H68      1.0000 0.51290  0.61890  0.20490  Biso   1.000  H
  H69      1.0000 0.37040  0.53570  0.22910  Biso   1.000  H
  H70      1.0000 0.98150  0.81660  0.02340  Biso   1.000  H
  H71      1.0000 0.15720  0.85310  0.93650  Biso   1.000  H
  H72      1.0000 0.21750  0.67540  0.84640  Biso   1.000  H
  H73      1.0000 0.04230  0.63280  0.92880  Biso   1.000  H
  H74      1.0000 0.86520  0.34830  0.85970  Biso   1.000  H
  H75      1.0000 0.69570  0.36070  0.95930  Biso   1.000  H
  H76      1.0000 0.56200  0.18820  0.92160  Biso   1.000  H
  H77      1.0000 0.74190  0.17790  0.82430  Biso   1.000  H
  H78      1.0000 0.23790  0.14810  0.09330  Biso   1.000  H
  H79      1.0000 0.08090  0.08990  0.17110  Biso   1.000  H
  H80      1.0000 0.00470  0.24250  0.29610  Biso   1.000  H
  H81      1.0000 0.16400  0.30370  0.22090  Biso   1.000  H
  H82      1.0000 0.70820  0.73700  0.38820  Biso   1.000  H
  H83      1.0000 0.35100  0.04910  0.69930  Biso   1.000  H
  H84      1.0000 0.47830  0.92160  0.70740  Biso   1.000  H
  H85      1.0000 0.54980  0.97280  0.73600  Biso   1.000  H
  H86      1.0000 0.53610  0.86370  0.81310  Biso   1.000  H
  H87      1.0000 0.36780  0.88230  0.82010  Biso   1.000  H
  H88      1.0000 0.41920  0.91900  0.91420  Biso   1.000  H
  H89      1.0000 0.51560  0.96970  0.86570  Biso   1.000  H
  H90      1.0000 0.21160  0.99630  0.88310  Biso   1.000  H
  H91      1.0000 0.29210  0.04680  0.90700  Biso   1.000  H
  H92      1.0000 0.39110  0.08320  0.79460  Biso   1.000  H
  H93      1.0000 0.07860  0.05840  0.43660  Biso   1.000  H
  H94      1.0000 0.27380  0.97550  0.46750  Biso   1.000  H
  H95      1.0000 0.33670  0.88110  0.29510  Biso   1.000  H
  H96      1.0000 0.13520  0.96430  0.27090  Biso   1.000  H
  H97      1.0000 0.82150  0.68340  0.47660  Biso   1.000  H
  H98      1.0000 0.94680  0.64690  0.56350  Biso   1.000  H
  H99      1.0000 0.73930  0.82460  0.65360  Biso   1.000  H
  H100     1.0000 0.60390  0.86720  0.57120  Biso   1.000  H
  H101     1.0000 0.07320  0.15170  0.64030  Biso   1.000  H
  H102     1.0000 0.01570  0.13930  0.54070  Biso   1.000  H
  H103     1.0000 0.67180  0.31180  0.57840  Biso   1.000  H
  H104     1.0000 0.74410  0.32210  0.67570  Biso   1.000  H
  H105     1.0000 0.47930  0.35190  0.40670  Biso   1.000  H
  H106     1.0000 0.34190  0.41010  0.32890  Biso   1.000  H
  H107     1.0000 0.54330  0.25750  0.20390  Biso   1.000  H
  H108     1.0000 0.68860  0.19630  0.27910  Biso   1.000  H
  C1       1.0000 0.06930  0.48690  0.24110  Biso   1.000  C
  C2       1.0000 0.91000  0.51660  0.24200  Biso   1.000  C
  C3       1.0000 0.83850  0.45260  0.24380  Biso   1.000  C
  C4       1.0000 0.83240  0.40420  0.31320  Biso   1.000  C
  C5       1.0000 0.74820  0.45050  0.37090  Biso   1.000  C
  C6       1.0000 0.81460  0.51560  0.37180  Biso   1.000  C
  C7       1.0000 0.83010  0.56390  0.30190  Biso   1.000  C
  C8       1.0000 0.88240  0.63150  0.30230  Biso   1.000  C
  C9       1.0000 0.43830  0.52200  0.90780  Biso   1.000  C
  C10      1.0000 0.35160  0.47240  0.92660  Biso   1.000  C
  C11      1.0000 0.36560  0.41740  0.88460  Biso   1.000  C
  C12      1.0000 0.47280  0.41660  0.82520  Biso   1.000  C
  C13      1.0000 0.55700  0.46720  0.81040  Biso   1.000  C
  C14      1.0000 0.27550  0.36410  0.90410  Biso   1.000  C
  C15      1.0000 0.12130  0.30690  0.96010  Biso   1.000  C
  C16      1.0000 0.00810  0.28020  0.01420  Biso   1.000  C
  C17      1.0000 0.97270  0.21300  0.01220  Biso   1.000  C
  C18      1.0000 0.86660  0.19180  0.06500  Biso   1.000  C
  C19      1.0000 0.83150  0.29550  0.11790  Biso   1.000  C
  C20      1.0000 0.93620  0.32220  0.06820  Biso   1.000  C
  C21      1.0000 0.19540  0.68480  0.12740  Biso   1.000  C
  C22      1.0000 0.29730  0.67690  0.06750  Biso   1.000  C
  C23      1.0000 0.38940  0.72500  0.04680  Biso   1.000  C
  C24      1.0000 0.37610  0.77940  0.08940  Biso   1.000  C
  C25      1.0000 0.26860  0.78440  0.14840  Biso   1.000  C
  C26      1.0000 0.50020  0.71850  0.98290  Biso   1.000  C
  C27      1.0000 0.66610  0.73480  0.89920  Biso   1.000  C
  C28      1.0000 0.77610  0.76810  0.85150  Biso   1.000  C
  C29      1.0000 0.80680  0.83210  0.86530  Biso   1.000  C
  C30      1.0000 0.90220  0.86670  0.81850  Biso   1.000  C
  C31      1.0000 0.94680  0.77730  0.74490  Biso   1.000  C
  C32      1.0000 0.85050  0.74010  0.79010  Biso   1.000  C
  C33      1.0000 0.79730  0.01310  0.25890  Biso   1.000  C
  C34      1.0000 0.66860  0.98340  0.25800  Biso   1.000  C
  C35      1.0000 0.53490  0.04740  0.25620  Biso   1.000  C
  C36      1.0000 0.54980  0.09580  0.18680  Biso   1.000  C
  C37      1.0000 0.56960  0.04950  0.12910  Biso   1.000  C
  C38      1.0000 0.70200  0.98440  0.12820  Biso   1.000  C
  C39      1.0000 0.69590  0.93610  0.19810  Biso   1.000  C
  C40      1.0000 0.81620  0.86850  0.19770  Biso   1.000  C
  C41      1.0000 0.86810  0.97800  0.59220  Biso   1.000  C
  C42      1.0000 0.75060  0.02760  0.57340  Biso   1.000  C
  C43      1.0000 0.66760  0.08260  0.61540  Biso   1.000  C
  C44      1.0000 0.71460  0.08340  0.67480  Biso   1.000  C
  C45      1.0000 0.83460  0.03280  0.68960  Biso   1.000  C
  C46      1.0000 0.54370  0.13590  0.59590  Biso   1.000  C
  C47      1.0000 0.38830  0.19310  0.53990  Biso   1.000  C
  C48      1.0000 0.30250  0.21980  0.48580  Biso   1.000  C
  C49      1.0000 0.19790  0.28700  0.48780  Biso   1.000  C
  C50      1.0000 0.12340  0.30820  0.43500  Biso   1.000  C
  C51      1.0000 0.24490  0.20450  0.38210  Biso   1.000  C
  C52      1.0000 0.32660  0.17780  0.43180  Biso   1.000  C
  C53      1.0000 0.00760  0.81520  0.37260  Biso   1.000  C
  C54      1.0000 0.04170  0.82310  0.43250  Biso   1.000  C
  C55      1.0000 0.16120  0.77500  0.45320  Biso   1.000  C
  C56      1.0000 0.24490  0.72060  0.41060  Biso   1.000  C
  C57      1.0000 0.20140  0.71560  0.35160  Biso   1.000  C
  C58      1.0000 0.20160  0.78150  0.51710  Biso   1.000  C
  C59      1.0000 0.30010  0.76520  0.60080  Biso   1.000  C
  C60      1.0000 0.39570  0.73190  0.64850  Biso   1.000  C
  C61      1.0000 0.50420  0.66790  0.63470  Biso   1.000  C
  C62      1.0000 0.58740  0.63330  0.68150  Biso   1.000  C
  C63      1.0000 0.46900  0.72270  0.75510  Biso   1.000  C
  C64      1.0000 0.38070  0.75990  0.70990  Biso   1.000  C
  C65      1.0000 0.93070  0.51310  0.75890  Biso   1.000  C
  C66      1.0000 0.09000  0.48340  0.75800  Biso   1.000  C
  C67      1.0000 0.16150  0.54740  0.75620  Biso   1.000  C
  C68      1.0000 0.16760  0.59580  0.68680  Biso   1.000  C
  C69      1.0000 0.25180  0.54950  0.62910  Biso   1.000  C
  C70      1.0000 0.18540  0.48440  0.62820  Biso   1.000  C
  C71      1.0000 0.16990  0.43610  0.69810  Biso   1.000  C
  C72      1.0000 0.11760  0.36850  0.69770  Biso   1.000  C
  C73      1.0000 0.56170  0.47800  0.09220  Biso   1.000  C
  C74      1.0000 0.64840  0.52760  0.07340  Biso   1.000  C
  C75      1.0000 0.63440  0.58260  0.11540  Biso   1.000  C
  C76      1.0000 0.52720  0.58340  0.17480  Biso   1.000  C
  C77      1.0000 0.44300  0.53280  0.18960  Biso   1.000  C
  C78      1.0000 0.72450  0.63590  0.09590  Biso   1.000  C
  C79      1.0000 0.87870  0.69310  0.03990  Biso   1.000  C
  C80      1.0000 0.99190  0.71980  0.98580  Biso   1.000  C
  C81      1.0000 0.02730  0.78700  0.98780  Biso   1.000  C
  C82      1.0000 0.13340  0.80820  0.93500  Biso   1.000  C
  C83      1.0000 0.16850  0.70450  0.88210  Biso   1.000  C
  C84      1.0000 0.06380  0.67780  0.93180  Biso   1.000  C
  C85      1.0000 0.80460  0.31520  0.87260  Biso   1.000  C
  C86      1.0000 0.70270  0.32310  0.93250  Biso   1.000  C
  C87      1.0000 0.61060  0.27500  0.95320  Biso   1.000  C
  C88      1.0000 0.62390  0.22060  0.91060  Biso   1.000  C
  C89      1.0000 0.73140  0.21560  0.85160  Biso   1.000  C
  C90      1.0000 0.49980  0.28150  0.01710  Biso   1.000  C
  C91      1.0000 0.33390  0.26520  0.10080  Biso   1.000  C
  C92      1.0000 0.22390  0.23190  0.14850  Biso   1.000  C
  C93      1.0000 0.19320  0.16790  0.13470  Biso   1.000  C
  C94      1.0000 0.09780  0.13330  0.18150  Biso   1.000  C
  C95      1.0000 0.05320  0.22270  0.25510  Biso   1.000  C
  C96      1.0000 0.14950  0.25990  0.20990  Biso   1.000  C
  C97      1.0000 0.20270  0.98690  0.74110  Biso   1.000  C
  C98      1.0000 0.33140  0.01660  0.74200  Biso   1.000  C
  C99      1.0000 0.46510  0.95260  0.74380  Biso   1.000  C
  C100     1.0000 0.45020  0.90420  0.81320  Biso   1.000  C
  C101     1.0000 0.43040  0.95050  0.87090  Biso   1.000  C
  C102     1.0000 0.29800  0.01560  0.87180  Biso   1.000  C
  C103     1.0000 0.30410  0.06390  0.80190  Biso   1.000  C
  C104     1.0000 0.18380  0.13150  0.80230  Biso   1.000  C
  C105     1.0000 0.13190  0.02200  0.40780  Biso   1.000  C
  C106     1.0000 0.24940  0.97240  0.42660  Biso   1.000  C
  C107     1.0000 0.33240  0.91740  0.38460  Biso   1.000  C
  C108     1.0000 0.28540  0.91660  0.32520  Biso   1.000  C
  C109     1.0000 0.16540  0.96720  0.31040  Biso   1.000  C
  C110     1.0000 0.45630  0.86410  0.40410  Biso   1.000  C
  C111     1.0000 0.61170  0.80690  0.46010  Biso   1.000  C
  C112     1.0000 0.69750  0.78020  0.51420  Biso   1.000  C
  C113     1.0000 0.80210  0.71300  0.51220  Biso   1.000  C
  C114     1.0000 0.87660  0.69180  0.56500  Biso   1.000  C
  C115     1.0000 0.75510  0.79550  0.61790  Biso   1.000  C
  C116     1.0000 0.67340  0.82220  0.56820  Biso   1.000  C
  C117     1.0000 0.99240  0.18480  0.62740  Biso   1.000  C
  C118     1.0000 0.95830  0.17690  0.56750  Biso   1.000  C
  C119     1.0000 0.83880  0.22500  0.54680  Biso   1.000  C
  C120     1.0000 0.75510  0.27940  0.58940  Biso   1.000  C
  C121     1.0000 0.79860  0.28440  0.64840  Biso   1.000  C
  C122     1.0000 0.79840  0.21850  0.48290  Biso   1.000  C
  C123     1.0000 0.69990  0.23480  0.39920  Biso   1.000  C
  C124     1.0000 0.60430  0.26810  0.35150  Biso   1.000  C
  C125     1.0000 0.49580  0.33210  0.36530  Biso   1.000  C
  C126     1.0000 0.41260  0.36670  0.31850  Biso   1.000  C
  C127     1.0000 0.53100  0.27730  0.24490  Biso   1.000  C
  C128     1.0000 0.61930  0.24010  0.29010  Biso   1.000  C
  N1       1.0000 0.53880  0.52080  0.85060  Biso   1.000  N
  N2       1.0000 0.17220  0.36510  0.96290  Biso   1.000  N
  N3       1.0000 0.18830  0.27370  0.90390  Biso   1.000  N
  N4       1.0000 0.28820  0.30980  0.86660  Biso   1.000  N
  N5       1.0000 0.79640  0.23100  0.11780  Biso   1.000  N
  N6       1.0000 0.17920  0.73810  0.16850  Biso   1.000  N
  N7       1.0000 0.59010  0.76440  0.95780  Biso   1.000  N
  N8       1.0000 0.51470  0.66270  0.94470  Biso   1.000  N
  N9       1.0000 0.62370  0.67440  0.88940  Biso   1.000  N
  N10      1.0000 0.97300  0.84010  0.75790  Biso   1.000  N
  N11      1.0000 0.91020  0.97920  0.64940  Biso   1.000  N
  N12      1.0000 0.50020  0.13490  0.53710  Biso   1.000  N
  N13      1.0000 0.36590  0.22630  0.59610  Biso   1.000  N
  N14      1.0000 0.46460  0.19020  0.63340  Biso   1.000  N
  N15      1.0000 0.14520  0.26900  0.38220  Biso   1.000  N
  N16      1.0000 0.08580  0.76190  0.33150  Biso   1.000  N
  N17      1.0000 0.31230  0.73560  0.54220  Biso   1.000  N
  N18      1.0000 0.12210  0.83730  0.55530  Biso   1.000  N
  N19      1.0000 0.18750  0.82560  0.61060  Biso   1.000  N
  N20      1.0000 0.57100  0.65990  0.74210  Biso   1.000  N
  N21      1.0000 0.46120  0.47920  0.14940  Biso   1.000  N
  N22      1.0000 0.82780  0.63490  0.03710  Biso   1.000  N
  N23      1.0000 0.81170  0.72630  0.09610  Biso   1.000  N
  N24      1.0000 0.71180  0.69020  0.13340  Biso   1.000  N
  N25      1.0000 0.20360  0.76900  0.88220  Biso   1.000  N
  N26      1.0000 0.82080  0.26190  0.83150  Biso   1.000  N
  N27      1.0000 0.40990  0.23560  0.04220  Biso   1.000  N
  N28      1.0000 0.48530  0.33730  0.05530  Biso   1.000  N
  N29      1.0000 0.37630  0.32560  0.11060  Biso   1.000  N
  N30      1.0000 0.02700  0.15990  0.24210  Biso   1.000  N
  N31      1.0000 0.08980  0.02080  0.35060  Biso   1.000  N
  N32      1.0000 0.49980  0.86510  0.46290  Biso   1.000  N
  N33      1.0000 0.63410  0.77370  0.40390  Biso   1.000  N
  N34      1.0000 0.53540  0.80980  0.36660  Biso   1.000  N
  N35      1.0000 0.85480  0.73100  0.61780  Biso   1.000  N
  N36      1.0000 0.91420  0.23810  0.66850  Biso   1.000  N
  N37      1.0000 0.68770  0.26440  0.45780  Biso   1.000  N
  N38      1.0000 0.87790  0.16270  0.44470  Biso   1.000  N
  N39      1.0000 0.81250  0.17440  0.38940  Biso   1.000  N
  N40      1.0000 0.42900  0.34010  0.25790  Biso   1.000  N
  O1       1.0000 0.13640  0.44780  0.19060  Biso   1.000  O
  O2       1.0000 0.13120  0.49730  0.28250  Biso   1.000  O
  O3       1.0000 0.95083  0.65884  0.24490  Biso   1.000  O
  O4       1.0000 0.85930  0.66230  0.35570  Biso   1.000  O
  O5       1.0000 0.77480  0.05220  0.30940  Biso   1.000  O
  O6       1.0000 0.91100  0.00270  0.21750  Biso   1.000  O
  O7       1.0000 0.85457  0.84116  0.25510  Biso   1.000  O
  O8       1.0000 0.87730  0.83770  0.14430  Biso   1.000  O
  O9       1.0000 0.86360  0.55220  0.80940  Biso   1.000  O
  O10      1.0000 0.86880  0.50270  0.71750  Biso   1.000  O
  O11      1.0000 0.04917  0.34116  0.75510  Biso   1.000  O
  O12      1.0000 0.14070  0.33770  0.64430  Biso   1.000  O
  O13      1.0000 0.22520  0.94780  0.69060  Biso   1.000  O
  O14      1.0000 0.08900  0.99730  0.78250  Biso   1.000  O
  O15      1.0000 0.14543  0.15884  0.74490  Biso   1.000  O
  O16      1.0000 0.12270  0.16230  0.85570  Biso   1.000  O
