data_image0
_cell_length_a       12.057
_cell_length_b       24.891
_cell_length_c       12.38
_cell_angle_alpha    90
_cell_angle_beta     93.04
_cell_angle_gamma    90

_symmetry_space_group_name_H-M    "P 1"
_symmetry_int_tables_number       1

loop_
  _symmetry_equiv_pos_as_xyz
  'x, y, z'

loop_
  _atom_site_label
  _atom_site_occupancy
  _atom_site_fract_x
  _atom_site_fract_y
  _atom_site_fract_z
  _atom_site_thermal_displace_type
  _atom_site_B_iso_or_equiv
  _atom_site_type_symbol
  Cu1      1.0000 0.67730  0.67300  0.75880  Biso   1.000  Cu
  Cu2      1.0000 0.67850  0.76180  0.89300  Biso   1.000  Cu
  Cu3      1.0000 0.85110  0.75230  0.74300  Biso   1.000  Cu
  Cu4      1.0000 0.85640  0.67880  0.92300  Biso   1.000  Cu
  Cu5      1.0000 0.82550  0.41910  0.38840  Biso   1.000  Cu
  Cu6      1.0000 0.64880  0.43120  0.24330  Biso   1.000  Cu
  Cu7      1.0000 0.66550  0.50250  0.42190  Biso   1.000  Cu
  Cu8      1.0000 0.81660  0.51140  0.26040  Biso   1.000  Cu
  I1       1.0000 0.87910  0.64380  0.71720  Biso   1.000  I
  I2       1.0000 0.89680  0.78450  0.94690  Biso   1.000  I
  I3       1.0000 0.63400  0.77360  0.68410  Biso   1.000  I
  I4       1.0000 0.65290  0.66350  0.98170  Biso   1.000  I
  I5       1.0000 0.61110  0.39970  0.44590  Biso   1.000  I
  I6       1.0000 0.86100  0.41280  0.18010  Biso   1.000  I
  I7       1.0000 0.88540  0.51510  0.47160  Biso   1.000  I
  I8       1.0000 0.59830  0.53650  0.22350  Biso   1.000  I
  S1       1.0000 0.53100  0.62160  0.68380  Biso   1.000  S
  S2       1.0000 0.57010  0.81780  0.99480  Biso   1.000  S
  S3       1.0000 0.07400  0.85350  0.51210  Biso   1.000  S
  S4       1.0000 0.99190  0.62850  0.02060  Biso   1.000  S
  N1       1.0000 0.89100  0.56250  0.17100  Biso   1.000  N
  N2       1.0000 0.44600  0.88440  0.84800  Biso   1.000  N
  N3       1.0000 0.94600  0.79300  0.65300  Biso   1.000  N
  N4       1.0000 0.60200  0.55100  0.53000  Biso   1.000  N
  C1       1.0000 0.93400  0.58700  0.10800  Biso   1.000  C
  C2       1.0000 0.49800  0.85600  0.90600  Biso   1.000  C
  C3       1.0000 0.00100  0.82080  0.59700  Biso   1.000  C
  C4       1.0000 0.57500  0.57900  0.59300  Biso   1.000  C
  Cu9      1.0000 0.32270  0.17300  0.24120  Biso   1.000  Cu
  Cu10     1.0000 0.32150  0.26180  0.10700  Biso   1.000  Cu
  Cu11     1.0000 0.14890  0.25230  0.25700  Biso   1.000  Cu
  Cu12     1.0000 0.14360  0.17880  0.07700  Biso   1.000  Cu
  Cu13     1.0000 0.17450  0.91910  0.61160  Biso   1.000  Cu
  Cu14     1.0000 0.35120  0.93120  0.75670  Biso   1.000  Cu
  Cu15     1.0000 0.33450  0.00250  0.57810  Biso   1.000  Cu
  Cu16     1.0000 0.18340  0.01140  0.73960  Biso   1.000  Cu
  I9       1.0000 0.12090  0.14380  0.28280  Biso   1.000  I
  I10      1.0000 0.10320  0.28450  0.05310  Biso   1.000  I
  I11      1.0000 0.36600  0.27360  0.31590  Biso   1.000  I
  I12      1.0000 0.34710  0.16350  0.01830  Biso   1.000  I
  I13      1.0000 0.38890  0.89970  0.55410  Biso   1.000  I
  I14      1.0000 0.13900  0.91280  0.81990  Biso   1.000  I
  I15      1.0000 0.11460  0.01510  0.52840  Biso   1.000  I
  I16      1.0000 0.40170  0.03650  0.77650  Biso   1.000  I
  S5       1.0000 0.46900  0.12160  0.31620  Biso   1.000  S
  S6       1.0000 0.42990  0.31780  0.00520  Biso   1.000  S
  S7       1.0000 0.92600  0.35350  0.48790  Biso   1.000  S
  S8       1.0000 0.00810  0.12850  0.97940  Biso   1.000  S
  N5       1.0000 0.10900  0.06250  0.82900  Biso   1.000  N
  N6       1.0000 0.55400  0.38440  0.15200  Biso   1.000  N
  N7       1.0000 0.05400  0.29300  0.34700  Biso   1.000  N
  N8       1.0000 0.39800  0.05100  0.47000  Biso   1.000  N
  C5       1.0000 0.06600  0.08700  0.89200  Biso   1.000  C
  C6       1.0000 0.50200  0.35600  0.09400  Biso   1.000  C
  C7       1.0000 0.99900  0.32080  0.40300  Biso   1.000  C
  C8       1.0000 0.42500  0.07900  0.40700  Biso   1.000  C
