data_image0
_cell_length_a       7.7639
_cell_length_b       10.1765
_cell_length_c       15.949
_cell_angle_alpha    90
_cell_angle_beta     90
_cell_angle_gamma    90

_symmetry_space_group_name_H-M    P 1
_symmetry_int_tables_number       1

loop_
  _symmetry_equiv_pos_as_xyz
  'x, y, z'

loop_
  _atom_site_label
  _atom_site_occupancy
  _atom_site_fract_x
  _atom_site_fract_y
  _atom_site_fract_z
  _atom_site_thermal_displace_type
  _atom_site_B_iso_or_equiv
  _atom_site_type_symbol
  Mg1      1.0000 0.86026  0.02982  0.78926  Biso   1.000  Mg
  Mg2      1.0000 0.13974  0.97018  0.28926  Biso   1.000  Mg
  Mg3      1.0000 0.36026  0.47018  0.78926  Biso   1.000  Mg
  Mg4      1.0000 0.63974  0.52982  0.28926  Biso   1.000  Mg
  H1       1.0000 0.59730  0.87440  0.72490  Biso   1.000  H
  H2       1.0000 0.76180  0.82490  0.72400  Biso   1.000  H
  H3       1.0000 0.91040  0.45120  0.59840  Biso   1.000  H
  H4       1.0000 0.14960  0.25400  0.37250  Biso   1.000  H
  H5       1.0000 0.05440  0.91440  0.47400  Biso   1.000  H
  H6       1.0000 0.04630  0.36070  0.48910  Biso   1.000  H
  H7       1.0000 0.94180  0.01110  0.59140  Biso   1.000  H
  H8       1.0000 0.40270  0.12560  0.22490  Biso   1.000  H
  H9       1.0000 0.23820  0.17510  0.22400  Biso   1.000  H
  H10      1.0000 0.08960  0.54880  0.09840  Biso   1.000  H
  H11      1.0000 0.85040  0.74600  0.87250  Biso   1.000  H
  H12      1.0000 0.94560  0.08560  0.97400  Biso   1.000  H
  H13      1.0000 0.95370  0.63930  0.98910  Biso   1.000  H
  H14      1.0000 0.05820  0.98890  0.09140  Biso   1.000  H
  H15      1.0000 0.09730  0.62560  0.72490  Biso   1.000  H
  H16      1.0000 0.26180  0.67510  0.72400  Biso   1.000  H
  H17      1.0000 0.41040  0.04880  0.59840  Biso   1.000  H
  H18      1.0000 0.64960  0.24600  0.37250  Biso   1.000  H
  H19      1.0000 0.55440  0.58560  0.47400  Biso   1.000  H
  H20      1.0000 0.54630  0.13930  0.48910  Biso   1.000  H
  H21      1.0000 0.44180  0.48890  0.59140  Biso   1.000  H
  H22      1.0000 0.90270  0.37440  0.22490  Biso   1.000  H
  H23      1.0000 0.73820  0.32490  0.22400  Biso   1.000  H
  H24      1.0000 0.58960  0.95120  0.09840  Biso   1.000  H
  H25      1.0000 0.35040  0.75400  0.87250  Biso   1.000  H
  H26      1.0000 0.44560  0.41440  0.97400  Biso   1.000  H
  H27      1.0000 0.45370  0.86070  0.98910  Biso   1.000  H
  H28      1.0000 0.55820  0.51110  0.09140  Biso   1.000  H
  C1       1.0000 0.89340  0.26100  0.62500  Biso   1.000  C
  C2       1.0000 0.76600  0.41520  0.69970  Biso   1.000  C
  C3       1.0000 0.73550  0.29270  0.73430  Biso   1.000  C
  C4       1.0000 0.97750  0.19860  0.55280  Biso   1.000  C
  C5       1.0000 0.10700  0.20430  0.41680  Biso   1.000  C
  C6       1.0000 0.04990  0.00560  0.47640  Biso   1.000  C
  C7       1.0000 0.04380  0.26940  0.48680  Biso   1.000  C
  C8       1.0000 0.71420  0.55300  0.72220  Biso   1.000  C
  C9       1.0000 0.98280  0.06280  0.54760  Biso   1.000  C
  C10      1.0000 0.63300  0.25270  0.80920  Biso   1.000  C
  C11      1.0000 0.10660  0.73900  0.12500  Biso   1.000  C
  C12      1.0000 0.23400  0.58480  0.19970  Biso   1.000  C
  C13      1.0000 0.26450  0.70730  0.23430  Biso   1.000  C
  C14      1.0000 0.02250  0.80140  0.05280  Biso   1.000  C
  C15      1.0000 0.89300  0.79570  0.91680  Biso   1.000  C
  C16      1.0000 0.95010  0.99440  0.97640  Biso   1.000  C
  C17      1.0000 0.95620  0.73060  0.98680  Biso   1.000  C
  C18      1.0000 0.28580  0.44700  0.22220  Biso   1.000  C
  C19      1.0000 0.01720  0.93720  0.04760  Biso   1.000  C
  C20      1.0000 0.36700  0.74730  0.30920  Biso   1.000  C
  C21      1.0000 0.39340  0.23900  0.62500  Biso   1.000  C
  C22      1.0000 0.26600  0.08480  0.69970  Biso   1.000  C
  C23      1.0000 0.23550  0.20730  0.73430  Biso   1.000  C
  C24      1.0000 0.47750  0.30140  0.55280  Biso   1.000  C
  C25      1.0000 0.60700  0.29570  0.41680  Biso   1.000  C
  C26      1.0000 0.54990  0.49440  0.47640  Biso   1.000  C
  C27      1.0000 0.54380  0.23060  0.48680  Biso   1.000  C
  C28      1.0000 0.21420  0.94700  0.72220  Biso   1.000  C
  C29      1.0000 0.48280  0.43720  0.54760  Biso   1.000  C
  C30      1.0000 0.13300  0.24730  0.80920  Biso   1.000  C
  C31      1.0000 0.60660  0.76100  0.12500  Biso   1.000  C
  C32      1.0000 0.73400  0.91520  0.19970  Biso   1.000  C
  C33      1.0000 0.76450  0.79270  0.23430  Biso   1.000  C
  C34      1.0000 0.52250  0.69860  0.05280  Biso   1.000  C
  C35      1.0000 0.39300  0.70430  0.91680  Biso   1.000  C
  C36      1.0000 0.45010  0.50560  0.97640  Biso   1.000  C
  C37      1.0000 0.45620  0.76940  0.98680  Biso   1.000  C
  C38      1.0000 0.78580  0.05300  0.22220  Biso   1.000  C
  C39      1.0000 0.51720  0.56280  0.04760  Biso   1.000  C
  C40      1.0000 0.86700  0.75270  0.30920  Biso   1.000  C
  N1       1.0000 0.10940  0.07420  0.41017  Biso   1.000  N
  N2       1.0000 0.81810  0.19830  0.68830  Biso   1.000  N
  N3       1.0000 0.86880  0.39240  0.63143  Biso   1.000  N
  N4       1.0000 0.89060  0.92580  0.91017  Biso   1.000  N
  N5       1.0000 0.18190  0.80170  0.18830  Biso   1.000  N
  N6       1.0000 0.13120  0.60760  0.13143  Biso   1.000  N
  N7       1.0000 0.60940  0.42580  0.41017  Biso   1.000  N
  N8       1.0000 0.31810  0.30170  0.68830  Biso   1.000  N
  N9       1.0000 0.36880  0.10760  0.63143  Biso   1.000  N
  N10      1.0000 0.39060  0.57420  0.91017  Biso   1.000  N
  N11      1.0000 0.68190  0.69830  0.18830  Biso   1.000  N
  N12      1.0000 0.63120  0.89240  0.13143  Biso   1.000  N
  O1       1.0000 0.66060  0.13850  0.83676  Biso   1.000  O
  O2       1.0000 0.52810  0.33180  0.83917  Biso   1.000  O
  O3       1.0000 0.56120  0.57340  0.74332  Biso   1.000  O
  O4       1.0000 0.70110  0.89080  0.73826  Biso   1.000  O
  O5       1.0000 0.82910  0.63830  0.71620  Biso   1.000  O
  O6       1.0000 0.33940  0.86150  0.33676  Biso   1.000  O
  O7       1.0000 0.47190  0.66820  0.33917  Biso   1.000  O
  O8       1.0000 0.43880  0.42660  0.24332  Biso   1.000  O
  O9       1.0000 0.29890  0.10920  0.23826  Biso   1.000  O
  O10      1.0000 0.17090  0.36170  0.21620  Biso   1.000  O
  O11      1.0000 0.16060  0.36150  0.83676  Biso   1.000  O
  O12      1.0000 0.02810  0.16820  0.83917  Biso   1.000  O
  O13      1.0000 0.06120  0.92660  0.74332  Biso   1.000  O
  O14      1.0000 0.20110  0.60920  0.73826  Biso   1.000  O
  O15      1.0000 0.32910  0.86170  0.71620  Biso   1.000  O
  O16      1.0000 0.83940  0.63850  0.33676  Biso   1.000  O
  O17      1.0000 0.97190  0.83180  0.33917  Biso   1.000  O
  O18      1.0000 0.93880  0.07340  0.24332  Biso   1.000  O
  O19      1.0000 0.79890  0.39080  0.23826  Biso   1.000  O
  O20      1.0000 0.67090  0.13830  0.21620  Biso   1.000  O
