data_image0
_cell_length_a       6.84827
_cell_length_b       21.0561
_cell_length_c       21.0561
_cell_angle_alpha    61.1597
_cell_angle_beta     83.7762
_cell_angle_gamma    96.2238

_symmetry_space_group_name_H-M    P 1
_symmetry_int_tables_number       1

loop_
  _symmetry_equiv_pos_as_xyz
  'x, y, z'

loop_
  _atom_site_label
  _atom_site_occupancy
  _atom_site_fract_x
  _atom_site_fract_y
  _atom_site_fract_z
  _atom_site_thermal_displace_type
  _atom_site_B_iso_or_equiv
  _atom_site_type_symbol
  Mg1      1.0000 0.17828  0.69636  0.61869  Biso   1.000  Mg
  Mg2      1.0000 0.79697  0.61869  0.68495  Biso   1.000  Mg
  Mg3      1.0000 0.48192  0.68495  0.69636  Biso   1.000  Mg
  Mg4      1.0000 0.82172  0.30364  0.38131  Biso   1.000  Mg
  Mg5      1.0000 0.20303  0.38131  0.31505  Biso   1.000  Mg
  Mg6      1.0000 0.51808  0.31505  0.30364  Biso   1.000  Mg
  H1       1.0000 0.26748  0.88574  0.57638  Biso   1.000  H
  H2       1.0000 0.98857  0.90780  0.49824  Biso   1.000  H
  H3       1.0000 0.84701  0.01672  0.44717  Biso   1.000  H
  H4       1.0000 0.84386  0.57638  0.53788  Biso   1.000  H
  H5       1.0000 0.48681  0.49824  0.59396  Biso   1.000  H
  H6       1.0000 0.29418  0.44717  0.53611  Biso   1.000  H
  H7       1.0000 0.38174  0.53788  0.88574  Biso   1.000  H
  H8       1.0000 0.08077  0.59396  0.90780  Biso   1.000  H
  H9       1.0000 0.83029  0.53611  0.01672  Biso   1.000  H
  H10      1.0000 0.73252  0.11426  0.42362  Biso   1.000  H
  H11      1.0000 0.01143  0.09220  0.50176  Biso   1.000  H
  H12      1.0000 0.15299  0.98328  0.55283  Biso   1.000  H
  H13      1.0000 0.15614  0.42362  0.46212  Biso   1.000  H
  H14      1.0000 0.51319  0.50176  0.40604  Biso   1.000  H
  H15      1.0000 0.70582  0.55283  0.46389  Biso   1.000  H
  H16      1.0000 0.61826  0.46212  0.11426  Biso   1.000  H
  H17      1.0000 0.91923  0.40604  0.09220  Biso   1.000  H
  H18      1.0000 0.16971  0.46389  0.98328  Biso   1.000  H
  C1       1.0000 0.81412  0.75851  0.60929  Biso   1.000  C
  C2       1.0000 0.71237  0.82360  0.57898  Biso   1.000  C
  C3       1.0000 0.50196  0.81878  0.59693  Biso   1.000  C
  C4       1.0000 0.42582  0.89309  0.55853  Biso   1.000  C
  C5       1.0000 0.54282  0.96441  0.50976  Biso   1.000  C
  C6       1.0000 0.74653  0.96622  0.48778  Biso   1.000  C
  C7       1.0000 0.83005  0.90236  0.51734  Biso   1.000  C
  C8       1.0000 0.42341  0.60929  0.63220  Biso   1.000  C
  C9       1.0000 0.29135  0.57898  0.59742  Biso   1.000  C
  C10      1.0000 0.09889  0.59693  0.58429  Biso   1.000  C
  C11      1.0000 0.98435  0.55853  0.54838  Biso   1.000  C
  C12      1.0000 0.05258  0.50976  0.52583  Biso   1.000  C
  C13      1.0000 0.23431  0.48778  0.54600  Biso   1.000  C
  C14      1.0000 0.34739  0.51734  0.58030  Biso   1.000  C
  C15      1.0000 0.05561  0.63220  0.75851  Biso   1.000  C
  C16      1.0000 0.88877  0.59742  0.82360  Biso   1.000  C
  C17      1.0000 0.68318  0.58429  0.81878  Biso   1.000  C
  C18      1.0000 0.53273  0.54838  0.89309  Biso   1.000  C
  C19      1.0000 0.57841  0.52583  0.96441  Biso   1.000  C
  C20      1.0000 0.78031  0.54600  0.96622  Biso   1.000  C
  C21      1.0000 0.92769  0.58030  0.90236  Biso   1.000  C
  C22      1.0000 0.18588  0.24149  0.39071  Biso   1.000  C
  C23      1.0000 0.28763  0.17640  0.42102  Biso   1.000  C
  C24      1.0000 0.49804  0.18122  0.40307  Biso   1.000  C
  C25      1.0000 0.57418  0.10691  0.44147  Biso   1.000  C
  C26      1.0000 0.45718  0.03559  0.49024  Biso   1.000  C
  C27      1.0000 0.25347  0.03378  0.51222  Biso   1.000  C
  C28      1.0000 0.16995  0.09764  0.48266  Biso   1.000  C
  C29      1.0000 0.57659  0.39071  0.36780  Biso   1.000  C
  C30      1.0000 0.70865  0.42102  0.40258  Biso   1.000  C
  C31      1.0000 0.90111  0.40307  0.41571  Biso   1.000  C
  C32      1.0000 0.01565  0.44147  0.45162  Biso   1.000  C
  C33      1.0000 0.94742  0.49024  0.47417  Biso   1.000  C
  C34      1.0000 0.76569  0.51222  0.45400  Biso   1.000  C
  C35      1.0000 0.65261  0.48266  0.41970  Biso   1.000  C
  C36      1.0000 0.94439  0.36780  0.24149  Biso   1.000  C
  C37      1.0000 0.11123  0.40258  0.17640  Biso   1.000  C
  C38      1.0000 0.31682  0.41571  0.18122  Biso   1.000  C
  C39      1.0000 0.46727  0.45162  0.10691  Biso   1.000  C
  C40      1.0000 0.42159  0.47417  0.03559  Biso   1.000  C
  C41      1.0000 0.21969  0.45400  0.03378  Biso   1.000  C
  C42      1.0000 0.07231  0.41970  0.09764  Biso   1.000  C
  O1       1.0000 0.00576  0.76905  0.58929  Biso   1.000  O
  O2       1.0000 0.71634  0.69405  0.65283  Biso   1.000  O
  O3       1.0000 0.36743  0.75296  0.64787  Biso   1.000  O
  O4       1.0000 0.30428  0.73574  0.51914  Biso   1.000  O
  O5       1.0000 0.43297  0.81764  0.47537  Biso   1.000  O
  O6       1.0000 0.59505  0.58929  0.64166  Biso   1.000  O
  O7       1.0000 0.36917  0.65283  0.65312  Biso   1.000  O
  O8       1.0000 0.01530  0.64787  0.59917  Biso   1.000  O
  O9       1.0000 0.82342  0.51914  0.74512  Biso   1.000  O
  O10      1.0000 0.90834  0.47537  0.70699  Biso   1.000  O
  O11      1.0000 0.23671  0.64166  0.76905  Biso   1.000  O
  O12      1.0000 0.02229  0.65312  0.69405  Biso   1.000  O
  O13      1.0000 0.61447  0.59917  0.75296  Biso   1.000  O
  O14      1.0000 0.56854  0.74512  0.73574  Biso   1.000  O
  O15      1.0000 0.61533  0.70699  0.81764  Biso   1.000  O
  O16      1.0000 0.99424  0.23095  0.41071  Biso   1.000  O
  O17      1.0000 0.28366  0.30595  0.34717  Biso   1.000  O
  O18      1.0000 0.63257  0.24704  0.35213  Biso   1.000  O
  O19      1.0000 0.69572  0.26426  0.48086  Biso   1.000  O
  O20      1.0000 0.56703  0.18236  0.52463  Biso   1.000  O
  O21      1.0000 0.40495  0.41071  0.35834  Biso   1.000  O
  O22      1.0000 0.63083  0.34717  0.34688  Biso   1.000  O
  O23      1.0000 0.98470  0.35213  0.40083  Biso   1.000  O
  O24      1.0000 0.17658  0.48086  0.25488  Biso   1.000  O
  O25      1.0000 0.09166  0.52463  0.29301  Biso   1.000  O
  O26      1.0000 0.76329  0.35834  0.23095  Biso   1.000  O
  O27      1.0000 0.97771  0.34688  0.30595  Biso   1.000  O
  O28      1.0000 0.38553  0.40083  0.24704  Biso   1.000  O
  O29      1.0000 0.43146  0.25488  0.26426  Biso   1.000  O
  O30      1.0000 0.38467  0.29301  0.18236  Biso   1.000  O
