data_image0
_cell_length_a       9.8321
_cell_length_b       11.2539
_cell_length_c       14.4225
_cell_angle_alpha    91.193
_cell_angle_beta     90
_cell_angle_gamma    90

_symmetry_space_group_name_H-M    P 1
_symmetry_int_tables_number       1

loop_
  _symmetry_equiv_pos_as_xyz
  'x, y, z'

loop_
  _atom_site_label
  _atom_site_occupancy
  _atom_site_fract_x
  _atom_site_fract_y
  _atom_site_fract_z
  _atom_site_thermal_displace_type
  _atom_site_B_iso_or_equiv
  _atom_site_type_symbol
  Co1      1.0000 0.42056  0.74486  0.36693  Biso   1.000  Co
  Co2      1.0000 0.11028  0.74021  0.31090  Biso   1.000  Co
  Co3      1.0000 0.92056  0.75514  0.13307  Biso   1.000  Co
  Co4      1.0000 0.61028  0.75979  0.18910  Biso   1.000  Co
  Co5      1.0000 0.57944  0.25514  0.63307  Biso   1.000  Co
  Co6      1.0000 0.88972  0.25979  0.68910  Biso   1.000  Co
  Co7      1.0000 0.07944  0.24486  0.86693  Biso   1.000  Co
  Co8      1.0000 0.38972  0.24021  0.81090  Biso   1.000  Co
  Co9      1.0000 0.50000  0.00000  0.50000  Biso   1.000  Co
  Co10     1.0000 0.00000  0.50000  0.00000  Biso   1.000  Co
  Co11     1.0000 0.50000  0.50000  0.50000  Biso   1.000  Co
  Co12     1.0000 0.00000  0.00000  0.00000  Biso   1.000  Co
  H1       1.0000 0.75800  0.86100  0.36900  Biso   1.000  H
  H2       1.0000 0.03800  0.47500  0.26100  Biso   1.000  H
  H3       1.0000 0.87900  0.05500  0.53600  Biso   1.000  H
  H4       1.0000 0.21200  0.50900  0.49100  Biso   1.000  H
  H5       1.0000 0.34200  0.20100  0.42900  Biso   1.000  H
  H6       1.0000 0.69800  0.51600  0.26700  Biso   1.000  H
  H7       1.0000 0.25800  0.63900  0.13100  Biso   1.000  H
  H8       1.0000 0.53800  0.02500  0.23900  Biso   1.000  H
  H9       1.0000 0.37900  0.44500  0.96400  Biso   1.000  H
  H10      1.0000 0.71200  0.99100  0.00900  Biso   1.000  H
  H11      1.0000 0.84200  0.29900  0.07100  Biso   1.000  H
  H12      1.0000 0.19800  0.98400  0.23300  Biso   1.000  H
  H13      1.0000 0.24200  0.13900  0.63100  Biso   1.000  H
  H14      1.0000 0.96200  0.52500  0.73900  Biso   1.000  H
  H15      1.0000 0.12100  0.94500  0.46400  Biso   1.000  H
  H16      1.0000 0.78800  0.49100  0.50900  Biso   1.000  H
  H17      1.0000 0.65800  0.79900  0.57100  Biso   1.000  H
  H18      1.0000 0.30200  0.48400  0.73300  Biso   1.000  H
  H19      1.0000 0.74200  0.36100  0.86900  Biso   1.000  H
  H20      1.0000 0.46200  0.97500  0.76100  Biso   1.000  H
  H21      1.0000 0.62100  0.55500  0.03600  Biso   1.000  H
  H22      1.0000 0.28800  0.00900  0.99100  Biso   1.000  H
  H23      1.0000 0.15800  0.70100  0.92900  Biso   1.000  H
  H24      1.0000 0.80200  0.01600  0.76700  Biso   1.000  H
  C1       1.0000 0.82840  0.83080  0.33010  Biso   1.000  C
  C2       1.0000 0.01350  0.51700  0.21200  Biso   1.000  C
  C3       1.0000 0.78810  0.07580  0.54720  Biso   1.000  C
  C4       1.0000 0.62860  0.54480  0.31260  Biso   1.000  C
  C5       1.0000 0.39310  0.24350  0.46990  Biso   1.000  C
  C6       1.0000 0.22120  0.57200  0.45050  Biso   1.000  C
  C7       1.0000 0.32840  0.66920  0.16990  Biso   1.000  C
  C8       1.0000 0.51350  0.98300  0.28800  Biso   1.000  C
  C9       1.0000 0.28810  0.42420  0.95280  Biso   1.000  C
  C10      1.0000 0.12860  0.95520  0.18740  Biso   1.000  C
  C11      1.0000 0.89310  0.25650  0.03010  Biso   1.000  C
  C12      1.0000 0.72120  0.92800  0.04950  Biso   1.000  C
  C13      1.0000 0.17160  0.16920  0.66990  Biso   1.000  C
  C14      1.0000 0.98650  0.48300  0.78800  Biso   1.000  C
  C15      1.0000 0.21190  0.92420  0.45280  Biso   1.000  C
  C16      1.0000 0.37140  0.45520  0.68740  Biso   1.000  C
  C17      1.0000 0.60690  0.75650  0.53010  Biso   1.000  C
  C18      1.0000 0.77880  0.42800  0.54950  Biso   1.000  C
  C19      1.0000 0.67160  0.33080  0.83010  Biso   1.000  C
  C20      1.0000 0.48650  0.01700  0.71200  Biso   1.000  C
  C21      1.0000 0.71190  0.57580  0.04720  Biso   1.000  C
  C22      1.0000 0.87140  0.04480  0.81260  Biso   1.000  C
  C23      1.0000 0.10690  0.74350  0.96990  Biso   1.000  C
  C24      1.0000 0.27880  0.07200  0.95050  Biso   1.000  C
  O1       1.0000 0.80017  0.80867  0.24547  Biso   1.000  O
  O2       1.0000 0.93970  0.81617  0.36827  Biso   1.000  O
  O3       1.0000 0.00485  0.62874  0.21954  Biso   1.000  O
  O4       1.0000 0.99560  0.45697  0.14047  Biso   1.000  O
  O5       1.0000 0.24287  0.84700  0.39150  Biso   1.000  O
  O6       1.0000 0.70890  0.01782  0.49772  Biso   1.000  O
  O7       1.0000 0.58356  0.64968  0.30478  Biso   1.000  O
  O8       1.0000 0.60430  0.47667  0.37617  Biso   1.000  O
  O9       1.0000 0.47260  0.18453  0.52343  Biso   1.000  O
  O10      1.0000 0.38470  0.35115  0.46665  Biso   1.000  O
  O11      1.0000 0.34520  0.60274  0.43994  Biso   1.000  O
  O12      1.0000 0.12208  0.61331  0.40961  Biso   1.000  O
  O13      1.0000 0.30017  0.69133  0.25453  Biso   1.000  O
  O14      1.0000 0.43970  0.68383  0.13173  Biso   1.000  O
  O15      1.0000 0.50485  0.87126  0.28046  Biso   1.000  O
  O16      1.0000 0.49560  0.04303  0.35953  Biso   1.000  O
  O17      1.0000 0.74287  0.65300  0.10850  Biso   1.000  O
  O18      1.0000 0.20890  0.48218  0.00228  Biso   1.000  O
  O19      1.0000 0.08356  0.85032  0.19522  Biso   1.000  O
  O20      1.0000 0.10430  0.02333  0.12383  Biso   1.000  O
  O21      1.0000 0.97260  0.31547  0.97657  Biso   1.000  O
  O22      1.0000 0.88470  0.14885  0.03335  Biso   1.000  O
  O23      1.0000 0.84520  0.89726  0.06006  Biso   1.000  O
  O24      1.0000 0.62208  0.88669  0.09039  Biso   1.000  O
  O25      1.0000 0.19983  0.19133  0.75453  Biso   1.000  O
  O26      1.0000 0.06030  0.18383  0.63173  Biso   1.000  O
  O27      1.0000 0.99515  0.37126  0.78046  Biso   1.000  O
  O28      1.0000 0.00440  0.54303  0.85953  Biso   1.000  O
  O29      1.0000 0.75713  0.15300  0.60850  Biso   1.000  O
  O30      1.0000 0.29110  0.98218  0.50228  Biso   1.000  O
  O31      1.0000 0.41644  0.35032  0.69522  Biso   1.000  O
  O32      1.0000 0.39570  0.52333  0.62383  Biso   1.000  O
  O33      1.0000 0.52740  0.81547  0.47657  Biso   1.000  O
  O34      1.0000 0.61530  0.64885  0.53335  Biso   1.000  O
  O35      1.0000 0.65480  0.39726  0.56006  Biso   1.000  O
  O36      1.0000 0.87792  0.38669  0.59039  Biso   1.000  O
  O37      1.0000 0.69983  0.30867  0.74547  Biso   1.000  O
  O38      1.0000 0.56030  0.31617  0.86827  Biso   1.000  O
  O39      1.0000 0.49515  0.12874  0.71954  Biso   1.000  O
  O40      1.0000 0.50440  0.95697  0.64047  Biso   1.000  O
  O41      1.0000 0.25713  0.34700  0.89150  Biso   1.000  O
  O42      1.0000 0.79110  0.51782  0.99772  Biso   1.000  O
  O43      1.0000 0.91644  0.14968  0.80478  Biso   1.000  O
  O44      1.0000 0.89570  0.97667  0.87617  Biso   1.000  O
  O45      1.0000 0.02740  0.68453  0.02343  Biso   1.000  O
  O46      1.0000 0.11530  0.85115  0.96665  Biso   1.000  O
  O47      1.0000 0.15480  0.10274  0.93994  Biso   1.000  O
  O48      1.0000 0.37792  0.11331  0.90961  Biso   1.000  O
