data_image0
_cell_length_a       9.8119
_cell_length_b       11.247
_cell_length_c       14.4139
_cell_angle_alpha    91.1553
_cell_angle_beta     90
_cell_angle_gamma    90

_symmetry_space_group_name_H-M    P 1
_symmetry_int_tables_number       1

loop_
  _symmetry_equiv_pos_as_xyz
  'x, y, z'

loop_
  _atom_site_label
  _atom_site_occupancy
  _atom_site_fract_x
  _atom_site_fract_y
  _atom_site_fract_z
  _atom_site_thermal_displace_type
  _atom_site_B_iso_or_equiv
  _atom_site_type_symbol
  Co1      1.0000 0.92027  0.75511  0.13304  Biso   1.000  Co
  Co2      1.0000 0.89038  0.25978  0.68886  Biso   1.000  Co
  Co3      1.0000 0.42027  0.74489  0.36696  Biso   1.000  Co
  Co4      1.0000 0.39038  0.24022  0.81114  Biso   1.000  Co
  Co5      1.0000 0.07973  0.24489  0.86696  Biso   1.000  Co
  Co6      1.0000 0.10962  0.74022  0.31114  Biso   1.000  Co
  Co7      1.0000 0.57973  0.25511  0.63304  Biso   1.000  Co
  Co8      1.0000 0.60962  0.75978  0.18886  Biso   1.000  Co
  Co9      1.0000 0.00000  0.50000  0.00000  Biso   1.000  Co
  Co10     1.0000 0.50000  0.00000  0.50000  Biso   1.000  Co
  Co11     1.0000 0.00000  0.00000  0.00000  Biso   1.000  Co
  Co12     1.0000 0.50000  0.50000  0.50000  Biso   1.000  Co
  H1       1.0000 0.75600  0.86500  0.36800  Biso   1.000  H
  H2       1.0000 0.03500  0.47700  0.26600  Biso   1.000  H
  H3       1.0000 0.61700  0.55500  0.03800  Biso   1.000  H
  H4       1.0000 0.70500  0.98900  0.00700  Biso   1.000  H
  H5       1.0000 0.16100  0.69500  0.92900  Biso   1.000  H
  H6       1.0000 0.19300  0.98800  0.23800  Biso   1.000  H
  H7       1.0000 0.25600  0.63500  0.13200  Biso   1.000  H
  H8       1.0000 0.53500  0.02300  0.23400  Biso   1.000  H
  H9       1.0000 0.11700  0.94500  0.46200  Biso   1.000  H
  H10      1.0000 0.20500  0.51100  0.49300  Biso   1.000  H
  H11      1.0000 0.66100  0.80500  0.57100  Biso   1.000  H
  H12      1.0000 0.69300  0.51200  0.26200  Biso   1.000  H
  H13      1.0000 0.24400  0.13500  0.63200  Biso   1.000  H
  H14      1.0000 0.96500  0.52300  0.73400  Biso   1.000  H
  H15      1.0000 0.38300  0.44500  0.96200  Biso   1.000  H
  H16      1.0000 0.29500  0.01100  0.99300  Biso   1.000  H
  H17      1.0000 0.83900  0.30500  0.07100  Biso   1.000  H
  H18      1.0000 0.80700  0.01200  0.76200  Biso   1.000  H
  H19      1.0000 0.74400  0.36500  0.86800  Biso   1.000  H
  H20      1.0000 0.46500  0.97700  0.76600  Biso   1.000  H
  H21      1.0000 0.88300  0.05500  0.53800  Biso   1.000  H
  H22      1.0000 0.79500  0.48900  0.50700  Biso   1.000  H
  H23      1.0000 0.33900  0.19500  0.42900  Biso   1.000  H
  H24      1.0000 0.30700  0.48800  0.73800  Biso   1.000  H
  C1       1.0000 0.82690  0.83160  0.33010  Biso   1.000  C
  C2       1.0000 0.01210  0.51620  0.21240  Biso   1.000  C
  C3       1.0000 0.71070  0.57610  0.04650  Biso   1.000  C
  C4       1.0000 0.12890  0.95510  0.18770  Biso   1.000  C
  C5       1.0000 0.10790  0.74300  0.96990  Biso   1.000  C
  C6       1.0000 0.72120  0.92780  0.04890  Biso   1.000  C
  C7       1.0000 0.32690  0.66840  0.16990  Biso   1.000  C
  C8       1.0000 0.51210  0.98380  0.28760  Biso   1.000  C
  C9       1.0000 0.21070  0.92390  0.45350  Biso   1.000  C
  C10      1.0000 0.62890  0.54490  0.31230  Biso   1.000  C
  C11      1.0000 0.60790  0.75700  0.53010  Biso   1.000  C
  C12      1.0000 0.22120  0.57220  0.45110  Biso   1.000  C
  C13      1.0000 0.17310  0.16840  0.66990  Biso   1.000  C
  C14      1.0000 0.98790  0.48380  0.78760  Biso   1.000  C
  C15      1.0000 0.28930  0.42390  0.95350  Biso   1.000  C
  C16      1.0000 0.87110  0.04490  0.81230  Biso   1.000  C
  C17      1.0000 0.89210  0.25700  0.03010  Biso   1.000  C
  C18      1.0000 0.27880  0.07220  0.95110  Biso   1.000  C
  C19      1.0000 0.67310  0.33160  0.83010  Biso   1.000  C
  C20      1.0000 0.48790  0.01620  0.71240  Biso   1.000  C
  C21      1.0000 0.78930  0.07610  0.54650  Biso   1.000  C
  C22      1.0000 0.37110  0.45510  0.68770  Biso   1.000  C
  C23      1.0000 0.39210  0.24300  0.46990  Biso   1.000  C
  C24      1.0000 0.77880  0.42780  0.54890  Biso   1.000  C
  O1       1.0000 0.79902  0.80929  0.24499  Biso   1.000  O
  O2       1.0000 0.93930  0.81690  0.36810  Biso   1.000  O
  O3       1.0000 0.00394  0.62861  0.21981  Biso   1.000  O
  O4       1.0000 0.99470  0.45680  0.14060  Biso   1.000  O
  O5       1.0000 0.74220  0.65290  0.10840  Biso   1.000  O
  O6       1.0000 0.79070  0.51789  0.99709  Biso   1.000  O
  O7       1.0000 0.08370  0.85011  0.19531  Biso   1.000  O
  O8       1.0000 0.10420  0.02397  0.12417  Biso   1.000  O
  O9       1.0000 0.02770  0.68444  0.02344  Biso   1.000  O
  O10      1.0000 0.11640  0.85140  0.96670  Biso   1.000  O
  O11      1.0000 0.84500  0.89708  0.05988  Biso   1.000  O
  O12      1.0000 0.62090  0.88671  0.08991  Biso   1.000  O
  O13      1.0000 0.29902  0.69071  0.25501  Biso   1.000  O
  O14      1.0000 0.43930  0.68310  0.13190  Biso   1.000  O
  O15      1.0000 0.50394  0.87139  0.28019  Biso   1.000  O
  O16      1.0000 0.49470  0.04320  0.35940  Biso   1.000  O
  O17      1.0000 0.24220  0.84710  0.39160  Biso   1.000  O
  O18      1.0000 0.29070  0.98211  0.50291  Biso   1.000  O
  O19      1.0000 0.58370  0.64989  0.30469  Biso   1.000  O
  O20      1.0000 0.60420  0.47603  0.37583  Biso   1.000  O
  O21      1.0000 0.52770  0.81556  0.47656  Biso   1.000  O
  O22      1.0000 0.61640  0.64860  0.53330  Biso   1.000  O
  O23      1.0000 0.34500  0.60292  0.44012  Biso   1.000  O
  O24      1.0000 0.12090  0.61329  0.41009  Biso   1.000  O
  O25      1.0000 0.20098  0.19071  0.75501  Biso   1.000  O
  O26      1.0000 0.06070  0.18310  0.63190  Biso   1.000  O
  O27      1.0000 0.99606  0.37139  0.78019  Biso   1.000  O
  O28      1.0000 0.00530  0.54320  0.85940  Biso   1.000  O
  O29      1.0000 0.25780  0.34710  0.89160  Biso   1.000  O
  O30      1.0000 0.20930  0.48211  0.00291  Biso   1.000  O
  O31      1.0000 0.91630  0.14989  0.80469  Biso   1.000  O
  O32      1.0000 0.89580  0.97603  0.87583  Biso   1.000  O
  O33      1.0000 0.97230  0.31556  0.97656  Biso   1.000  O
  O34      1.0000 0.88360  0.14860  0.03330  Biso   1.000  O
  O35      1.0000 0.15500  0.10292  0.94012  Biso   1.000  O
  O36      1.0000 0.37910  0.11329  0.91009  Biso   1.000  O
  O37      1.0000 0.70098  0.30929  0.74499  Biso   1.000  O
  O38      1.0000 0.56070  0.31690  0.86810  Biso   1.000  O
  O39      1.0000 0.49606  0.12861  0.71981  Biso   1.000  O
  O40      1.0000 0.50530  0.95680  0.64060  Biso   1.000  O
  O41      1.0000 0.75780  0.15290  0.60840  Biso   1.000  O
  O42      1.0000 0.70930  0.01789  0.49709  Biso   1.000  O
  O43      1.0000 0.41630  0.35011  0.69531  Biso   1.000  O
  O44      1.0000 0.39580  0.52397  0.62417  Biso   1.000  O
  O45      1.0000 0.47230  0.18444  0.52344  Biso   1.000  O
  O46      1.0000 0.38360  0.35140  0.46670  Biso   1.000  O
  O47      1.0000 0.65500  0.39708  0.55988  Biso   1.000  O
  O48      1.0000 0.87910  0.38671  0.58991  Biso   1.000  O
