data_image0
_cell_length_a       6.47386
_cell_length_b       26.5533
_cell_length_c       26.5533
_cell_angle_alpha    60.6533
_cell_angle_beta     85.3385
_cell_angle_gamma    94.6615

_symmetry_space_group_name_H-M    P 1
_symmetry_int_tables_number       1

loop_
  _symmetry_equiv_pos_as_xyz
  'x, y, z'

loop_
  _atom_site_label
  _atom_site_occupancy
  _atom_site_fract_x
  _atom_site_fract_y
  _atom_site_fract_z
  _atom_site_thermal_displace_type
  _atom_site_B_iso_or_equiv
  _atom_site_type_symbol
  Mg1      1.0000 0.91450  0.69876  0.62373  Biso   1.000  Mg
  Mg2      1.0000 0.53823  0.62373  0.67751  Biso   1.000  Mg
  Mg3      1.0000 0.21574  0.67751  0.69876  Biso   1.000  Mg
  Mg4      1.0000 0.08550  0.30124  0.37627  Biso   1.000  Mg
  Mg5      1.0000 0.46177  0.37627  0.32249  Biso   1.000  Mg
  Mg6      1.0000 0.78426  0.32249  0.30124  Biso   1.000  Mg
  H1       1.0000 0.94096  0.84085  0.60295  Biso   1.000  H
  H2       1.0000 0.69633  0.85963  0.53287  Biso   1.000  H
  H3       1.0000 0.51428  0.94473  0.49467  Biso   1.000  H
  H4       1.0000 0.08277  0.95247  0.60069  Biso   1.000  H
  H5       1.0000 0.03577  0.90710  0.44618  Biso   1.000  H
  H6       1.0000 0.05231  0.97721  0.38294  Biso   1.000  H
  H7       1.0000 0.28397  0.95493  0.41715  Biso   1.000  H
  H8       1.0000 0.54391  0.60295  0.55620  Biso   1.000  H
  H9       1.0000 0.22920  0.53287  0.60750  Biso   1.000  H
  H10      1.0000 0.00895  0.49467  0.56060  Biso   1.000  H
  H11      1.0000 0.68346  0.60069  0.44684  Biso   1.000  H
  H12      1.0000 0.48195  0.44618  0.64672  Biso   1.000  H
  H13      1.0000 0.43525  0.38294  0.63985  Biso   1.000  H
  H14      1.0000 0.70112  0.41715  0.62792  Biso   1.000  H
  H15      1.0000 0.10011  0.55620  0.84085  Biso   1.000  H
  H16      1.0000 0.83670  0.60750  0.85963  Biso   1.000  H
  H17      1.0000 0.56955  0.56060  0.94473  Biso   1.000  H
  H18      1.0000 0.13030  0.44684  0.95247  Biso   1.000  H
  H19      1.0000 0.12867  0.64672  0.90710  Biso   1.000  H
  H20      1.0000 0.07510  0.63985  0.97721  Biso   1.000  H
  H21      1.0000 0.32904  0.62792  0.95493  Biso   1.000  H
  H22      1.0000 0.05904  0.15915  0.39705  Biso   1.000  H
  H23      1.0000 0.30367  0.14037  0.46713  Biso   1.000  H
  H24      1.0000 0.48572  0.05527  0.50533  Biso   1.000  H
  H25      1.0000 0.91723  0.04753  0.39931  Biso   1.000  H
  H26      1.0000 0.96423  0.09290  0.55382  Biso   1.000  H
  H27      1.0000 0.94769  0.02279  0.61706  Biso   1.000  H
  H28      1.0000 0.71603  0.04507  0.58285  Biso   1.000  H
  H29      1.0000 0.45609  0.39705  0.44380  Biso   1.000  H
  H30      1.0000 0.77080  0.46713  0.39250  Biso   1.000  H
  H31      1.0000 0.99105  0.50533  0.43940  Biso   1.000  H
  H32      1.0000 0.31654  0.39931  0.55316  Biso   1.000  H
  H33      1.0000 0.51805  0.55382  0.35328  Biso   1.000  H
  H34      1.0000 0.56475  0.61706  0.36015  Biso   1.000  H
  H35      1.0000 0.29888  0.58285  0.37208  Biso   1.000  H
  H36      1.0000 0.89989  0.44380  0.15915  Biso   1.000  H
  H37      1.0000 0.16330  0.39250  0.14037  Biso   1.000  H
  H38      1.0000 0.43045  0.43940  0.05527  Biso   1.000  H
  H39      1.0000 0.86970  0.55316  0.04753  Biso   1.000  H
  H40      1.0000 0.87133  0.35328  0.09290  Biso   1.000  H
  H41      1.0000 0.92490  0.36015  0.02279  Biso   1.000  H
  H42      1.0000 0.67096  0.37208  0.04507  Biso   1.000  H
  C1       1.0000 0.54437  0.74894  0.61313  Biso   1.000  C
  C2       1.0000 0.42344  0.79920  0.59118  Biso   1.000  C
  C3       1.0000 0.20530  0.79475  0.60941  Biso   1.000  C
  C4       1.0000 0.10527  0.84455  0.58718  Biso   1.000  C
  C5       1.0000 0.21355  0.89853  0.54528  Biso   1.000  C
  C6       1.0000 0.42725  0.90308  0.52655  Biso   1.000  C
  C7       1.0000 0.53079  0.85425  0.54897  Biso   1.000  C
  C8       1.0000 0.10351  0.95036  0.52142  Biso   1.000  C
  C9       1.0000 0.05682  0.97722  0.46404  Biso   1.000  C
  C10      1.0000 0.04551  0.97325  0.55679  Biso   1.000  C
  C11      1.0000 0.11022  0.95279  0.42533  Biso   1.000  C
  C12      1.0000 0.15750  0.61313  0.63793  Biso   1.000  C
  C13      1.0000 0.01462  0.59118  0.60962  Biso   1.000  C
  C14      1.0000 0.81471  0.60941  0.59584  Biso   1.000  C
  C15      1.0000 0.69245  0.58718  0.56827  Biso   1.000  C
  C16      1.0000 0.75883  0.54528  0.55619  Biso   1.000  C
  C17      1.0000 0.95380  0.52655  0.57037  Biso   1.000  C
  C18      1.0000 0.07976  0.54897  0.59678  Biso   1.000  C
  C19      1.0000 0.62493  0.52142  0.52822  Biso   1.000  C
  C20      1.0000 0.52086  0.46404  0.55874  Biso   1.000  C
  C21      1.0000 0.60230  0.55679  0.46996  Biso   1.000  C
  C22      1.0000 0.53555  0.42533  0.62188  Biso   1.000  C
  C23      1.0000 0.79543  0.63793  0.74894  Biso   1.000  C
  C24      1.0000 0.62424  0.60962  0.79920  Biso   1.000  C
  C25      1.0000 0.41055  0.59584  0.79475  Biso   1.000  C
  C26      1.0000 0.26072  0.56827  0.84455  Biso   1.000  C
  C27      1.0000 0.31502  0.55619  0.89853  Biso   1.000  C
  C28      1.0000 0.52417  0.57037  0.90308  Biso   1.000  C
  C29      1.0000 0.67654  0.59678  0.85425  Biso   1.000  C
  C30      1.0000 0.15315  0.52822  0.95036  Biso   1.000  C
  C31      1.0000 0.07960  0.55874  0.97722  Biso   1.000  C
  C32      1.0000 0.07226  0.46996  0.97325  Biso   1.000  C
  C33      1.0000 0.15743  0.62188  0.95279  Biso   1.000  C
  C34      1.0000 0.45563  0.25106  0.38687  Biso   1.000  C
  C35      1.0000 0.57656  0.20080  0.40882  Biso   1.000  C
  C36      1.0000 0.79470  0.20525  0.39059  Biso   1.000  C
  C37      1.0000 0.89473  0.15545  0.41282  Biso   1.000  C
  C38      1.0000 0.78645  0.10147  0.45472  Biso   1.000  C
  C39      1.0000 0.57275  0.09692  0.47345  Biso   1.000  C
  C40      1.0000 0.46921  0.14575  0.45103  Biso   1.000  C
  C41      1.0000 0.89649  0.04964  0.47858  Biso   1.000  C
  C42      1.0000 0.94318  0.02278  0.53596  Biso   1.000  C
  C43      1.0000 0.95449  0.02675  0.44321  Biso   1.000  C
  C44      1.0000 0.88978  0.04721  0.57467  Biso   1.000  C
  C45      1.0000 0.84250  0.38687  0.36207  Biso   1.000  C
  C46      1.0000 0.98538  0.40882  0.39038  Biso   1.000  C
  C47      1.0000 0.18529  0.39059  0.40416  Biso   1.000  C
  C48      1.0000 0.30755  0.41282  0.43173  Biso   1.000  C
  C49      1.0000 0.24117  0.45472  0.44381  Biso   1.000  C
  C50      1.0000 0.04620  0.47345  0.42963  Biso   1.000  C
  C51      1.0000 0.92024  0.45103  0.40322  Biso   1.000  C
  C52      1.0000 0.37507  0.47858  0.47178  Biso   1.000  C
  C53      1.0000 0.47914  0.53596  0.44126  Biso   1.000  C
  C54      1.0000 0.39770  0.44321  0.53004  Biso   1.000  C
  C55      1.0000 0.46445  0.57467  0.37812  Biso   1.000  C
  C56      1.0000 0.20457  0.36207  0.25106  Biso   1.000  C
  C57      1.0000 0.37576  0.39038  0.20080  Biso   1.000  C
  C58      1.0000 0.58945  0.40416  0.20525  Biso   1.000  C
  C59      1.0000 0.73928  0.43173  0.15545  Biso   1.000  C
  C60      1.0000 0.68498  0.44381  0.10147  Biso   1.000  C
  C61      1.0000 0.47583  0.42963  0.09692  Biso   1.000  C
  C62      1.0000 0.32346  0.40322  0.14575  Biso   1.000  C
  C63      1.0000 0.84685  0.47178  0.04964  Biso   1.000  C
  C64      1.0000 0.92040  0.44126  0.02278  Biso   1.000  C
  C65      1.0000 0.92774  0.53004  0.02675  Biso   1.000  C
  C66      1.0000 0.84257  0.37812  0.04721  Biso   1.000  C
  O1       1.0000 0.73893  0.75764  0.59399  Biso   1.000  O
  O2       1.0000 0.45949  0.69864  0.65019  Biso   1.000  O
  O3       1.0000 0.08168  0.74336  0.65042  Biso   1.000  O
  O4       1.0000 0.07443  0.72871  0.54859  Biso   1.000  O
  O5       1.0000 0.33292  0.59399  0.64837  Biso   1.000  O
  O6       1.0000 0.10968  0.65019  0.65117  Biso   1.000  O
  O7       1.0000 0.73210  0.65042  0.60622  Biso   1.000  O
  O8       1.0000 0.62302  0.54859  0.72270  Biso   1.000  O
  O9       1.0000 0.98129  0.64837  0.75764  Biso   1.000  O
  O10      1.0000 0.76085  0.65117  0.69864  Biso   1.000  O
  O11      1.0000 0.33832  0.60622  0.74336  Biso   1.000  O
  O12      1.0000 0.34572  0.72270  0.72871  Biso   1.000  O
  O13      1.0000 0.26107  0.24236  0.40601  Biso   1.000  O
  O14      1.0000 0.54051  0.30136  0.34981  Biso   1.000  O
  O15      1.0000 0.91832  0.25664  0.34958  Biso   1.000  O
  O16      1.0000 0.92557  0.27129  0.45141  Biso   1.000  O
  O17      1.0000 0.66708  0.40601  0.35163  Biso   1.000  O
  O18      1.0000 0.89032  0.34981  0.34883  Biso   1.000  O
  O19      1.0000 0.26790  0.34958  0.39378  Biso   1.000  O
  O20      1.0000 0.37698  0.45141  0.27730  Biso   1.000  O
  O21      1.0000 0.01871  0.35163  0.24236  Biso   1.000  O
  O22      1.0000 0.23915  0.34883  0.30136  Biso   1.000  O
  O23      1.0000 0.66168  0.39378  0.25664  Biso   1.000  O
  O24      1.0000 0.65428  0.27730  0.27129  Biso   1.000  O
