data_image0
_cell_length_a       6.46185
_cell_length_b       39.8715
_cell_length_c       39.8715
_cell_angle_alpha    60.2892
_cell_angle_beta     86.9032
_cell_angle_gamma    93.0968

_symmetry_space_group_name_H-M    P 1
_symmetry_int_tables_number       1

loop_
  _symmetry_equiv_pos_as_xyz
  'x, y, z'

loop_
  _atom_site_label
  _atom_site_occupancy
  _atom_site_fract_x
  _atom_site_fract_y
  _atom_site_fract_z
  _atom_site_thermal_displace_type
  _atom_site_B_iso_or_equiv
  _atom_site_type_symbol
  Mg1      1.0000 0.86931  0.63819  0.67290  Biso   1.000  Mg
  Mg2      1.0000 0.54221  0.67290  0.68891  Biso   1.000  Mg
  Mg3      1.0000 0.23112  0.68891  0.63819  Biso   1.000  Mg
  Mg4      1.0000 0.13069  0.36181  0.32710  Biso   1.000  Mg
  Mg5      1.0000 0.45779  0.32710  0.31109  Biso   1.000  Mg
  Mg6      1.0000 0.76888  0.31109  0.36181  Biso   1.000  Mg
  H1       1.0000 0.86297  0.57197  0.72302  Biso   1.000  H
  H2       1.0000 0.86180  0.62552  0.59231  Biso   1.000  H
  H3       1.0000 0.55958  0.57898  0.62401  Biso   1.000  H
  H4       1.0000 0.33636  0.55388  0.59237  Biso   1.000  H
  H5       1.0000 0.93918  0.51362  0.62207  Biso   1.000  H
  H6       1.0000 0.70702  0.59291  0.49055  Biso   1.000  H
  H7       1.0000 0.33474  0.49549  0.56005  Biso   1.000  H
  H8       1.0000 0.89003  0.64933  0.48133  Biso   1.000  H
  H9       1.0000 0.85931  0.65226  0.52482  Biso   1.000  H
  H10      1.0000 0.66113  0.45583  0.58489  Biso   1.000  H
  H11      1.0000 0.87478  0.45549  0.61164  Biso   1.000  H
  H12      1.0000 0.61731  0.46164  0.62673  Biso   1.000  H
  H13      1.0000 0.00525  0.52207  0.45964  Biso   1.000  H
  H14      1.0000 0.99819  0.54945  0.48372  Biso   1.000  H
  H15      1.0000 0.95022  0.57636  0.68424  Biso   1.000  H
  H16      1.0000 0.23787  0.62027  0.36692  Biso   1.000  H
  H17      1.0000 0.15493  0.57888  0.39342  Biso   1.000  H
  H18      1.0000 0.15498  0.55842  0.45852  Biso   1.000  H
  H19      1.0000 0.14761  0.60531  0.43602  Biso   1.000  H
  H20      1.0000 0.58599  0.72302  0.70501  Biso   1.000  H
  H21      1.0000 0.45411  0.59231  0.78217  Biso   1.000  H
  H22      1.0000 0.18359  0.62401  0.79701  Biso   1.000  H
  H23      1.0000 0.92873  0.59237  0.85375  Biso   1.000  H
  H24      1.0000 0.56125  0.62207  0.86431  Biso   1.000  H
  H25      1.0000 0.19757  0.49055  0.91654  Biso   1.000  H
  H26      1.0000 0.89479  0.56005  0.94446  Biso   1.000  H
  H27      1.0000 0.37136  0.48133  0.86934  Biso   1.000  H
  H28      1.0000 0.38413  0.52482  0.82292  Biso   1.000  H
  H29      1.0000 0.24602  0.58489  0.95928  Biso   1.000  H
  H30      1.0000 0.48642  0.61164  0.93287  Biso   1.000  H
  H31      1.0000 0.24404  0.62673  0.91163  Biso   1.000  H
  H32      1.0000 0.46489  0.45964  0.01829  Biso   1.000  H
  H33      1.0000 0.48191  0.48372  0.96683  Biso   1.000  H
  H34      1.0000 0.63446  0.68424  0.73940  Biso   1.000  H
  H35      1.0000 0.60479  0.36692  0.01281  Biso   1.000  H
  H36      1.0000 0.54835  0.39342  0.02770  Biso   1.000  H
  H37      1.0000 0.61350  0.45852  0.98306  Biso   1.000  H
  H38      1.0000 0.58363  0.43602  0.95867  Biso   1.000  H
  H39      1.0000 0.29100  0.70501  0.57197  Biso   1.000  H
  H40      1.0000 0.23628  0.78217  0.62552  Biso   1.000  H
  H41      1.0000 0.98060  0.79701  0.57898  Biso   1.000  H
  H42      1.0000 0.78248  0.85375  0.55388  Biso   1.000  H
  H43      1.0000 0.42556  0.86431  0.51362  Biso   1.000  H
  H44      1.0000 0.11411  0.91654  0.59291  Biso   1.000  H
  H45      1.0000 0.83925  0.94446  0.49549  Biso   1.000  H
  H46      1.0000 0.24070  0.86934  0.64933  Biso   1.000  H
  H47      1.0000 0.20705  0.82292  0.65226  Biso   1.000  H
  H48      1.0000 0.20530  0.95928  0.45583  Biso   1.000  H
  H49      1.0000 0.41929  0.93287  0.45549  Biso   1.000  H
  H50      1.0000 0.15567  0.91163  0.46164  Biso   1.000  H
  H51      1.0000 0.48318  0.01829  0.52207  Biso   1.000  H
  H52      1.0000 0.44874  0.96683  0.54945  Biso   1.000  H
  H53      1.0000 0.37386  0.73940  0.57636  Biso   1.000  H
  H54      1.0000 0.61760  0.01281  0.62027  Biso   1.000  H
  H55      1.0000 0.57605  0.02770  0.57888  Biso   1.000  H
  H56      1.0000 0.59656  0.98306  0.55842  Biso   1.000  H
  H57      1.0000 0.54230  0.95867  0.60531  Biso   1.000  H
  H58      1.0000 0.13703  0.42803  0.27698  Biso   1.000  H
  H59      1.0000 0.13820  0.37448  0.40769  Biso   1.000  H
  H60      1.0000 0.44042  0.42102  0.37599  Biso   1.000  H
  H61      1.0000 0.66364  0.44612  0.40763  Biso   1.000  H
  H62      1.0000 0.06082  0.48638  0.37793  Biso   1.000  H
  H63      1.0000 0.29298  0.40709  0.50945  Biso   1.000  H
  H64      1.0000 0.66526  0.50451  0.43995  Biso   1.000  H
  H65      1.0000 0.10997  0.35067  0.51867  Biso   1.000  H
  H66      1.0000 0.14069  0.34774  0.47518  Biso   1.000  H
  H67      1.0000 0.33887  0.54417  0.41511  Biso   1.000  H
  H68      1.0000 0.12522  0.54451  0.38836  Biso   1.000  H
  H69      1.0000 0.38269  0.53836  0.37327  Biso   1.000  H
  H70      1.0000 0.99475  0.47793  0.54036  Biso   1.000  H
  H71      1.0000 0.00181  0.45055  0.51628  Biso   1.000  H
  H72      1.0000 0.04978  0.42364  0.31576  Biso   1.000  H
  H73      1.0000 0.76213  0.37973  0.63308  Biso   1.000  H
  H74      1.0000 0.84507  0.42112  0.60658  Biso   1.000  H
  H75      1.0000 0.84502  0.44158  0.54148  Biso   1.000  H
  H76      1.0000 0.85239  0.39469  0.56398  Biso   1.000  H
  H77      1.0000 0.41401  0.27698  0.29499  Biso   1.000  H
  H78      1.0000 0.54589  0.40769  0.21783  Biso   1.000  H
  H79      1.0000 0.81641  0.37599  0.20299  Biso   1.000  H
  H80      1.0000 0.07127  0.40763  0.14625  Biso   1.000  H
  H81      1.0000 0.43875  0.37793  0.13569  Biso   1.000  H
  H82      1.0000 0.80243  0.50945  0.08346  Biso   1.000  H
  H83      1.0000 0.10521  0.43995  0.05554  Biso   1.000  H
  H84      1.0000 0.62864  0.51867  0.13066  Biso   1.000  H
  H85      1.0000 0.61587  0.47518  0.17708  Biso   1.000  H
  H86      1.0000 0.75398  0.41511  0.04072  Biso   1.000  H
  H87      1.0000 0.51358  0.38836  0.06713  Biso   1.000  H
  H88      1.0000 0.75596  0.37327  0.08837  Biso   1.000  H
  H89      1.0000 0.53511  0.54036  0.98171  Biso   1.000  H
  H90      1.0000 0.51809  0.51628  0.03317  Biso   1.000  H
  H91      1.0000 0.36554  0.31576  0.26060  Biso   1.000  H
  H92      1.0000 0.39521  0.63308  0.98719  Biso   1.000  H
  H93      1.0000 0.45165  0.60658  0.97230  Biso   1.000  H
  H94      1.0000 0.38650  0.54148  0.01694  Biso   1.000  H
  H95      1.0000 0.41637  0.56398  0.04133  Biso   1.000  H
  H96      1.0000 0.70900  0.29499  0.42803  Biso   1.000  H
  H97      1.0000 0.76372  0.21783  0.37448  Biso   1.000  H
  H98      1.0000 0.01940  0.20299  0.42102  Biso   1.000  H
  H99      1.0000 0.21752  0.14625  0.44612  Biso   1.000  H
  H100     1.0000 0.57444  0.13569  0.48638  Biso   1.000  H
  H101     1.0000 0.88589  0.08346  0.40709  Biso   1.000  H
  H102     1.0000 0.16075  0.05554  0.50451  Biso   1.000  H
  H103     1.0000 0.75930  0.13066  0.35067  Biso   1.000  H
  H104     1.0000 0.79295  0.17708  0.34774  Biso   1.000  H
  H105     1.0000 0.79470  0.04072  0.54417  Biso   1.000  H
  H106     1.0000 0.58071  0.06713  0.54451  Biso   1.000  H
  H107     1.0000 0.84433  0.08837  0.53836  Biso   1.000  H
  H108     1.0000 0.51682  0.98171  0.47793  Biso   1.000  H
  H109     1.0000 0.55126  0.03317  0.45055  Biso   1.000  H
  H110     1.0000 0.62614  0.26060  0.42364  Biso   1.000  H
  H111     1.0000 0.38240  0.98719  0.37973  Biso   1.000  H
  H112     1.0000 0.42395  0.97230  0.42112  Biso   1.000  H
  H113     1.0000 0.40344  0.01694  0.44158  Biso   1.000  H
  H114     1.0000 0.45770  0.04133  0.39469  Biso   1.000  H
  C1       1.0000 0.48313  0.63177  0.64620  Biso   1.000  C
  C2       1.0000 0.34089  0.61786  0.62647  Biso   1.000  C
  C3       1.0000 0.13831  0.63010  0.61771  Biso   1.000  C
  C4       1.0000 0.01413  0.61540  0.59932  Biso   1.000  C
  C5       1.0000 0.08266  0.58793  0.59018  Biso   1.000  C
  C6       1.0000 0.28054  0.57522  0.59925  Biso   1.000  C
  C7       1.0000 0.40811  0.58995  0.61707  Biso   1.000  C
  C8       1.0000 0.94492  0.57111  0.57261  Biso   1.000  C
  C9       1.0000 0.87635  0.59391  0.53532  Biso   1.000  C
  C10      1.0000 0.75768  0.57569  0.51932  Biso   1.000  C
  C11      1.0000 0.71156  0.53515  0.53908  Biso   1.000  C
  C12      1.0000 0.77341  0.51258  0.57711  Biso   1.000  C
  C13      1.0000 0.88853  0.53093  0.59330  Biso   1.000  C
  C14      1.0000 0.60567  0.51734  0.51863  Biso   1.000  C
  C15      1.0000 0.40730  0.49734  0.53388  Biso   1.000  C
  C16      1.0000 0.69845  0.52037  0.48398  Biso   1.000  C
  C17      1.0000 0.93685  0.63703  0.51136  Biso   1.000  C
  C18      1.0000 0.72808  0.46903  0.60118  Biso   1.000  C
  C19      1.0000 0.91000  0.54137  0.46523  Biso   1.000  C
  C20      1.0000 0.04618  0.57967  0.43846  Biso   1.000  C
  C21      1.0000 0.13895  0.60593  0.39602  Biso   1.000  C
  C22      1.0000 0.12933  0.64620  0.72203  Biso   1.000  C
  C23      1.0000 0.96736  0.62647  0.75567  Biso   1.000  C
  C24      1.0000 0.75602  0.61771  0.75219  Biso   1.000  C
  C25      1.0000 0.61345  0.59932  0.78528  Biso   1.000  C
  C26      1.0000 0.67284  0.59018  0.82189  Biso   1.000  C
  C27      1.0000 0.87979  0.59925  0.82553  Biso   1.000  C
  C28      1.0000 0.02518  0.61707  0.79298  Biso   1.000  C
  C29      1.0000 0.51753  0.57261  0.85628  Biso   1.000  C
  C30      1.0000 0.41167  0.53532  0.87077  Biso   1.000  C
  C31      1.0000 0.27700  0.51932  0.90499  Biso   1.000  C
  C32      1.0000 0.25064  0.53908  0.92577  Biso   1.000  C
  C33      1.0000 0.35052  0.57711  0.91031  Biso   1.000  C
  C34      1.0000 0.48183  0.59330  0.87577  Biso   1.000  C
  C35      1.0000 0.12430  0.51863  0.96403  Biso   1.000  C
  C36      1.0000 0.94118  0.53388  0.96878  Biso   1.000  C
  C37      1.0000 0.18243  0.48398  0.99565  Biso   1.000  C
  C38      1.0000 0.44821  0.51136  0.85161  Biso   1.000  C
  C39      1.0000 0.32926  0.60118  0.92979  Biso   1.000  C
  C40      1.0000 0.37523  0.46523  0.99340  Biso   1.000  C
  C41      1.0000 0.48464  0.43846  0.98187  Biso   1.000  C
  C42      1.0000 0.53497  0.39602  0.99805  Biso   1.000  C
  C43      1.0000 0.85136  0.72203  0.63177  Biso   1.000  C
  C44      1.0000 0.72303  0.75567  0.61786  Biso   1.000  C
  C45      1.0000 0.50821  0.75219  0.63010  Biso   1.000  C
  C46      1.0000 0.39873  0.78528  0.61540  Biso   1.000  C
  C47      1.0000 0.49473  0.82189  0.58793  Biso   1.000  C
  C48      1.0000 0.70532  0.82553  0.57522  Biso   1.000  C
  C49      1.0000 0.81816  0.79298  0.58995  Biso   1.000  C
  C50      1.0000 0.37381  0.85628  0.57111  Biso   1.000  C
  C51      1.0000 0.28244  0.87077  0.59391  Biso   1.000  C
  C52      1.0000 0.18199  0.90499  0.57569  Biso   1.000  C
  C53      1.0000 0.17641  0.92577  0.53515  Biso   1.000  C
  C54      1.0000 0.26083  0.91031  0.51258  Biso   1.000  C
  C55      1.0000 0.35760  0.87577  0.53093  Biso   1.000  C
  C56      1.0000 0.08833  0.96403  0.51734  Biso   1.000  C
  C57      1.0000 0.90996  0.96878  0.49734  Biso   1.000  C
  C58      1.0000 0.17808  0.99565  0.52037  Biso   1.000  C
  C59      1.0000 0.29982  0.85161  0.63703  Biso   1.000  C
  C60      1.0000 0.25905  0.92979  0.46903  Biso   1.000  C
  C61      1.0000 0.36863  0.99340  0.54137  Biso   1.000  C
  C62      1.0000 0.46651  0.98187  0.57967  Biso   1.000  C
  C63      1.0000 0.53302  0.99805  0.60593  Biso   1.000  C
  C64      1.0000 0.51687  0.36823  0.35380  Biso   1.000  C
  C65      1.0000 0.65911  0.38214  0.37353  Biso   1.000  C
  C66      1.0000 0.86169  0.36990  0.38229  Biso   1.000  C
  C67      1.0000 0.98587  0.38460  0.40068  Biso   1.000  C
  C68      1.0000 0.91734  0.41207  0.40982  Biso   1.000  C
  C69      1.0000 0.71946  0.42478  0.40075  Biso   1.000  C
  C70      1.0000 0.59189  0.41005  0.38293  Biso   1.000  C
  C71      1.0000 0.05508  0.42889  0.42739  Biso   1.000  C
  C72      1.0000 0.12365  0.40609  0.46468  Biso   1.000  C
  C73      1.0000 0.24232  0.42431  0.48068  Biso   1.000  C
  C74      1.0000 0.28844  0.46485  0.46092  Biso   1.000  C
  C75      1.0000 0.22659  0.48742  0.42289  Biso   1.000  C
  C76      1.0000 0.11147  0.46907  0.40670  Biso   1.000  C
  C77      1.0000 0.39433  0.48266  0.48137  Biso   1.000  C
  C78      1.0000 0.59270  0.50266  0.46612  Biso   1.000  C
  C79      1.0000 0.30155  0.47963  0.51602  Biso   1.000  C
  C80      1.0000 0.06315  0.36297  0.48864  Biso   1.000  C
  C81      1.0000 0.27192  0.53097  0.39882  Biso   1.000  C
  C82      1.0000 0.09000  0.45863  0.53477  Biso   1.000  C
  C83      1.0000 0.95382  0.42033  0.56154  Biso   1.000  C
  C84      1.0000 0.86105  0.39407  0.60398  Biso   1.000  C
  C85      1.0000 0.87067  0.35380  0.27797  Biso   1.000  C
  C86      1.0000 0.03264  0.37353  0.24433  Biso   1.000  C
  C87      1.0000 0.24398  0.38229  0.24781  Biso   1.000  C
  C88      1.0000 0.38655  0.40068  0.21472  Biso   1.000  C
  C89      1.0000 0.32716  0.40982  0.17811  Biso   1.000  C
  C90      1.0000 0.12021  0.40075  0.17447  Biso   1.000  C
  C91      1.0000 0.97482  0.38293  0.20702  Biso   1.000  C
  C92      1.0000 0.48247  0.42739  0.14372  Biso   1.000  C
  C93      1.0000 0.58833  0.46468  0.12923  Biso   1.000  C
  C94      1.0000 0.72300  0.48068  0.09501  Biso   1.000  C
  C95      1.0000 0.74936  0.46092  0.07423  Biso   1.000  C
  C96      1.0000 0.64948  0.42289  0.08969  Biso   1.000  C
  C97      1.0000 0.51817  0.40670  0.12423  Biso   1.000  C
  C98      1.0000 0.87570  0.48137  0.03597  Biso   1.000  C
  C99      1.0000 0.05882  0.46612  0.03122  Biso   1.000  C
  C100     1.0000 0.81757  0.51602  0.00435  Biso   1.000  C
  C101     1.0000 0.55179  0.48864  0.14839  Biso   1.000  C
  C102     1.0000 0.67074  0.39882  0.07021  Biso   1.000  C
  C103     1.0000 0.62477  0.53477  0.00660  Biso   1.000  C
  C104     1.0000 0.51536  0.56154  0.01813  Biso   1.000  C
  C105     1.0000 0.46503  0.60398  0.00195  Biso   1.000  C
  C106     1.0000 0.14864  0.27797  0.36823  Biso   1.000  C
  C107     1.0000 0.27697  0.24433  0.38214  Biso   1.000  C
  C108     1.0000 0.49179  0.24781  0.36990  Biso   1.000  C
  C109     1.0000 0.60127  0.21472  0.38460  Biso   1.000  C
  C110     1.0000 0.50527  0.17811  0.41207  Biso   1.000  C
  C111     1.0000 0.29468  0.17447  0.42478  Biso   1.000  C
  C112     1.0000 0.18184  0.20702  0.41005  Biso   1.000  C
  C113     1.0000 0.62619  0.14372  0.42889  Biso   1.000  C
  C114     1.0000 0.71756  0.12923  0.40609  Biso   1.000  C
  C115     1.0000 0.81801  0.09501  0.42431  Biso   1.000  C
  C116     1.0000 0.82359  0.07423  0.46485  Biso   1.000  C
  C117     1.0000 0.73917  0.08969  0.48742  Biso   1.000  C
  C118     1.0000 0.64240  0.12423  0.46907  Biso   1.000  C
  C119     1.0000 0.91167  0.03597  0.48266  Biso   1.000  C
  C120     1.0000 0.09004  0.03122  0.50266  Biso   1.000  C
  C121     1.0000 0.82192  0.00435  0.47963  Biso   1.000  C
  C122     1.0000 0.70018  0.14839  0.36297  Biso   1.000  C
  C123     1.0000 0.74095  0.07021  0.53097  Biso   1.000  C
  C124     1.0000 0.63137  0.00660  0.45863  Biso   1.000  C
  C125     1.0000 0.53349  0.01813  0.42033  Biso   1.000  C
  C126     1.0000 0.46698  0.00195  0.39407  Biso   1.000  C
  O1       1.0000 0.66320  0.61979  0.65195  Biso   1.000  O
  O2       1.0000 0.42913  0.65501  0.65708  Biso   1.000  O
  O3       1.0000 0.05400  0.65749  0.62503  Biso   1.000  O
  O4       1.0000 0.97182  0.58735  0.70138  Biso   1.000  O
  O5       1.0000 0.31515  0.65195  0.72826  Biso   1.000  O
  O6       1.0000 0.08621  0.65708  0.68791  Biso   1.000  O
  O7       1.0000 0.67903  0.62503  0.71748  Biso   1.000  O
  O8       1.0000 0.67320  0.70138  0.71127  Biso   1.000  O
  O9       1.0000 0.04341  0.72826  0.61979  Biso   1.000  O
  O10      1.0000 0.77412  0.68791  0.65501  Biso   1.000  O
  O11      1.0000 0.39651  0.71748  0.65749  Biso   1.000  O
  O12      1.0000 0.38447  0.71127  0.58735  Biso   1.000  O
  O13      1.0000 0.33680  0.38021  0.34805  Biso   1.000  O
  O14      1.0000 0.57087  0.34499  0.34292  Biso   1.000  O
  O15      1.0000 0.94600  0.34251  0.37497  Biso   1.000  O
  O16      1.0000 0.02818  0.41265  0.29862  Biso   1.000  O
  O17      1.0000 0.68485  0.34805  0.27174  Biso   1.000  O
  O18      1.0000 0.91379  0.34292  0.31209  Biso   1.000  O
  O19      1.0000 0.32097  0.37497  0.28252  Biso   1.000  O
  O20      1.0000 0.32680  0.29862  0.28873  Biso   1.000  O
  O21      1.0000 0.95659  0.27174  0.38021  Biso   1.000  O
  O22      1.0000 0.22588  0.31209  0.34499  Biso   1.000  O
  O23      1.0000 0.60349  0.28252  0.34251  Biso   1.000  O
  O24      1.0000 0.61553  0.28873  0.41265  Biso   1.000  O
