data_image0
_cell_length_a       6.81524
_cell_length_b       45.4615
_cell_length_c       45.4615
_cell_angle_alpha    60.2475
_cell_angle_beta     87.1357
_cell_angle_gamma    92.8643

_symmetry_space_group_name_H-M    P 1
_symmetry_int_tables_number       1

loop_
  _symmetry_equiv_pos_as_xyz
  'x, y, z'

loop_
  _atom_site_label
  _atom_site_occupancy
  _atom_site_fract_x
  _atom_site_fract_y
  _atom_site_fract_z
  _atom_site_thermal_displace_type
  _atom_site_B_iso_or_equiv
  _atom_site_type_symbol
  Zn1      1.0000 0.05571  0.36019  0.32532  Biso   1.000  Zn
  Zn2      1.0000 0.98906  0.64156  0.66900  Biso   1.000  Zn
  Zn3      1.0000 0.38103  0.32532  0.31449  Biso   1.000  Zn
  Zn4      1.0000 0.65806  0.66900  0.68944  Biso   1.000  Zn
  Zn5      1.0000 0.69552  0.31449  0.36019  Biso   1.000  Zn
  Zn6      1.0000 0.34750  0.68944  0.64156  Biso   1.000  Zn
  H1       1.0000 0.94364  0.50567  0.50029  Biso   1.000  H
  H2       1.0000 0.13760  0.50019  0.52661  Biso   1.000  H
  H3       1.0000 0.11715  0.54054  0.49028  Biso   1.000  H
  H4       1.0000 0.59270  0.45284  0.42751  Biso   1.000  H
  H5       1.0000 0.55767  0.49254  0.39104  Biso   1.000  H
  H6       1.0000 0.75946  0.48898  0.41562  Biso   1.000  H
  H7       1.0000 0.16615  0.38322  0.49247  Biso   1.000  H
  H8       1.0000 0.20353  0.41995  0.49569  Biso   1.000  H
  H9       1.0000 0.95676  0.40164  0.50018  Biso   1.000  H
  H10      1.0000 0.87132  0.48537  0.33812  Biso   1.000  H
  H11      1.0000 0.11375  0.50602  0.33099  Biso   1.000  H
  H12      1.0000 0.08517  0.46679  0.33187  Biso   1.000  H
  H13      1.0000 0.71065  0.51342  0.44855  Biso   1.000  H
  H14      1.0000 0.94437  0.57915  0.48299  Biso   1.000  H
  H15      1.0000 0.21824  0.50283  0.37994  Biso   1.000  H
  H16      1.0000 0.90849  0.38730  0.44999  Biso   1.000  H
  H17      1.0000 0.49799  0.59272  0.57879  Biso   1.000  H
  H18      1.0000 0.70022  0.61041  0.60917  Biso   1.000  H
  H19      1.0000 0.00598  0.63684  0.59780  Biso   1.000  H
  H20      1.0000 0.04551  0.38102  0.38782  Biso   1.000  H
  H21      1.0000 0.36874  0.41432  0.36211  Biso   1.000  H
  H22      1.0000 0.58069  0.44202  0.38285  Biso   1.000  H
  H23      1.0000 0.17084  0.63282  0.53369  Biso   1.000  H
  H24      1.0000 0.73894  0.52819  0.59175  Biso   1.000  H
  H25      1.0000 0.99599  0.47829  0.47009  Biso   1.000  H
  H26      1.0000 0.33148  0.50636  0.53299  Biso   1.000  H
  H27      1.0000 0.82856  0.56496  0.64184  Biso   1.000  H
  H28      1.0000 0.73978  0.52765  0.64254  Biso   1.000  H
  H29      1.0000 0.98825  0.53201  0.65047  Biso   1.000  H
  H30      1.0000 0.06331  0.61472  0.47659  Biso   1.000  H
  H31      1.0000 0.81965  0.62635  0.48063  Biso   1.000  H
  H32      1.0000 0.02846  0.64967  0.48241  Biso   1.000  H
  H33      1.0000 0.29131  0.53267  0.56911  Biso   1.000  H
  H34      1.0000 0.47109  0.50333  0.59092  Biso   1.000  H
  H35      1.0000 0.50671  0.54645  0.58058  Biso   1.000  H
  H36      1.0000 0.84883  0.53996  0.44035  Biso   1.000  H
  H37      1.0000 0.67559  0.57191  0.42259  Biso   1.000  H
  H38      1.0000 0.91406  0.58159  0.43170  Biso   1.000  H
  H39      1.0000 0.44393  0.50029  0.99404  Biso   1.000  H
  H40      1.0000 0.66421  0.52661  0.97320  Biso   1.000  H
  H41      1.0000 0.60743  0.49028  0.96918  Biso   1.000  H
  H42      1.0000 0.02021  0.42751  0.11965  Biso   1.000  H
  H43      1.0000 0.94871  0.39104  0.11642  Biso   1.000  H
  H44      1.0000 0.17508  0.41562  0.09540  Biso   1.000  H
  H45      1.0000 0.65862  0.49247  0.12431  Biso   1.000  H
  H46      1.0000 0.69922  0.49569  0.08436  Biso   1.000  H
  H47      1.0000 0.45694  0.50018  0.09818  Biso   1.000  H
  H48      1.0000 0.20944  0.33812  0.17651  Biso   1.000  H
  H49      1.0000 0.44474  0.33099  0.16299  Biso   1.000  H
  H50      1.0000 0.41704  0.33187  0.20134  Biso   1.000  H
  H51      1.0000 0.15920  0.44855  0.03803  Biso   1.000  H
  H52      1.0000 0.42736  0.48299  0.93786  Biso   1.000  H
  H53      1.0000 0.59818  0.37994  0.11723  Biso   1.000  H
  H54      1.0000 0.35848  0.44999  0.16271  Biso   1.000  H
  H55      1.0000 0.07678  0.57879  0.82849  Biso   1.000  H
  H56      1.0000 0.30939  0.60917  0.78042  Biso   1.000  H
  H57      1.0000 0.60378  0.59780  0.76536  Biso   1.000  H
  H58      1.0000 0.43333  0.38782  0.23116  Biso   1.000  H
  H59      1.0000 0.73085  0.36211  0.22357  Biso   1.000  H
  H60      1.0000 0.96354  0.38285  0.17513  Biso   1.000  H
  H61      1.0000 0.70453  0.53369  0.83349  Biso   1.000  H
  H62      1.0000 0.33069  0.59175  0.88006  Biso   1.000  H
  H63      1.0000 0.46608  0.47009  0.05162  Biso   1.000  H
  H64      1.0000 0.86447  0.53299  0.96065  Biso   1.000  H
  H65      1.0000 0.47040  0.64184  0.79320  Biso   1.000  H
  H66      1.0000 0.38232  0.64254  0.82981  Biso   1.000  H
  H67      1.0000 0.63872  0.65047  0.81752  Biso   1.000  H
  H68      1.0000 0.53990  0.47659  0.90869  Biso   1.000  H
  H69      1.0000 0.30028  0.48063  0.89302  Biso   1.000  H
  H70      1.0000 0.51087  0.48241  0.86792  Biso   1.000  H
  H71      1.0000 0.86042  0.56911  0.89822  Biso   1.000  H
  H72      1.0000 0.06201  0.59092  0.90575  Biso   1.000  H
  H73      1.0000 0.08729  0.58058  0.87297  Biso   1.000  H
  H74      1.0000 0.28918  0.44035  0.01969  Biso   1.000  H
  H75      1.0000 0.09818  0.42259  0.00550  Biso   1.000  H
  H76      1.0000 0.34576  0.43170  0.98671  Biso   1.000  H
  H77      1.0000 0.43797  0.99404  0.50567  Biso   1.000  H
  H78      1.0000 0.63741  0.97320  0.50019  Biso   1.000  H
  H79      1.0000 0.57661  0.96918  0.54054  Biso   1.000  H
  H80      1.0000 0.13986  0.11965  0.45284  Biso   1.000  H
  H81      1.0000 0.06513  0.11642  0.49254  Biso   1.000  H
  H82      1.0000 0.27048  0.09540  0.48898  Biso   1.000  H
  H83      1.0000 0.78293  0.12431  0.38322  Biso   1.000  H
  H84      1.0000 0.78358  0.08436  0.41995  Biso   1.000  H
  H85      1.0000 0.55512  0.09818  0.40164  Biso   1.000  H
  H86      1.0000 0.38595  0.17651  0.48537  Biso   1.000  H
  H87      1.0000 0.60773  0.16299  0.50602  Biso   1.000  H
  H88      1.0000 0.61838  0.20134  0.46679  Biso   1.000  H
  H89      1.0000 0.19723  0.03803  0.51342  Biso   1.000  H
  H90      1.0000 0.36522  0.93786  0.57915  Biso   1.000  H
  H91      1.0000 0.71541  0.11723  0.50283  Biso   1.000  H
  H92      1.0000 0.52119  0.16271  0.38730  Biso   1.000  H
  H93      1.0000 0.90527  0.82849  0.59272  Biso   1.000  H
  H94      1.0000 0.08981  0.78042  0.61041  Biso   1.000  H
  H95      1.0000 0.36914  0.76536  0.63684  Biso   1.000  H
  H96      1.0000 0.66449  0.23116  0.38102  Biso   1.000  H
  H97      1.0000 0.95442  0.22357  0.41432  Biso   1.000  H
  H98      1.0000 0.13867  0.17513  0.44202  Biso   1.000  H
  H99      1.0000 0.53802  0.83349  0.63282  Biso   1.000  H
  H100     1.0000 0.21075  0.88006  0.52819  Biso   1.000  H
  H101     1.0000 0.51770  0.05162  0.47829  Biso   1.000  H
  H102     1.0000 0.82512  0.96065  0.50636  Biso   1.000  H
  H103     1.0000 0.26360  0.79320  0.56496  Biso   1.000  H
  H104     1.0000 0.21213  0.82981  0.52765  Biso   1.000  H
  H105     1.0000 0.45624  0.81752  0.53201  Biso   1.000  H
  H106     1.0000 0.44859  0.90869  0.61472  Biso   1.000  H
  H107     1.0000 0.19330  0.89302  0.62635  Biso   1.000  H
  H108     1.0000 0.37879  0.86792  0.64967  Biso   1.000  H
  H109     1.0000 0.75864  0.89822  0.53267  Biso   1.000  H
  H110     1.0000 0.96776  0.90575  0.50333  Biso   1.000  H
  H111     1.0000 0.96026  0.87297  0.54645  Biso   1.000  H
  H112     1.0000 0.30887  0.01969  0.53996  Biso   1.000  H
  H113     1.0000 0.10368  0.00550  0.57191  Biso   1.000  H
  H114     1.0000 0.33247  0.98671  0.58159  Biso   1.000  H
  C1       1.0000 0.10067  0.51316  0.50034  Biso   1.000  C
  C2       1.0000 0.60296  0.48031  0.41685  Biso   1.000  C
  C3       1.0000 0.10457  0.40714  0.48651  Biso   1.000  C
  C4       1.0000 0.02799  0.48127  0.34320  Biso   1.000  C
  C5       1.0000 0.55414  0.50616  0.45284  Biso   1.000  C
  C6       1.0000 0.43785  0.51406  0.47337  Biso   1.000  C
  C7       1.0000 0.23338  0.50429  0.47944  Biso   1.000  C
  C8       1.0000 0.80516  0.56471  0.49324  Biso   1.000  C
  C9       1.0000 0.47165  0.48881  0.43813  Biso   1.000  C
  C10      1.0000 0.26795  0.47885  0.44437  Biso   1.000  C
  C11      1.0000 0.04505  0.46239  0.38027  Biso   1.000  C
  C12      1.0000 0.15271  0.47743  0.39510  Biso   1.000  C
  C13      1.0000 0.17159  0.46046  0.42958  Biso   1.000  C
  C14      1.0000 0.08573  0.42736  0.44952  Biso   1.000  C
  C15      1.0000 0.97759  0.41246  0.43465  Biso   1.000  C
  C16      1.0000 0.95386  0.42981  0.40040  Biso   1.000  C
  C17      1.0000 0.54951  0.61687  0.60705  Biso   1.000  C
  C18      1.0000 0.43197  0.60581  0.59017  Biso   1.000  C
  C19      1.0000 0.23209  0.61127  0.58819  Biso   1.000  C
  C20      1.0000 0.15657  0.63055  0.60102  Biso   1.000  C
  C21      1.0000 0.78020  0.37226  0.36901  Biso   1.000  C
  C22      1.0000 0.58229  0.38077  0.36222  Biso   1.000  C
  C23      1.0000 0.44312  0.36595  0.34812  Biso   1.000  C
  C24      1.0000 0.60832  0.64346  0.64144  Biso   1.000  C
  C25      1.0000 0.47418  0.63508  0.62148  Biso   1.000  C
  C26      1.0000 0.27281  0.64237  0.61770  Biso   1.000  C
  C27      1.0000 0.89845  0.38846  0.38149  Biso   1.000  C
  C28      1.0000 0.82872  0.41361  0.38648  Biso   1.000  C
  C29      1.0000 0.63719  0.42254  0.37924  Biso   1.000  C
  C30      1.0000 0.51578  0.40634  0.36745  Biso   1.000  C
  C31      1.0000 0.05866  0.59145  0.58175  Biso   1.000  C
  C32      1.0000 0.07364  0.61026  0.54641  Biso   1.000  C
  C33      1.0000 0.96278  0.60076  0.52719  Biso   1.000  C
  C34      1.0000 0.84343  0.57034  0.54366  Biso   1.000  C
  C35      1.0000 0.83100  0.55137  0.57899  Biso   1.000  C
  C36      1.0000 0.92601  0.56270  0.59815  Biso   1.000  C
  C37      1.0000 0.72826  0.55787  0.52486  Biso   1.000  C
  C38      1.0000 0.55079  0.53740  0.53877  Biso   1.000  C
  C39      1.0000 0.15142  0.48653  0.46504  Biso   1.000  C
  C40      1.0000 0.70878  0.55218  0.47513  Biso   1.000  C
  C41      1.0000 0.53642  0.53076  0.48971  Biso   1.000  C
  C42      1.0000 0.46142  0.52337  0.52147  Biso   1.000  C
  C43      1.0000 0.86834  0.54584  0.63529  Biso   1.000  C
  C44      1.0000 0.96885  0.62407  0.48960  Biso   1.000  C
  C45      1.0000 0.45084  0.52963  0.57174  Biso   1.000  C
  C46      1.0000 0.79155  0.56191  0.44052  Biso   1.000  C
  C47      1.0000 0.60101  0.50034  0.98650  Biso   1.000  C
  C48      1.0000 0.01981  0.41685  0.10284  Biso   1.000  C
  C49      1.0000 0.59108  0.48651  0.10635  Biso   1.000  C
  C50      1.0000 0.37119  0.34320  0.17553  Biso   1.000  C
  C51      1.0000 0.00698  0.45284  0.04100  Biso   1.000  C
  C52      1.0000 0.91122  0.47337  0.01257  Biso   1.000  C
  C53      1.0000 0.71282  0.47944  0.01627  Biso   1.000  C
  C54      1.0000 0.29840  0.49324  0.94205  Biso   1.000  C
  C55      1.0000 0.90978  0.43813  0.07306  Biso   1.000  C
  C56      1.0000 0.71232  0.44437  0.07678  Biso   1.000  C
  C57      1.0000 0.42532  0.38027  0.15734  Biso   1.000  C
  C58      1.0000 0.54781  0.39510  0.12747  Biso   1.000  C
  C59      1.0000 0.60117  0.42958  0.10996  Biso   1.000  C
  C60      1.0000 0.53525  0.44952  0.12312  Biso   1.000  C
  C61      1.0000 0.41224  0.43465  0.15289  Biso   1.000  C
  C62      1.0000 0.35426  0.40040  0.16979  Biso   1.000  C
  C63      1.0000 0.15656  0.60705  0.77608  Biso   1.000  C
  C64      1.0000 0.02214  0.59017  0.80402  Biso   1.000  C
  C65      1.0000 0.82028  0.58819  0.80054  Biso   1.000  C
  C66      1.0000 0.75759  0.60102  0.76843  Biso   1.000  C
  C67      1.0000 0.14921  0.36901  0.25873  Biso   1.000  C
  C68      1.0000 0.94451  0.36222  0.25701  Biso   1.000  C
  C69      1.0000 0.79124  0.34812  0.28593  Biso   1.000  C
  C70      1.0000 0.24976  0.64144  0.71510  Biso   1.000  C
  C71      1.0000 0.09566  0.62148  0.74344  Biso   1.000  C
  C72      1.0000 0.89051  0.61770  0.73993  Biso   1.000  C
  C73      1.0000 0.27994  0.38149  0.23005  Biso   1.000  C
  C74      1.0000 0.21520  0.38648  0.19991  Biso   1.000  C
  C75      1.0000 0.01643  0.37924  0.19822  Biso   1.000  C
  C76      1.0000 0.88323  0.36745  0.22621  Biso   1.000  C
  C77      1.0000 0.64041  0.58175  0.82680  Biso   1.000  C
  C78      1.0000 0.62005  0.54641  0.84333  Biso   1.000  C
  C79      1.0000 0.48997  0.52719  0.87205  Biso   1.000  C
  C80      1.0000 0.38709  0.54366  0.88600  Biso   1.000  C
  C81      1.0000 0.40999  0.57899  0.86964  Biso   1.000  C
  C82      1.0000 0.52416  0.59815  0.83915  Biso   1.000  C
  C83      1.0000 0.25312  0.52486  0.91727  Biso   1.000  C
  C84      1.0000 0.08956  0.53877  0.92383  Biso   1.000  C
  C85      1.0000 0.61646  0.46504  0.04843  Biso   1.000  C
  C86      1.0000 0.18391  0.47513  0.97269  Biso   1.000  C
  C87      1.0000 0.02613  0.48971  0.97953  Biso   1.000  C
  C88      1.0000 0.98289  0.52147  0.95516  Biso   1.000  C
  C89      1.0000 0.50363  0.63529  0.81887  Biso   1.000  C
  C90      1.0000 0.45845  0.48960  0.88633  Biso   1.000  C
  C91      1.0000 0.02258  0.57174  0.89863  Biso   1.000  C
  C92      1.0000 0.23207  0.44052  0.99757  Biso   1.000  C
  C93      1.0000 0.58751  0.98650  0.51316  Biso   1.000  C
  C94      1.0000 0.12265  0.10284  0.48031  Biso   1.000  C
  C95      1.0000 0.69743  0.10635  0.40714  Biso   1.000  C
  C96      1.0000 0.54672  0.17553  0.48127  Biso   1.000  C
  C97      1.0000 0.04798  0.04100  0.50616  Biso   1.000  C
  C98      1.0000 0.92379  0.01257  0.51406  Biso   1.000  C
  C99      1.0000 0.72909  0.01627  0.50429  Biso   1.000  C
  C100     1.0000 0.24045  0.94205  0.56471  Biso   1.000  C
  C101     1.0000 0.98284  0.07306  0.48881  Biso   1.000  C
  C102     1.0000 0.78910  0.07678  0.47885  Biso   1.000  C
  C103     1.0000 0.58266  0.15734  0.46239  Biso   1.000  C
  C104     1.0000 0.67528  0.12747  0.47743  Biso   1.000  C
  C105     1.0000 0.71113  0.10996  0.46046  Biso   1.000  C
  C106     1.0000 0.65837  0.12312  0.42736  Biso   1.000  C
  C107     1.0000 0.56513  0.15289  0.41246  Biso   1.000  C
  C108     1.0000 0.52405  0.16979  0.42981  Biso   1.000  C
  C109     1.0000 0.93264  0.77608  0.61687  Biso   1.000  C
  C110     1.0000 0.82616  0.80402  0.60581  Biso   1.000  C
  C111     1.0000 0.62082  0.80054  0.61127  Biso   1.000  C
  C112     1.0000 0.52602  0.76843  0.63055  Biso   1.000  C
  C113     1.0000 0.40794  0.25873  0.37226  Biso   1.000  C
  C114     1.0000 0.20152  0.25701  0.38077  Biso   1.000  C
  C115     1.0000 0.07717  0.28593  0.36595  Biso   1.000  C
  C116     1.0000 0.96486  0.71510  0.64346  Biso   1.000  C
  C117     1.0000 0.83910  0.74344  0.63508  Biso   1.000  C
  C118     1.0000 0.63044  0.73993  0.64237  Biso   1.000  C
  C119     1.0000 0.50999  0.23005  0.38846  Biso   1.000  C
  C120     1.0000 0.41511  0.19991  0.41361  Biso   1.000  C
  C121     1.0000 0.21465  0.19822  0.42254  Biso   1.000  C
  C122     1.0000 0.10944  0.22621  0.40634  Biso   1.000  C
  C123     1.0000 0.46721  0.82680  0.59145  Biso   1.000  C
  C124     1.0000 0.46338  0.84333  0.61026  Biso   1.000  C
  C125     1.0000 0.36202  0.87205  0.60076  Biso   1.000  C
  C126     1.0000 0.27309  0.88600  0.57034  Biso   1.000  C
  C127     1.0000 0.27963  0.86964  0.55137  Biso   1.000  C
  C128     1.0000 0.36331  0.83915  0.56270  Biso   1.000  C
  C129     1.0000 0.17039  0.91727  0.55787  Biso   1.000  C
  C130     1.0000 0.01339  0.92383  0.53740  Biso   1.000  C
  C131     1.0000 0.66489  0.04843  0.48653  Biso   1.000  C
  C132     1.0000 0.15660  0.97269  0.55218  Biso   1.000  C
  C133     1.0000 0.00566  0.97953  0.53076  Biso   1.000  C
  C134     1.0000 0.93805  0.95516  0.52337  Biso   1.000  C
  C135     1.0000 0.32250  0.81887  0.54584  Biso   1.000  C
  C136     1.0000 0.34478  0.88633  0.62407  Biso   1.000  C
  C137     1.0000 0.92121  0.89863  0.52963  Biso   1.000  C
  C138     1.0000 0.22964  0.99757  0.56191  Biso   1.000  C
  O1       1.0000 0.86414  0.34711  0.36558  Biso   1.000  O
  O2       1.0000 0.49540  0.34422  0.34070  Biso   1.000  O
  O3       1.0000 0.26874  0.37550  0.34354  Biso   1.000  O
  O4       1.0000 0.78184  0.63356  0.64465  Biso   1.000  O
  O5       1.0000 0.55251  0.66005  0.65512  Biso   1.000  O
  O6       1.0000 0.18341  0.66263  0.62800  Biso   1.000  O
  O7       1.0000 0.97335  0.40632  0.30263  Biso   1.000  O
  O8       1.0000 0.09417  0.59880  0.67868  Biso   1.000  O
  O9       1.0000 0.22972  0.36558  0.28731  Biso   1.000  O
  O10      1.0000 0.83610  0.34070  0.31508  Biso   1.000  O
  O11      1.0000 0.61228  0.34354  0.28096  Biso   1.000  O
  O12      1.0000 0.42649  0.64465  0.72179  Biso   1.000  O
  O13      1.0000 0.20763  0.65512  0.68483  Biso   1.000  O
  O14      1.0000 0.81141  0.62800  0.70937  Biso   1.000  O
  O15      1.0000 0.27598  0.30263  0.29105  Biso   1.000  O
  O16      1.0000 0.77285  0.67868  0.72252  Biso   1.000  O
  O17      1.0000 0.51703  0.28731  0.34711  Biso   1.000  O
  O18      1.0000 0.15118  0.31508  0.34422  Biso   1.000  O
  O19      1.0000 0.89324  0.28096  0.37550  Biso   1.000  O
  O20      1.0000 0.14828  0.72179  0.63356  Biso   1.000  O
  O21      1.0000 0.89246  0.68483  0.66005  Biso   1.000  O
  O22      1.0000 0.52078  0.70937  0.66263  Biso   1.000  O
  O23      1.0000 0.56703  0.29105  0.40632  Biso   1.000  O
  O24      1.0000 0.49537  0.72252  0.59880  Biso   1.000  O
