data_image0
_cell_length_a       6.81814
_cell_length_b       38.4122
_cell_length_c       38.4122
_cell_angle_alpha    60.3468
_cell_angle_beta     86.608
_cell_angle_gamma    93.392

_symmetry_space_group_name_H-M    P 1
_symmetry_int_tables_number       1

loop_
  _symmetry_equiv_pos_as_xyz
  'x, y, z'

loop_
  _atom_site_label
  _atom_site_occupancy
  _atom_site_fract_x
  _atom_site_fract_y
  _atom_site_fract_z
  _atom_site_thermal_displace_type
  _atom_site_B_iso_or_equiv
  _atom_site_type_symbol
  Mg1      1.0000 0.16580  0.36339  0.32828  Biso   1.000  Mg
  Mg2      1.0000 0.83765  0.63724  0.67185  Biso   1.000  Mg
  Mg3      1.0000 0.49408  0.32828  0.30833  Biso   1.000  Mg
  Mg4      1.0000 0.50950  0.67185  0.69091  Biso   1.000  Mg
  Mg5      1.0000 0.80241  0.30833  0.36339  Biso   1.000  Mg
  Mg6      1.0000 0.20041  0.69091  0.63724  Biso   1.000  Mg
  H1       1.0000 0.01897  0.45087  0.52076  Biso   1.000  H
  H2       1.0000 0.11557  0.43462  0.56733  Biso   1.000  H
  H3       1.0000 0.01776  0.48140  0.54202  Biso   1.000  H
  H4       1.0000 0.37232  0.53854  0.37704  Biso   1.000  H
  H5       1.0000 0.12699  0.54429  0.39188  Biso   1.000  H
  H6       1.0000 0.32566  0.54385  0.41949  Biso   1.000  H
  H7       1.0000 0.14134  0.34658  0.47731  Biso   1.000  H
  H8       1.0000 0.12321  0.34841  0.52183  Biso   1.000  H
  H9       1.0000 0.90927  0.35472  0.49556  Biso   1.000  H
  H10      1.0000 0.64550  0.50190  0.44219  Biso   1.000  H
  H11      1.0000 0.28968  0.40588  0.51315  Biso   1.000  H
  H12      1.0000 0.06135  0.48569  0.38176  Biso   1.000  H
  H13      1.0000 0.32187  0.56023  0.58464  Biso   1.000  H
  H14      1.0000 0.53835  0.58697  0.61393  Biso   1.000  H
  H15      1.0000 0.85048  0.62108  0.59806  Biso   1.000  H
  H16      1.0000 0.15075  0.37653  0.40754  Biso   1.000  H
  H17      1.0000 0.46996  0.41382  0.38582  Biso   1.000  H
  H18      1.0000 0.68128  0.44049  0.41600  Biso   1.000  H
  H19      1.0000 0.93957  0.51308  0.62236  Biso   1.000  H
  H20      1.0000 0.70278  0.59270  0.49174  Biso   1.000  H
  H21      1.0000 0.34972  0.49661  0.56266  Biso   1.000  H
  H22      1.0000 0.08432  0.64426  0.50829  Biso   1.000  H
  H23      1.0000 0.86656  0.65041  0.48306  Biso   1.000  H
  H24      1.0000 0.85457  0.65188  0.52779  Biso   1.000  H
  H25      1.0000 0.66967  0.45477  0.58541  Biso   1.000  H
  H26      1.0000 0.87030  0.45437  0.61261  Biso   1.000  H
  H27      1.0000 0.62605  0.46019  0.62785  Biso   1.000  H
  H28      1.0000 0.97743  0.51723  0.46268  Biso   1.000  H
  H29      1.0000 0.87919  0.56398  0.43749  Biso   1.000  H
  H30      1.0000 0.97611  0.54770  0.48403  Biso   1.000  H
  H31      1.0000 0.53973  0.52076  0.02837  Biso   1.000  H
  H32      1.0000 0.68290  0.56733  0.99805  Biso   1.000  H
  H33      1.0000 0.55978  0.54202  0.97658  Biso   1.000  H
  H34      1.0000 0.74936  0.37704  0.08442  Biso   1.000  H
  H35      1.0000 0.51887  0.39188  0.06383  Biso   1.000  H
  H36      1.0000 0.74515  0.41949  0.03666  Biso   1.000  H
  H37      1.0000 0.61865  0.47731  0.17611  Biso   1.000  H
  H38      1.0000 0.64504  0.52183  0.12976  Biso   1.000  H
  H39      1.0000 0.40483  0.49556  0.14972  Biso   1.000  H
  H40      1.0000 0.08769  0.44219  0.05591  Biso   1.000  H
  H41      1.0000 0.80283  0.51315  0.08097  Biso   1.000  H
  H42      1.0000 0.44311  0.38176  0.13255  Biso   1.000  H
  H43      1.0000 0.90651  0.58464  0.85513  Biso   1.000  H
  H44      1.0000 0.15228  0.61393  0.79910  Biso   1.000  H
  H45      1.0000 0.44854  0.59806  0.78086  Biso   1.000  H
  H46      1.0000 0.55829  0.40754  0.21593  Biso   1.000  H
  H47      1.0000 0.85578  0.38582  0.20036  Biso   1.000  H
  H48      1.0000 0.09728  0.41600  0.14351  Biso   1.000  H
  H49      1.0000 0.56193  0.62236  0.86456  Biso   1.000  H
  H50      1.0000 0.19452  0.49174  0.91556  Biso   1.000  H
  H51      1.0000 0.91238  0.56266  0.94073  Biso   1.000  H
  H52      1.0000 0.59261  0.50829  0.84745  Biso   1.000  H
  H53      1.0000 0.34962  0.48306  0.86653  Biso   1.000  H
  H54      1.0000 0.38236  0.52779  0.82033  Biso   1.000  H
  H55      1.0000 0.25508  0.58541  0.95982  Biso   1.000  H
  H56      1.0000 0.48291  0.61261  0.93302  Biso   1.000  H
  H57      1.0000 0.25390  0.62785  0.91196  Biso   1.000  H
  H58      1.0000 0.44011  0.46268  0.02009  Biso   1.000  H
  H59      1.0000 0.31668  0.43749  0.99853  Biso   1.000  H
  H60      1.0000 0.46014  0.48403  0.96827  Biso   1.000  H
  H61      1.0000 0.56810  0.02837  0.45087  Biso   1.000  H
  H62      1.0000 0.68095  0.99805  0.43462  Biso   1.000  H
  H63      1.0000 0.53636  0.97658  0.48140  Biso   1.000  H
  H64      1.0000 0.83378  0.08442  0.53854  Biso   1.000  H
  H65      1.0000 0.58270  0.06383  0.54429  Biso   1.000  H
  H66      1.0000 0.78181  0.03666  0.54385  Biso   1.000  H
  H67      1.0000 0.79476  0.17611  0.34658  Biso   1.000  H
  H68      1.0000 0.77480  0.12976  0.34841  Biso   1.000  H
  H69      1.0000 0.55455  0.14972  0.35472  Biso   1.000  H
  H70      1.0000 0.14360  0.05591  0.50190  Biso   1.000  H
  H71      1.0000 0.88380  0.08097  0.40588  Biso   1.000  H
  H72      1.0000 0.57566  0.13255  0.48569  Biso   1.000  H
  H73      1.0000 0.76164  0.85513  0.56023  Biso   1.000  H
  H74      1.0000 0.95138  0.79910  0.58697  Biso   1.000  H
  H75      1.0000 0.22940  0.78086  0.62108  Biso   1.000  H
  H76      1.0000 0.77422  0.21593  0.37653  Biso   1.000  H
  H77      1.0000 0.05614  0.20036  0.41382  Biso   1.000  H
  H78      1.0000 0.24079  0.14351  0.44049  Biso   1.000  H
  H79      1.0000 0.42649  0.86456  0.51308  Biso   1.000  H
  H80      1.0000 0.11008  0.91556  0.59270  Biso   1.000  H
  H81      1.0000 0.85311  0.94073  0.49661  Biso   1.000  H
  H82      1.0000 0.44006  0.84745  0.64426  Biso   1.000  H
  H83      1.0000 0.21615  0.86653  0.65041  Biso   1.000  H
  H84      1.0000 0.20269  0.82033  0.65188  Biso   1.000  H
  H85      1.0000 0.21490  0.95982  0.45477  Biso   1.000  H
  H86      1.0000 0.41593  0.93302  0.45437  Biso   1.000  H
  H87      1.0000 0.16586  0.91196  0.46019  Biso   1.000  H
  H88      1.0000 0.46020  0.02009  0.51723  Biso   1.000  H
  H89      1.0000 0.31521  0.99853  0.56398  Biso   1.000  H
  H90      1.0000 0.42841  0.96827  0.54770  Biso   1.000  H
  C1       1.0000 0.10364  0.46045  0.53814  Biso   1.000  C
  C2       1.0000 0.26523  0.53077  0.40266  Biso   1.000  C
  C3       1.0000 0.07219  0.36117  0.49211  Biso   1.000  C
  C4       1.0000 0.68840  0.51840  0.48587  Biso   1.000  C
  C5       1.0000 0.58059  0.50086  0.46845  Biso   1.000  C
  C6       1.0000 0.39027  0.48198  0.48434  Biso   1.000  C
  C7       1.0000 0.11144  0.46827  0.41048  Biso   1.000  C
  C8       1.0000 0.22214  0.48684  0.42656  Biso   1.000  C
  C9       1.0000 0.28350  0.46408  0.46446  Biso   1.000  C
  C10      1.0000 0.23982  0.42323  0.48439  Biso   1.000  C
  C11      1.0000 0.12694  0.40476  0.46844  Biso   1.000  C
  C12      1.0000 0.06034  0.42769  0.43119  Biso   1.000  C
  C13      1.0000 0.38985  0.59560  0.61050  Biso   1.000  C
  C14      1.0000 0.26545  0.57965  0.59407  Biso   1.000  C
  C15      1.0000 0.06979  0.58844  0.58999  Biso   1.000  C
  C16      1.0000 0.99964  0.61332  0.60251  Biso   1.000  C
  C17      1.0000 0.88396  0.36879  0.38480  Biso   1.000  C
  C18      1.0000 0.68557  0.37862  0.37864  Biso   1.000  C
  C19      1.0000 0.54855  0.36536  0.35824  Biso   1.000  C
  C20      1.0000 0.44945  0.63299  0.64351  Biso   1.000  C
  C21      1.0000 0.32222  0.62082  0.62354  Biso   1.000  C
  C22      1.0000 0.12240  0.62996  0.61876  Biso   1.000  C
  C23      1.0000 0.00226  0.38469  0.40232  Biso   1.000  C
  C24      1.0000 0.93140  0.41040  0.41369  Biso   1.000  C
  C25      1.0000 0.73845  0.42043  0.40752  Biso   1.000  C
  C26      1.0000 0.61742  0.40472  0.39040  Biso   1.000  C
  C27      1.0000 0.93804  0.57104  0.57301  Biso   1.000  C
  C28      1.0000 0.86852  0.59392  0.53607  Biso   1.000  C
  C29      1.0000 0.75432  0.57540  0.52034  Biso   1.000  C
  C30      1.0000 0.71165  0.53452  0.54030  Biso   1.000  C
  C31      1.0000 0.77484  0.51183  0.57803  Biso   1.000  C
  C32      1.0000 0.88745  0.53046  0.59381  Biso   1.000  C
  C33      1.0000 0.60489  0.51654  0.52049  Biso   1.000  C
  C34      1.0000 0.41463  0.49766  0.53638  Biso   1.000  C
  C35      1.0000 0.30677  0.48012  0.51896  Biso   1.000  C
  C36      1.0000 0.92140  0.63759  0.51245  Biso   1.000  C
  C37      1.0000 0.73178  0.46791  0.60206  Biso   1.000  C
  C38      1.0000 0.89141  0.53812  0.46665  Biso   1.000  C
  C39      1.0000 0.64178  0.53814  0.00141  Biso   1.000  C
  C40      1.0000 0.66789  0.40266  0.06657  Biso   1.000  C
  C41      1.0000 0.56430  0.49211  0.14672  Biso   1.000  C
  C42      1.0000 0.17427  0.48587  0.99573  Biso   1.000  C
  C43      1.0000 0.04904  0.46845  0.03069  Biso   1.000  C
  C44      1.0000 0.87461  0.48434  0.03368  Biso   1.000  C
  C45      1.0000 0.52192  0.41048  0.12125  Biso   1.000  C
  C46      1.0000 0.64870  0.42656  0.08660  Biso   1.000  C
  C47      1.0000 0.74796  0.46446  0.07146  Biso   1.000  C
  C48      1.0000 0.72421  0.48439  0.09238  Biso   1.000  C
  C49      1.0000 0.59538  0.46844  0.12680  Biso   1.000  C
  C50      1.0000 0.49153  0.43119  0.14112  Biso   1.000  C
  C51      1.0000 0.00035  0.61050  0.79390  Biso   1.000  C
  C52      1.0000 0.85952  0.59407  0.82628  Biso   1.000  C
  C53      1.0000 0.65978  0.58999  0.82157  Biso   1.000  C
  C54      1.0000 0.60215  0.60251  0.78417  Biso   1.000  C
  C55      1.0000 0.26876  0.38480  0.24641  Biso   1.000  C
  C56      1.0000 0.06421  0.37864  0.24274  Biso   1.000  C
  C57      1.0000 0.90679  0.35824  0.27640  Biso   1.000  C
  C58      1.0000 0.09296  0.64351  0.72350  Biso   1.000  C
  C59      1.0000 0.94576  0.62354  0.75564  Biso   1.000  C
  C60      1.0000 0.74116  0.61876  0.75128  Biso   1.000  C
  C61      1.0000 0.40458  0.40232  0.21299  Biso   1.000  C
  C62      1.0000 0.34509  0.41369  0.17591  Biso   1.000  C
  C63      1.0000 0.14597  0.40752  0.17205  Biso   1.000  C
  C64      1.0000 0.00782  0.39040  0.20488  Biso   1.000  C
  C65      1.0000 0.51105  0.57301  0.85595  Biso   1.000  C
  C66      1.0000 0.40459  0.53607  0.87001  Biso   1.000  C
  C67      1.0000 0.27466  0.52034  0.90426  Biso   1.000  C
  C68      1.0000 0.25195  0.54030  0.92518  Biso   1.000  C
  C69      1.0000 0.35287  0.57803  0.91014  Biso   1.000  C
  C70      1.0000 0.48126  0.59381  0.87573  Biso   1.000  C
  C71      1.0000 0.12538  0.52049  0.96297  Biso   1.000  C
  C72      1.0000 0.95101  0.53638  0.96596  Biso   1.000  C
  C73      1.0000 0.82573  0.51896  0.00092  Biso   1.000  C
  C74      1.0000 0.43385  0.51245  0.84996  Biso   1.000  C
  C75      1.0000 0.33384  0.60206  0.93003  Biso   1.000  C
  C76      1.0000 0.35806  0.46665  0.99523  Biso   1.000  C
  C77      1.0000 0.64319  0.00141  0.46045  Biso   1.000  C
  C78      1.0000 0.73446  0.06657  0.53077  Biso   1.000  C
  C79      1.0000 0.71102  0.14672  0.36117  Biso   1.000  C
  C80      1.0000 0.17000  0.99573  0.51840  Biso   1.000  C
  C81      1.0000 0.07973  0.03069  0.50086  Biso   1.000  C
  C82      1.0000 0.90829  0.03368  0.48198  Biso   1.000  C
  C83      1.0000 0.64317  0.12125  0.46827  Biso   1.000  C
  C84      1.0000 0.73530  0.08660  0.48684  Biso   1.000  C
  C85      1.0000 0.81942  0.07146  0.46408  Biso   1.000  C
  C86      1.0000 0.81659  0.09238  0.42323  Biso   1.000  C
  C87      1.0000 0.72218  0.12680  0.40476  Biso   1.000  C
  C88      1.0000 0.63265  0.14112  0.42769  Biso   1.000  C
  C89      1.0000 0.79425  0.79390  0.59560  Biso   1.000  C
  C90      1.0000 0.68580  0.82628  0.57965  Biso   1.000  C
  C91      1.0000 0.48135  0.82157  0.58844  Biso   1.000  C
  C92      1.0000 0.38632  0.78417  0.61332  Biso   1.000  C
  C93      1.0000 0.51517  0.24641  0.36879  Biso   1.000  C
  C94      1.0000 0.30695  0.24274  0.37862  Biso   1.000  C
  C95      1.0000 0.18319  0.27640  0.36536  Biso   1.000  C
  C96      1.0000 0.81646  0.72350  0.63299  Biso   1.000  C
  C97      1.0000 0.70140  0.75564  0.62082  Biso   1.000  C
  C98      1.0000 0.49244  0.75128  0.62996  Biso   1.000  C
  C99      1.0000 0.61757  0.21299  0.38469  Biso   1.000  C
  C100     1.0000 0.52100  0.17591  0.41040  Biso   1.000  C
  C101     1.0000 0.31802  0.17205  0.42043  Biso   1.000  C
  C102     1.0000 0.21270  0.20488  0.40472  Biso   1.000  C
  C103     1.0000 0.36700  0.85595  0.57104  Biso   1.000  C
  C104     1.0000 0.27460  0.87001  0.59392  Biso   1.000  C
  C105     1.0000 0.17892  0.90426  0.57540  Biso   1.000  C
  C106     1.0000 0.17713  0.92518  0.53452  Biso   1.000  C
  C107     1.0000 0.26301  0.91014  0.51183  Biso   1.000  C
  C108     1.0000 0.35699  0.87573  0.53046  Biso   1.000  C
  C109     1.0000 0.08835  0.96297  0.51654  Biso   1.000  C
  C110     1.0000 0.91697  0.96596  0.49766  Biso   1.000  C
  C111     1.0000 0.82665  0.00092  0.48012  Biso   1.000  C
  C112     1.0000 0.28381  0.84996  0.63759  Biso   1.000  C
  C113     1.0000 0.26387  0.93003  0.46791  Biso   1.000  C
  C114     1.0000 0.35329  0.99523  0.53812  Biso   1.000  C
  O1       1.0000 0.09108  0.41839  0.29958  Biso   1.000  O
  O2       1.0000 0.96864  0.34214  0.37627  Biso   1.000  O
  O3       1.0000 0.60211  0.34327  0.34512  Biso   1.000  O
  O4       1.0000 0.37513  0.37671  0.35393  Biso   1.000  O
  O5       1.0000 0.62549  0.62305  0.64713  Biso   1.000  O
  O6       1.0000 0.38965  0.65334  0.65822  Biso   1.000  O
  O7       1.0000 0.04985  0.65351  0.62827  Biso   1.000  O
  O8       1.0000 0.89601  0.58126  0.70305  Biso   1.000  O
  O9       1.0000 0.39066  0.29958  0.28203  Biso   1.000  O
  O10      1.0000 0.34491  0.37627  0.28159  Biso   1.000  O
  O11      1.0000 0.94723  0.34512  0.31161  Biso   1.000  O
  O12      1.0000 0.72906  0.35393  0.26936  Biso   1.000  O
  O13      1.0000 0.27262  0.64713  0.72982  Biso   1.000  O
  O14      1.0000 0.04787  0.65822  0.68844  Biso   1.000  O
  O15      1.0000 0.67812  0.62827  0.71822  Biso   1.000  O
  O16      1.0000 0.59906  0.70305  0.71569  Biso   1.000  O
  O17      1.0000 0.67269  0.28203  0.41839  Biso   1.000  O
  O18      1.0000 0.62650  0.28159  0.34214  Biso   1.000  O
  O19      1.0000 0.25884  0.31161  0.34327  Biso   1.000  O
  O20      1.0000 0.99842  0.26936  0.37671  Biso   1.000  O
  O21      1.0000 0.00244  0.72982  0.62305  Biso   1.000  O
  O22      1.0000 0.73631  0.68844  0.65334  Biso   1.000  O
  O23      1.0000 0.39634  0.71822  0.65351  Biso   1.000  O
  O24      1.0000 0.31475  0.71569  0.58126  Biso   1.000  O
