data_image0
_cell_length_a       6.94415
_cell_length_b       65.7283
_cell_length_c       65.7283
_cell_angle_alpha    60.123
_cell_angle_beta     87.9818
_cell_angle_gamma    92.0182

_symmetry_space_group_name_H-M    P 1
_symmetry_int_tables_number       1

loop_
  _symmetry_equiv_pos_as_xyz
  'x, y, z'

loop_
  _atom_site_label
  _atom_site_occupancy
  _atom_site_fract_x
  _atom_site_fract_y
  _atom_site_fract_z
  _atom_site_thermal_displace_type
  _atom_site_B_iso_or_equiv
  _atom_site_type_symbol
  Mg1      1.0000 0.73098  0.35127  0.32957  Biso   1.000  Mg
  Mg2      1.0000 0.28611  0.64963  0.66924  Biso   1.000  Mg
  Mg3      1.0000 0.06055  0.32957  0.31916  Biso   1.000  Mg
  Mg4      1.0000 0.95535  0.66924  0.68113  Biso   1.000  Mg
  Mg5      1.0000 0.37971  0.31916  0.35127  Biso   1.000  Mg
  Mg6      1.0000 0.63648  0.68113  0.64963  Biso   1.000  Mg
  H1       1.0000 0.26297  0.50768  0.39328  Biso   1.000  H
  H2       1.0000 0.35359  0.50425  0.36993  Biso   1.000  H
  H3       1.0000 0.44140  0.48696  0.39809  Biso   1.000  H
  H4       1.0000 0.49723  0.53997  0.36926  Biso   1.000  H
  H5       1.0000 0.67024  0.52080  0.36929  Biso   1.000  H
  H6       1.0000 0.77231  0.53307  0.39554  Biso   1.000  H
  H7       1.0000 0.68961  0.50343  0.41228  Biso   1.000  H
  H8       1.0000 0.37228  0.51505  0.42129  Biso   1.000  H
  H9       1.0000 0.45348  0.54495  0.40394  Biso   1.000  H
  H10      1.0000 0.72125  0.53882  0.42991  Biso   1.000  H
  H11      1.0000 0.65237  0.50887  0.44595  Biso   1.000  H
  H12      1.0000 0.30099  0.52889  0.44710  Biso   1.000  H
  H13      1.0000 0.47508  0.54928  0.44589  Biso   1.000  H
  H14      1.0000 0.87715  0.48581  0.48574  Biso   1.000  H
  H15      1.0000 0.07373  0.50511  0.48347  Biso   1.000  H
  H16      1.0000 0.95349  0.51084  0.45845  Biso   1.000  H
  H17      1.0000 0.58719  0.43283  0.46210  Biso   1.000  H
  H18      1.0000 0.46638  0.44296  0.43560  Biso   1.000  H
  H19      1.0000 0.64815  0.46096  0.43773  Biso   1.000  H
  H20      1.0000 0.05693  0.39394  0.48417  Biso   1.000  H
  H21      1.0000 0.30001  0.39885  0.47174  Biso   1.000  H
  H22      1.0000 0.21030  0.41640  0.48287  Biso   1.000  H
  H23      1.0000 0.64897  0.45663  0.39167  Biso   1.000  H
  H24      1.0000 0.79274  0.48193  0.38550  Biso   1.000  H
  H25      1.0000 0.86666  0.46527  0.37292  Biso   1.000  H
  H26      1.0000 0.45898  0.38036  0.45007  Biso   1.000  H
  H27      1.0000 0.70739  0.37995  0.45659  Biso   1.000  H
  H28      1.0000 0.58184  0.40616  0.44578  Biso   1.000  H
  H29      1.0000 0.72063  0.41074  0.34161  Biso   1.000  H
  H30      1.0000 0.77362  0.43801  0.33948  Biso   1.000  H
  H31      1.0000 0.96125  0.41838  0.34550  Biso   1.000  H
  H32      1.0000 0.39286  0.53613  0.52673  Biso   1.000  H
  H33      1.0000 0.07783  0.52985  0.54625  Biso   1.000  H
  H34      1.0000 0.55995  0.62919  0.57896  Biso   1.000  H
  H35      1.0000 0.02083  0.57203  0.62362  Biso   1.000  H
  H36      1.0000 0.59987  0.54289  0.48036  Biso   1.000  H
  H37      1.0000 0.00230  0.47849  0.41296  Biso   1.000  H
  H38      1.0000 0.02705  0.39452  0.44521  Biso   1.000  H
  H39      1.0000 0.78901  0.60844  0.61461  Biso   1.000  H
  H40      1.0000 0.99955  0.62627  0.62971  Biso   1.000  H
  H41      1.0000 0.30270  0.63794  0.62833  Biso   1.000  H
  H42      1.0000 0.77325  0.39341  0.31063  Biso   1.000  H
  H43      1.0000 0.20892  0.60784  0.68916  Biso   1.000  H
  H44      1.0000 0.71468  0.36340  0.37296  Biso   1.000  H
  H45      1.0000 0.02483  0.37926  0.36452  Biso   1.000  H
  H46      1.0000 0.22949  0.39768  0.37970  Biso   1.000  H
  H47      1.0000 0.96936  0.60892  0.55413  Biso   1.000  H
  H48      1.0000 0.99277  0.52485  0.58700  Biso   1.000  H
  H49      1.0000 0.39525  0.46001  0.51979  Biso   1.000  H
  H50      1.0000 0.98554  0.43191  0.37577  Biso   1.000  H
  H51      1.0000 0.44478  0.37440  0.41897  Biso   1.000  H
  H52      1.0000 0.91702  0.47316  0.45386  Biso   1.000  H
  H53      1.0000 0.60217  0.46684  0.47331  Biso   1.000  H
  H54      1.0000 0.05989  0.58683  0.65357  Biso   1.000  H
  H55      1.0000 0.22974  0.56531  0.65920  Biso   1.000  H
  H56      1.0000 0.30859  0.59172  0.65744  Biso   1.000  H
  H57      1.0000 0.40746  0.59768  0.55240  Biso   1.000  H
  H58      1.0000 0.28544  0.62407  0.54219  Biso   1.000  H
  H59      1.0000 0.53579  0.62324  0.54799  Biso   1.000  H
  H60      1.0000 0.13221  0.53841  0.62660  Biso   1.000  H
  H61      1.0000 0.20502  0.52163  0.61411  Biso   1.000  H
  H62      1.0000 0.34898  0.54698  0.60772  Biso   1.000  H
  H63      1.0000 0.78547  0.58663  0.51684  Biso   1.000  H
  H64      1.0000 0.69610  0.60438  0.52772  Biso   1.000  H
  H65      1.0000 0.93925  0.60913  0.51537  Biso   1.000  H
  H66      1.0000 0.34741  0.54227  0.56224  Biso   1.000  H
  H67      1.0000 0.52883  0.56058  0.56396  Biso   1.000  H
  H68      1.0000 0.40709  0.57025  0.53760  Biso   1.000  H
  H69      1.0000 0.04092  0.49202  0.54187  Biso   1.000  H
  H70      1.0000 0.92123  0.49769  0.51685  Biso   1.000  H
  H71      1.0000 0.11795  0.51698  0.51457  Biso   1.000  H
  H72      1.0000 0.51924  0.45363  0.55430  Biso   1.000  H
  H73      1.0000 0.69387  0.47396  0.55309  Biso   1.000  H
  H74      1.0000 0.34259  0.49410  0.55415  Biso   1.000  H
  H75      1.0000 0.27387  0.46416  0.57029  Biso   1.000  H
  H76      1.0000 0.54169  0.45814  0.59622  Biso   1.000  H
  H77      1.0000 0.62325  0.48802  0.57873  Biso   1.000  H
  H78      1.0000 0.30639  0.49979  0.58765  Biso   1.000  H
  H79      1.0000 0.22320  0.47017  0.60453  Biso   1.000  H
  H80      1.0000 0.32593  0.48263  0.63061  Biso   1.000  H
  H81      1.0000 0.49830  0.46334  0.63076  Biso   1.000  H
  H82      1.0000 0.55550  0.51633  0.60167  Biso   1.000  H
  H83      1.0000 0.64303  0.49914  0.62987  Biso   1.000  H
  H84      1.0000 0.73327  0.49549  0.60663  Biso   1.000  H
  H85      1.0000 0.65625  0.39328  0.09904  Biso   1.000  H
  H86      1.0000 0.72352  0.36993  0.12582  Biso   1.000  H
  H87      1.0000 0.83949  0.39809  0.11495  Biso   1.000  H
  H88      1.0000 0.86649  0.36926  0.09077  Biso   1.000  H
  H89      1.0000 0.03953  0.36929  0.10991  Biso   1.000  H
  H90      1.0000 0.16785  0.39554  0.07139  Biso   1.000  H
  H91      1.0000 0.10189  0.41228  0.08429  Biso   1.000  H
  H92      1.0000 0.79357  0.42129  0.06366  Biso   1.000  H
  H93      1.0000 0.85742  0.40394  0.05111  Biso   1.000  H
  H94      1.0000 0.15116  0.42991  0.03127  Biso   1.000  H
  H95      1.0000 0.09832  0.44595  0.04518  Biso   1.000  H
  H96      1.0000 0.74809  0.44710  0.02401  Biso   1.000  H
  H97      1.0000 0.92097  0.44589  0.00483  Biso   1.000  H
  H98      1.0000 0.36289  0.48574  0.02845  Biso   1.000  H
  H99      1.0000 0.55720  0.48347  0.01142  Biso   1.000  H
  H100     1.0000 0.41194  0.45845  0.03071  Biso   1.000  H
  H101     1.0000 0.04929  0.46210  0.10507  Biso   1.000  H
  H102     1.0000 0.90198  0.43560  0.12144  Biso   1.000  H
  H103     1.0000 0.08588  0.43773  0.10131  Biso   1.000  H
  H104     1.0000 0.54110  0.48417  0.12189  Biso   1.000  H
  H105     1.0000 0.77175  0.47174  0.12941  Biso   1.000  H
  H106     1.0000 0.69317  0.48287  0.10073  Biso   1.000  H
  H107     1.0000 0.04064  0.39167  0.15170  Biso   1.000  H
  H108     1.0000 0.17824  0.38550  0.13257  Biso   1.000  H
  H109     1.0000 0.23958  0.37292  0.16181  Biso   1.000  H
  H110     1.0000 0.90905  0.45007  0.16957  Biso   1.000  H
  H111     1.0000 0.16398  0.45659  0.16346  Biso   1.000  H
  H112     1.0000 0.02762  0.44578  0.14806  Biso   1.000  H
  H113     1.0000 0.06224  0.34161  0.24765  Biso   1.000  H
  H114     1.0000 0.11310  0.33948  0.22251  Biso   1.000  H
  H115     1.0000 0.30675  0.34550  0.23612  Biso   1.000  H
  H116     1.0000 0.91959  0.52673  0.93714  Biso   1.000  H
  H117     1.0000 0.62408  0.54625  0.92390  Biso   1.000  H
  H118     1.0000 0.13891  0.57896  0.79185  Biso   1.000  H
  H119     1.0000 0.64445  0.62362  0.80435  Biso   1.000  H
  H120     1.0000 0.08023  0.48036  0.97675  Biso   1.000  H
  H121     1.0000 0.41526  0.41296  0.10855  Biso   1.000  H
  H122     1.0000 0.47226  0.44521  0.16027  Biso   1.000  H
  H123     1.0000 0.40362  0.61461  0.77695  Biso   1.000  H
  H124     1.0000 0.62926  0.62971  0.74402  Biso   1.000  H
  H125     1.0000 0.93103  0.62833  0.73373  Biso   1.000  H
  H126     1.0000 0.08388  0.31063  0.29596  Biso   1.000  H
  H127     1.0000 0.89808  0.68916  0.70300  Biso   1.000  H
  H128     1.0000 0.08764  0.37296  0.26364  Biso   1.000  H
  H129     1.0000 0.38935  0.36452  0.25622  Biso   1.000  H
  H130     1.0000 0.60919  0.37970  0.22262  Biso   1.000  H
  H131     1.0000 0.52349  0.55413  0.83695  Biso   1.000  H
  H132     1.0000 0.57977  0.58700  0.88815  Biso   1.000  H
  H133     1.0000 0.91504  0.51979  0.02020  Biso   1.000  H
  H134     1.0000 0.36131  0.37577  0.19232  Biso   1.000  H
  H135     1.0000 0.86375  0.41897  0.20663  Biso   1.000  H
  H136     1.0000 0.37088  0.45386  0.07298  Biso   1.000  H
  H137     1.0000 0.07548  0.47331  0.05985  Biso   1.000  H
  H138     1.0000 0.71346  0.65357  0.75960  Biso   1.000  H
  H139     1.0000 0.88894  0.65920  0.77549  Biso   1.000  H
  H140     1.0000 0.96603  0.65744  0.75084  Biso   1.000  H
  H141     1.0000 0.95986  0.55240  0.84992  Biso   1.000  H
  H142     1.0000 0.82763  0.54219  0.83374  Biso   1.000  H
  H143     1.0000 0.08378  0.54799  0.82877  Biso   1.000  H
  H144     1.0000 0.75881  0.62660  0.83499  Biso   1.000  H
  H145     1.0000 0.81913  0.61411  0.86426  Biso   1.000  H
  H146     1.0000 0.95670  0.60772  0.84530  Biso   1.000  H
  H147     1.0000 0.30231  0.51684  0.89653  Biso   1.000  H
  H148     1.0000 0.22382  0.52772  0.86790  Biso   1.000  H
  H149     1.0000 0.45462  0.51537  0.87550  Biso   1.000  H
  H150     1.0000 0.90965  0.56224  0.89549  Biso   1.000  H
  H151     1.0000 0.09279  0.56396  0.87546  Biso   1.000  H
  H152     1.0000 0.94469  0.53760  0.89215  Biso   1.000  H
  H153     1.0000 0.58279  0.54187  0.96611  Biso   1.000  H
  H154     1.0000 0.43808  0.51685  0.98546  Biso   1.000  H
  H155     1.0000 0.63252  0.51457  0.96845  Biso   1.000  H
  H156     1.0000 0.07354  0.55430  0.99207  Biso   1.000  H
  H157     1.0000 0.24696  0.55309  0.97295  Biso   1.000  H
  H158     1.0000 0.89674  0.55415  0.95175  Biso   1.000  H
  H159     1.0000 0.84416  0.57029  0.96555  Biso   1.000  H
  H160     1.0000 0.13791  0.59622  0.94564  Biso   1.000  H
  H161     1.0000 0.20198  0.57873  0.93325  Biso   1.000  H
  H162     1.0000 0.89404  0.58765  0.91256  Biso   1.000  H
  H163     1.0000 0.82773  0.60453  0.92530  Biso   1.000  H
  H164     1.0000 0.95654  0.63061  0.88676  Biso   1.000  H
  H165     1.0000 0.12906  0.63076  0.90590  Biso   1.000  H
  H166     1.0000 0.15717  0.60167  0.88200  Biso   1.000  H
  H167     1.0000 0.27290  0.62987  0.87099  Biso   1.000  H
  H168     1.0000 0.33990  0.60663  0.89788  Biso   1.000  H
  H169     1.0000 0.75529  0.09904  0.50768  Biso   1.000  H
  H170     1.0000 0.84934  0.12582  0.50425  Biso   1.000  H
  H171     1.0000 0.95444  0.11495  0.48696  Biso   1.000  H
  H172     1.0000 0.95726  0.09077  0.53997  Biso   1.000  H
  H173     1.0000 0.14944  0.10991  0.52080  Biso   1.000  H
  H174     1.0000 0.23924  0.07139  0.53307  Biso   1.000  H
  H175     1.0000 0.18618  0.08429  0.50343  Biso   1.000  H
  H176     1.0000 0.85723  0.06366  0.51505  Biso   1.000  H
  H177     1.0000 0.90853  0.05111  0.54495  Biso   1.000  H
  H178     1.0000 0.18243  0.03127  0.53882  Biso   1.000  H
  H179     1.0000 0.14350  0.04518  0.50887  Biso   1.000  H
  H180     1.0000 0.77210  0.02401  0.52889  Biso   1.000  H
  H181     1.0000 0.92580  0.00483  0.54928  Biso   1.000  H
  H182     1.0000 0.39134  0.02845  0.48581  Biso   1.000  H
  H183     1.0000 0.56862  0.01142  0.50511  Biso   1.000  H
  H184     1.0000 0.44265  0.03071  0.51084  Biso   1.000  H
  H185     1.0000 0.15436  0.10507  0.43283  Biso   1.000  H
  H186     1.0000 0.02342  0.12144  0.44296  Biso   1.000  H
  H187     1.0000 0.18719  0.10131  0.46096  Biso   1.000  H
  H188     1.0000 0.66299  0.12189  0.39394  Biso   1.000  H
  H189     1.0000 0.90116  0.12941  0.39885  Biso   1.000  H
  H190     1.0000 0.79390  0.10073  0.41640  Biso   1.000  H
  H191     1.0000 0.19234  0.15170  0.45663  Biso   1.000  H
  H192     1.0000 0.31081  0.13257  0.48193  Biso   1.000  H
  H193     1.0000 0.40139  0.16181  0.46527  Biso   1.000  H
  H194     1.0000 0.07862  0.16957  0.38036  Biso   1.000  H
  H195     1.0000 0.32744  0.16346  0.37995  Biso   1.000  H
  H196     1.0000 0.17568  0.14806  0.40616  Biso   1.000  H
  H197     1.0000 0.30989  0.24765  0.41074  Biso   1.000  H
  H198     1.0000 0.33561  0.22251  0.43801  Biso   1.000  H
  H199     1.0000 0.54287  0.23612  0.41838  Biso   1.000  H
  H200     1.0000 0.85673  0.93714  0.53613  Biso   1.000  H
  H201     1.0000 0.54798  0.92390  0.52985  Biso   1.000  H
  H202     1.0000 0.93076  0.79185  0.62919  Biso   1.000  H
  H203     1.0000 0.44880  0.80435  0.57203  Biso   1.000  H
  H204     1.0000 0.05698  0.97675  0.54289  Biso   1.000  H
  H205     1.0000 0.52381  0.10855  0.47849  Biso   1.000  H
  H206     1.0000 0.63253  0.16027  0.39452  Biso   1.000  H
  H207     1.0000 0.18057  0.77695  0.60844  Biso   1.000  H
  H208     1.0000 0.37328  0.74402  0.62627  Biso   1.000  H
  H209     1.0000 0.66476  0.73373  0.63794  Biso   1.000  H
  H210     1.0000 0.37984  0.29596  0.39341  Biso   1.000  H
  H211     1.0000 0.60108  0.70300  0.60784  Biso   1.000  H
  H212     1.0000 0.35128  0.26364  0.36340  Biso   1.000  H
  H213     1.0000 0.64557  0.25622  0.37926  Biso   1.000  H
  H214     1.0000 0.83181  0.22262  0.39768  Biso   1.000  H
  H215     1.0000 0.36044  0.83695  0.60892  Biso   1.000  H
  H216     1.0000 0.46792  0.88815  0.52485  Biso   1.000  H
  H217     1.0000 0.93524  0.02020  0.46001  Biso   1.000  H
  H218     1.0000 0.55363  0.19232  0.43191  Biso   1.000  H
  H219     1.0000 0.07038  0.20663  0.37440  Biso   1.000  H
  H220     1.0000 0.44386  0.07298  0.47316  Biso   1.000  H
  H221     1.0000 0.13533  0.05985  0.46684  Biso   1.000  H
  H222     1.0000 0.47306  0.75960  0.58683  Biso   1.000  H
  H223     1.0000 0.66443  0.77549  0.56531  Biso   1.000  H
  H224     1.0000 0.71687  0.75084  0.59172  Biso   1.000  H
  H225     1.0000 0.80978  0.84992  0.59768  Biso   1.000  H
  H226     1.0000 0.66137  0.83374  0.62407  Biso   1.000  H
  H227     1.0000 0.91255  0.82877  0.62324  Biso   1.000  H
  H228     1.0000 0.59380  0.83499  0.53841  Biso   1.000  H
  H229     1.0000 0.68339  0.86426  0.52163  Biso   1.000  H
  H230     1.0000 0.80200  0.84530  0.54698  Biso   1.000  H
  H231     1.0000 0.19884  0.89653  0.58663  Biso   1.000  H
  H232     1.0000 0.09172  0.86790  0.60438  Biso   1.000  H
  H233     1.0000 0.33012  0.87550  0.60913  Biso   1.000  H
  H234     1.0000 0.80514  0.89549  0.54227  Biso   1.000  H
  H235     1.0000 0.96825  0.87546  0.56058  Biso   1.000  H
  H236     1.0000 0.83684  0.89215  0.57025  Biso   1.000  H
  H237     1.0000 0.54890  0.96611  0.49202  Biso   1.000  H
  H238     1.0000 0.42354  0.98546  0.49769  Biso   1.000  H
  H239     1.0000 0.60097  0.96845  0.51698  Biso   1.000  H
  H240     1.0000 0.06561  0.99207  0.45363  Biso   1.000  H
  H241     1.0000 0.21991  0.97295  0.47396  Biso   1.000  H
  H242     1.0000 0.84849  0.95175  0.49410  Biso   1.000  H
  H243     1.0000 0.80971  0.96555  0.46416  Biso   1.000  H
  H244     1.0000 0.08355  0.94564  0.45814  Biso   1.000  H
  H245     1.0000 0.13523  0.93325  0.48802  Biso   1.000  H
  H246     1.0000 0.80660  0.91256  0.49979  Biso   1.000  H
  H247     1.0000 0.75303  0.92530  0.47017  Biso   1.000  H
  H248     1.0000 0.84330  0.88676  0.48263  Biso   1.000  H
  H249     1.0000 0.03496  0.90590  0.46334  Biso   1.000  H
  H250     1.0000 0.03917  0.88200  0.51633  Biso   1.000  H
  H251     1.0000 0.14389  0.87099  0.49914  Biso   1.000  H
  H252     1.0000 0.23778  0.89788  0.49549  Biso   1.000  H
  C1       1.0000 0.39334  0.50419  0.38580  Biso   1.000  C
  C2       1.0000 0.55404  0.52275  0.37985  Biso   1.000  C
  C3       1.0000 0.64196  0.52106  0.40123  Biso   1.000  C
  C4       1.0000 0.50098  0.52731  0.41507  Biso   1.000  C
  C5       1.0000 0.59562  0.52609  0.43587  Biso   1.000  C
  C6       1.0000 0.45267  0.53093  0.45076  Biso   1.000  C
  C7       1.0000 0.00338  0.49687  0.47472  Biso   1.000  C
  C8       1.0000 0.52828  0.44803  0.44748  Biso   1.000  C
  C9       1.0000 0.17186  0.40736  0.47347  Biso   1.000  C
  C10      1.0000 0.79930  0.46416  0.38864  Biso   1.000  C
  C11      1.0000 0.59952  0.39052  0.44454  Biso   1.000  C
  C12      1.0000 0.80579  0.41961  0.34883  Biso   1.000  C
  C13      1.0000 0.61080  0.54473  0.54361  Biso   1.000  C
  C14      1.0000 0.54257  0.53476  0.53103  Biso   1.000  C
  C15      1.0000 0.85635  0.51997  0.53079  Biso   1.000  C
  C16      1.0000 0.92771  0.53113  0.54213  Biso   1.000  C
  C17      1.0000 0.44280  0.61654  0.58875  Biso   1.000  C
  C18      1.0000 0.33678  0.60658  0.57828  Biso   1.000  C
  C19      1.0000 0.25109  0.59367  0.62465  Biso   1.000  C
  C20      1.0000 0.13948  0.58441  0.61386  Biso   1.000  C
  C21      1.0000 0.66189  0.52211  0.52486  Biso   1.000  C
  C22      1.0000 0.80840  0.54386  0.54829  Biso   1.000  C
  C23      1.0000 0.18321  0.59018  0.59101  Biso   1.000  C
  C24      1.0000 0.40302  0.61028  0.61174  Biso   1.000  C
  C25      1.0000 0.55473  0.52480  0.48891  Biso   1.000  C
  C26      1.0000 0.47631  0.51540  0.47624  Biso   1.000  C
  C27      1.0000 0.41768  0.49175  0.48766  Biso   1.000  C
  C28      1.0000 0.91430  0.44967  0.40907  Biso   1.000  C
  C29      1.0000 0.00748  0.46013  0.41998  Biso   1.000  C
  C30      1.0000 0.09960  0.44716  0.44043  Biso   1.000  C
  C31      1.0000 0.09980  0.42304  0.45009  Biso   1.000  C
  C32      1.0000 0.02014  0.41285  0.43822  Biso   1.000  C
  C33      1.0000 0.92224  0.42570  0.41819  Biso   1.000  C
  C34      1.0000 0.84808  0.62908  0.62994  Biso   1.000  C
  C35      1.0000 0.72727  0.61858  0.62136  Biso   1.000  C
  C36      1.0000 0.52854  0.62088  0.62171  Biso   1.000  C
  C37      1.0000 0.45319  0.63467  0.62986  Biso   1.000  C
  C38      1.0000 0.45061  0.35662  0.36111  Biso   1.000  C
  C39      1.0000 0.24987  0.36089  0.35860  Biso   1.000  C
  C40      1.0000 0.11489  0.35232  0.34727  Biso   1.000  C
  C41      1.0000 0.90025  0.64896  0.65129  Biso   1.000  C
  C42      1.0000 0.77477  0.64214  0.63931  Biso   1.000  C
  C43      1.0000 0.57262  0.64558  0.63837  Biso   1.000  C
  C44      1.0000 0.56564  0.36749  0.37006  Biso   1.000  C
  C45      1.0000 0.48874  0.38264  0.37636  Biso   1.000  C
  C46      1.0000 0.29242  0.38639  0.37444  Biso   1.000  C
  C47      1.0000 0.17537  0.37566  0.36578  Biso   1.000  C
  C48      1.0000 0.07526  0.57785  0.58123  Biso   1.000  C
  C49      1.0000 0.97606  0.59056  0.56127  Biso   1.000  C
  C50      1.0000 0.89570  0.58023  0.54956  Biso   1.000  C
  C51      1.0000 0.89551  0.55610  0.55939  Biso   1.000  C
  C52      1.0000 0.98794  0.54323  0.57985  Biso   1.000  C
  C53      1.0000 0.08253  0.55384  0.59052  Biso   1.000  C
  C54      1.0000 0.57745  0.51112  0.51252  Biso   1.000  C
  C55      1.0000 0.51877  0.48749  0.52393  Biso   1.000  C
  C56      1.0000 0.44041  0.47809  0.51126  Biso   1.000  C
  C57      1.0000 0.60902  0.39326  0.38668  Biso   1.000  C
  C58      1.0000 0.81783  0.41354  0.40801  Biso   1.000  C
  C59      1.0000 0.18655  0.45925  0.45168  Biso   1.000  C
  C60      1.0000 0.33307  0.48078  0.47531  Biso   1.000  C
  C61      1.0000 0.86681  0.41940  0.38522  Biso   1.000  C
  C62      1.0000 0.76087  0.41000  0.37417  Biso   1.000  C
  C63      1.0000 0.66356  0.39710  0.42031  Biso   1.000  C
  C64      1.0000 0.56284  0.38704  0.40956  Biso   1.000  C
  C65      1.0000 0.06717  0.47188  0.45795  Biso   1.000  C
  C66      1.0000 0.13854  0.48294  0.46940  Biso   1.000  C
  C67      1.0000 0.45242  0.46822  0.46902  Biso   1.000  C
  C68      1.0000 0.38420  0.45837  0.45635  Biso   1.000  C
  C69      1.0000 0.21093  0.58407  0.65006  Biso   1.000  C
  C70      1.0000 0.39442  0.61324  0.55386  Biso   1.000  C
  C71      1.0000 0.19862  0.53944  0.61089  Biso   1.000  C
  C72      1.0000 0.82404  0.59579  0.52612  Biso   1.000  C
  C73      1.0000 0.46676  0.55522  0.55230  Biso   1.000  C
  C74      1.0000 0.99146  0.50596  0.52557  Biso   1.000  C
  C75      1.0000 0.54215  0.47198  0.54940  Biso   1.000  C
  C76      1.0000 0.39944  0.47688  0.56429  Biso   1.000  C
  C77      1.0000 0.49439  0.47577  0.58502  Biso   1.000  C
  C78      1.0000 0.35375  0.48215  0.59878  Biso   1.000  C
  C79      1.0000 0.44192  0.48058  0.62010  Biso   1.000  C
  C80      1.0000 0.60311  0.49909  0.61407  Biso   1.000  C
  C81      1.0000 0.77914  0.38580  0.11001  Biso   1.000  C
  C82      1.0000 0.93389  0.37985  0.09740  Biso   1.000  C
  C83      1.0000 0.04319  0.40123  0.07771  Biso   1.000  C
  C84      1.0000 0.91605  0.41507  0.05762  Biso   1.000  C
  C85      1.0000 0.03149  0.43587  0.03804  Biso   1.000  C
  C86      1.0000 0.90343  0.45076  0.01831  Biso   1.000  C
  C87      1.0000 0.47810  0.47472  0.02841  Biso   1.000  C
  C88      1.0000 0.97576  0.44748  0.10449  Biso   1.000  C
  C89      1.0000 0.64533  0.47347  0.11917  Biso   1.000  C
  C90      1.0000 0.18794  0.38864  0.14720  Biso   1.000  C
  C91      1.0000 0.04406  0.44454  0.16494  Biso   1.000  C
  C92      1.0000 0.15462  0.34883  0.23156  Biso   1.000  C
  C93      1.0000 0.15441  0.54361  0.91166  Biso   1.000  C
  C94      1.0000 0.07360  0.53103  0.93421  Biso   1.000  C
  C95      1.0000 0.38714  0.53079  0.94924  Biso   1.000  C
  C96      1.0000 0.46984  0.54213  0.92674  Biso   1.000  C
  C97      1.0000 0.03155  0.58875  0.79471  Biso   1.000  C
  C98      1.0000 0.91506  0.57828  0.81514  Biso   1.000  C
  C99      1.0000 0.87574  0.62465  0.78168  Biso   1.000  C
  C100     1.0000 0.75334  0.61386  0.80173  Biso   1.000  C
  C101     1.0000 0.18675  0.52486  0.95303  Biso   1.000  C
  C102     1.0000 0.35669  0.54829  0.90785  Biso   1.000  C
  C103     1.0000 0.77422  0.59101  0.81881  Biso   1.000  C
  C104     1.0000 0.01476  0.61174  0.77798  Biso   1.000  C
  C105     1.0000 0.04364  0.48891  0.98629  Biso   1.000  C
  C106     1.0000 0.95255  0.47624  0.00836  Biso   1.000  C
  C107     1.0000 0.90534  0.48766  0.02059  Biso   1.000  C
  C108     1.0000 0.32337  0.40907  0.14126  Biso   1.000  C
  C109     1.0000 0.42746  0.41998  0.11989  Biso   1.000  C
  C110     1.0000 0.54003  0.44043  0.11241  Biso   1.000  C
  C111     1.0000 0.54989  0.45009  0.12687  Biso   1.000  C
  C112     1.0000 0.45836  0.43822  0.14893  Biso   1.000  C
  C113     1.0000 0.34043  0.41819  0.15611  Biso   1.000  C
  C114     1.0000 0.47802  0.62994  0.74098  Biso   1.000  C
  C115     1.0000 0.34863  0.62136  0.76006  Biso   1.000  C
  C116     1.0000 0.15025  0.62171  0.75741  Biso   1.000  C
  C117     1.0000 0.08305  0.62986  0.73547  Biso   1.000  C
  C118     1.0000 0.81172  0.36111  0.28227  Biso   1.000  C
  C119     1.0000 0.60847  0.35860  0.28051  Biso   1.000  C
  C120     1.0000 0.46216  0.34727  0.30041  Biso   1.000  C
  C121     1.0000 0.55154  0.65129  0.69975  Biso   1.000  C
  C122     1.0000 0.41408  0.63931  0.71855  Biso   1.000  C
  C123     1.0000 0.21099  0.63837  0.71605  Biso   1.000  C
  C124     1.0000 0.93570  0.37006  0.26245  Biso   1.000  C
  C125     1.0000 0.86510  0.37636  0.24100  Biso   1.000  C
  C126     1.0000 0.66686  0.37444  0.23917  Biso   1.000  C
  C127     1.0000 0.54115  0.36578  0.25856  Biso   1.000  C
  C128     1.0000 0.65649  0.58123  0.84092  Biso   1.000  C
  C129     1.0000 0.53733  0.56127  0.84817  Biso   1.000  C
  C130     1.0000 0.44526  0.54956  0.87021  Biso   1.000  C
  C131     1.0000 0.45490  0.55939  0.88451  Biso   1.000  C
  C132     1.0000 0.56779  0.57985  0.87692  Biso   1.000  C
  C133     1.0000 0.67305  0.59052  0.85564  Biso   1.000  C
  C134     1.0000 0.08997  0.51252  0.97636  Biso   1.000  C
  C135     1.0000 0.04270  0.52393  0.98858  Biso   1.000  C
  C136     1.0000 0.95167  0.51126  0.01065  Biso   1.000  C
  C137     1.0000 0.99570  0.38668  0.22006  Biso   1.000  C
  C138     1.0000 0.22584  0.40801  0.17845  Biso   1.000  C
  C139     1.0000 0.63823  0.45168  0.08907  Biso   1.000  C
  C140     1.0000 0.80838  0.47531  0.04391  Biso   1.000  C
  C141     1.0000 0.25203  0.38522  0.19538  Biso   1.000  C
  C142     1.0000 0.13504  0.37417  0.21583  Biso   1.000  C
  C143     1.0000 0.08387  0.42031  0.18259  Biso   1.000  C
  C144     1.0000 0.97240  0.40956  0.20340  Biso   1.000  C
  C145     1.0000 0.52512  0.45795  0.07017  Biso   1.000  C
  C146     1.0000 0.60794  0.46940  0.04766  Biso   1.000  C
  C147     1.0000 0.92144  0.46902  0.06276  Biso   1.000  C
  C148     1.0000 0.84055  0.45635  0.08528  Biso   1.000  C
  C149     1.0000 0.86099  0.65006  0.76587  Biso   1.000  C
  C150     1.0000 0.94828  0.55386  0.83290  Biso   1.000  C
  C151     1.0000 0.80951  0.61089  0.84967  Biso   1.000  C
  C152     1.0000 0.35016  0.52612  0.87809  Biso   1.000  C
  C153     1.0000 0.01906  0.55230  0.89248  Biso   1.000  C
  C154     1.0000 0.51703  0.52557  0.96847  Biso   1.000  C
  C155     1.0000 0.09155  0.54940  0.97862  Biso   1.000  C
  C156     1.0000 0.96373  0.56429  0.95883  Biso   1.000  C
  C157     1.0000 0.07941  0.58502  0.93921  Biso   1.000  C
  C158     1.0000 0.95253  0.59878  0.91907  Biso   1.000  C
  C159     1.0000 0.06202  0.62010  0.89932  Biso   1.000  C
  C160     1.0000 0.21718  0.61407  0.88684  Biso   1.000  C
  C161     1.0000 0.88915  0.11001  0.50419  Biso   1.000  C
  C162     1.0000 0.03129  0.09740  0.52275  Biso   1.000  C
  C163     1.0000 0.12090  0.07771  0.52106  Biso   1.000  C
  C164     1.0000 0.97367  0.05762  0.52731  Biso   1.000  C
  C165     1.0000 0.06953  0.03804  0.52609  Biso   1.000  C
  C166     1.0000 0.92174  0.01831  0.53093  Biso   1.000  C
  C167     1.0000 0.50651  0.02841  0.49687  Biso   1.000  C
  C168     1.0000 0.08025  0.10449  0.44803  Biso   1.000  C
  C169     1.0000 0.76450  0.11917  0.40736  Biso   1.000  C
  C170     1.0000 0.33514  0.14720  0.46416  Biso   1.000  C
  C171     1.0000 0.20900  0.16494  0.39052  Biso   1.000  C
  C172     1.0000 0.38618  0.23156  0.41961  Biso   1.000  C
  C173     1.0000 0.06607  0.91166  0.54473  Biso   1.000  C
  C174     1.0000 0.00781  0.93421  0.53476  Biso   1.000  C
  C175     1.0000 0.33638  0.94924  0.51997  Biso   1.000  C
  C176     1.0000 0.39658  0.92674  0.53113  Biso   1.000  C
  C177     1.0000 0.82626  0.79471  0.61654  Biso   1.000  C
  C178     1.0000 0.73020  0.81514  0.60658  Biso   1.000  C
  C179     1.0000 0.65742  0.78168  0.59367  Biso   1.000  C
  C180     1.0000 0.55507  0.80173  0.58441  Biso   1.000  C
  C181     1.0000 0.13978  0.95303  0.52211  Biso   1.000  C
  C182     1.0000 0.26454  0.90785  0.54386  Biso   1.000  C
  C183     1.0000 0.59303  0.81881  0.59018  Biso   1.000  C
  C184     1.0000 0.79274  0.77798  0.61028  Biso   1.000  C
  C185     1.0000 0.02993  0.98629  0.52480  Biso   1.000  C
  C186     1.0000 0.96091  0.00836  0.51540  Biso   1.000  C
  C187     1.0000 0.92593  0.02059  0.49175  Biso   1.000  C
  C188     1.0000 0.46463  0.14126  0.44967  Biso   1.000  C
  C189     1.0000 0.54735  0.11989  0.46013  Biso   1.000  C
  C190     1.0000 0.65244  0.11241  0.44716  Biso   1.000  C
  C191     1.0000 0.67676  0.12687  0.42304  Biso   1.000  C
  C192     1.0000 0.60729  0.14893  0.41285  Biso   1.000  C
  C193     1.0000 0.49654  0.15611  0.42570  Biso   1.000  C
  C194     1.0000 0.21900  0.74098  0.62908  Biso   1.000  C
  C195     1.0000 0.10869  0.76006  0.61858  Biso   1.000  C
  C196     1.0000 0.90766  0.75741  0.62088  Biso   1.000  C
  C197     1.0000 0.81852  0.73547  0.63467  Biso   1.000  C
  C198     1.0000 0.09399  0.28227  0.35662  Biso   1.000  C
  C199     1.0000 0.88898  0.28051  0.36089  Biso   1.000  C
  C200     1.0000 0.76257  0.30041  0.35232  Biso   1.000  C
  C201     1.0000 0.25129  0.69975  0.64896  Biso   1.000  C
  C202     1.0000 0.13263  0.71855  0.64214  Biso   1.000  C
  C203     1.0000 0.92704  0.71605  0.64558  Biso   1.000  C
  C204     1.0000 0.19815  0.26245  0.36749  Biso   1.000  C
  C205     1.0000 0.10610  0.24100  0.38264  Biso   1.000  C
  C206     1.0000 0.90603  0.23917  0.38639  Biso   1.000  C
  C207     1.0000 0.79971  0.25856  0.37566  Biso   1.000  C
  C208     1.0000 0.49741  0.84092  0.57785  Biso   1.000  C
  C209     1.0000 0.38550  0.84817  0.59056  Biso   1.000  C
  C210     1.0000 0.31547  0.87021  0.58023  Biso   1.000  C
  C211     1.0000 0.33941  0.88451  0.55610  Biso   1.000  C
  C212     1.0000 0.44471  0.87692  0.54323  Biso   1.000  C
  C213     1.0000 0.52869  0.85564  0.55384  Biso   1.000  C
  C214     1.0000 0.06633  0.97636  0.51112  Biso   1.000  C
  C215     1.0000 0.03128  0.98858  0.48749  Biso   1.000  C
  C216     1.0000 0.96232  0.01065  0.47809  Biso   1.000  C
  C217     1.0000 0.21576  0.22006  0.39326  Biso   1.000  C
  C218     1.0000 0.40429  0.17845  0.41354  Biso   1.000  C
  C219     1.0000 0.72730  0.08907  0.45925  Biso   1.000  C
  C220     1.0000 0.85229  0.04391  0.48078  Biso   1.000  C
  C221     1.0000 0.44741  0.19538  0.41940  Biso   1.000  C
  C222     1.0000 0.35087  0.21583  0.41000  Biso   1.000  C
  C223     1.0000 0.26646  0.18259  0.39710  Biso   1.000  C
  C224     1.0000 0.17580  0.20340  0.38704  Biso   1.000  C
  C225     1.0000 0.59529  0.07017  0.47188  Biso   1.000  C
  C226     1.0000 0.65560  0.04766  0.48294  Biso   1.000  C
  C227     1.0000 0.98420  0.06276  0.46822  Biso   1.000  C
  C228     1.0000 0.92583  0.08528  0.45837  Biso   1.000  C
  C229     1.0000 0.62686  0.76587  0.58407  Biso   1.000  C
  C230     1.0000 0.78118  0.83290  0.61324  Biso   1.000  C
  C231     1.0000 0.65918  0.84967  0.53944  Biso   1.000  C
  C232     1.0000 0.22825  0.87809  0.59579  Biso   1.000  C
  C233     1.0000 0.91154  0.89248  0.55522  Biso   1.000  C
  C234     1.0000 0.48550  0.96847  0.50596  Biso   1.000  C
  C235     1.0000 0.07017  0.97862  0.47198  Biso   1.000  C
  C236     1.0000 0.92256  0.95883  0.47688  Biso   1.000  C
  C237     1.0000 0.01862  0.93921  0.47577  Biso   1.000  C
  C238     1.0000 0.87160  0.91907  0.48215  Biso   1.000  C
  C239     1.0000 0.96134  0.89932  0.48058  Biso   1.000  C
  C240     1.0000 0.10402  0.88684  0.49909  Biso   1.000  C
  O1       1.0000 0.65832  0.38396  0.31123  Biso   1.000  O
  O2       1.0000 0.53917  0.34046  0.35710  Biso   1.000  O
  O3       1.0000 0.17147  0.33924  0.33989  Biso   1.000  O
  O4       1.0000 0.94114  0.35868  0.34475  Biso   1.000  O
  O5       1.0000 0.07686  0.64373  0.65278  Biso   1.000  O
  O6       1.0000 0.83725  0.65973  0.66101  Biso   1.000  O
  O7       1.0000 0.49621  0.65886  0.64451  Biso   1.000  O
  O8       1.0000 0.33542  0.61607  0.68713  Biso   1.000  O
  O9       1.0000 0.96955  0.31123  0.30481  Biso   1.000  O
  O10      1.0000 0.89627  0.35710  0.30244  Biso   1.000  O
  O11      1.0000 0.51136  0.33989  0.32087  Biso   1.000  O
  O12      1.0000 0.28589  0.34475  0.29657  Biso   1.000  O
  O13      1.0000 0.72964  0.65278  0.70349  Biso   1.000  O
  O14      1.0000 0.49826  0.66101  0.67926  Biso   1.000  O
  O15      1.0000 0.14072  0.64451  0.69663  Biso   1.000  O
  O16      1.0000 0.02255  0.68713  0.69680  Biso   1.000  O
  O17      1.0000 0.27436  0.30481  0.38396  Biso   1.000  O
  O18      1.0000 0.19871  0.30244  0.34046  Biso   1.000  O
  O19      1.0000 0.83223  0.32087  0.33924  Biso   1.000  O
  O20      1.0000 0.58246  0.29657  0.35868  Biso   1.000  O
  O21      1.0000 0.43313  0.70349  0.64373  Biso   1.000  O
  O22      1.0000 0.17752  0.67926  0.65973  Biso   1.000  O
  O23      1.0000 0.83735  0.69663  0.65886  Biso   1.000  O
  O24      1.0000 0.71935  0.69680  0.61607  Biso   1.000  O
