data_image0
_cell_length_a       6.98861
_cell_length_b       53.1442
_cell_length_c       53.1442
_cell_angle_alpha    60.1905
_cell_angle_beta     87.4877
_cell_angle_gamma    92.5123

_symmetry_space_group_name_H-M    P 1
_symmetry_int_tables_number       1

loop_
  _symmetry_equiv_pos_as_xyz
  'x, y, z'

loop_
  _atom_site_label
  _atom_site_occupancy
  _atom_site_fract_x
  _atom_site_fract_y
  _atom_site_fract_z
  _atom_site_thermal_displace_type
  _atom_site_B_iso_or_equiv
  _atom_site_type_symbol
  Mg1      1.0000 0.90551  0.35272  0.33585  Biso   1.000  Mg
  Mg2      1.0000 0.88499  0.64354  0.67311  Biso   1.000  Mg
  Mg3      1.0000 0.24136  0.33585  0.31143  Biso   1.000  Mg
  Mg4      1.0000 0.55810  0.67311  0.68335  Biso   1.000  Mg
  Mg5      1.0000 0.55279  0.31143  0.35272  Biso   1.000  Mg
  Mg6      1.0000 0.24145  0.68335  0.64354  Biso   1.000  Mg
  H1       1.0000 0.97752  0.40600  0.31455  Biso   1.000  H
  H2       1.0000 0.85925  0.51462  0.35723  Biso   1.000  H
  H3       1.0000 0.02912  0.52092  0.37805  Biso   1.000  H
  H4       1.0000 0.88470  0.48680  0.39400  Biso   1.000  H
  H5       1.0000 0.59563  0.51283  0.39099  Biso   1.000  H
  H6       1.0000 0.73508  0.54690  0.37340  Biso   1.000  H
  H7       1.0000 0.67293  0.53448  0.42272  Biso   1.000  H
  H8       1.0000 0.91768  0.52974  0.41867  Biso   1.000  H
  H9       1.0000 0.87009  0.47757  0.44594  Biso   1.000  H
  H10      1.0000 0.62165  0.47777  0.44110  Biso   1.000  H
  H11      1.0000 0.58954  0.50313  0.47114  Biso   1.000  H
  H12      1.0000 0.83052  0.49701  0.47909  Biso   1.000  H
  H13      1.0000 0.76541  0.44739  0.51128  Biso   1.000  H
  H14      1.0000 0.58836  0.44300  0.49135  Biso   1.000  H
  H15      1.0000 0.05096  0.36732  0.56003  Biso   1.000  H
  H16      1.0000 0.24769  0.38869  0.56148  Biso   1.000  H
  H17      1.0000 0.00933  0.39886  0.56277  Biso   1.000  H
  H18      1.0000 0.16822  0.44609  0.41512  Biso   1.000  H
  H19      1.0000 0.17028  0.47886  0.41744  Biso   1.000  H
  H20      1.0000 0.37924  0.45983  0.42253  Biso   1.000  H
  H21      1.0000 0.08205  0.34519  0.50292  Biso   1.000  H
  H22      1.0000 0.16229  0.33681  0.47567  Biso   1.000  H
  H23      1.0000 0.26963  0.36797  0.47578  Biso   1.000  H
  H24      1.0000 0.63751  0.45228  0.39464  Biso   1.000  H
  H25      1.0000 0.63798  0.42985  0.37830  Biso   1.000  H
  H26      1.0000 0.45704  0.42337  0.40638  Biso   1.000  H
  H27      1.0000 0.17390  0.58931  0.57823  Biso   1.000  H
  H28      1.0000 0.60474  0.52901  0.63958  Biso   1.000  H
  H29      1.0000 0.69907  0.47987  0.53383  Biso   1.000  H
  H30      1.0000 0.31706  0.47339  0.46441  Biso   1.000  H
  H31      1.0000 0.95230  0.37761  0.51467  Biso   1.000  H
  H32      1.0000 0.38095  0.57331  0.62262  Biso   1.000  H
  H33      1.0000 0.58811  0.60312  0.63377  Biso   1.000  H
  H34      1.0000 0.90929  0.61808  0.62821  Biso   1.000  H
  H35      1.0000 0.76370  0.40056  0.31124  Biso   1.000  H
  H36      1.0000 0.00735  0.59947  0.71382  Biso   1.000  H
  H37      1.0000 0.86584  0.35559  0.39509  Biso   1.000  H
  H38      1.0000 0.17526  0.35951  0.40189  Biso   1.000  H
  H39      1.0000 0.36848  0.37512  0.42833  Biso   1.000  H
  H40      1.0000 0.56393  0.56290  0.55449  Biso   1.000  H
  H41      1.0000 0.58167  0.45570  0.60434  Biso   1.000  H
  H42      1.0000 0.02352  0.44901  0.54089  Biso   1.000  H
  H43      1.0000 0.80917  0.43964  0.43525  Biso   1.000  H
  H44      1.0000 0.90044  0.34208  0.44842  Biso   1.000  H
  H45      1.0000 0.78043  0.57196  0.66669  Biso   1.000  H
  H46      1.0000 0.68153  0.53602  0.67809  Biso   1.000  H
  H47      1.0000 0.93024  0.54227  0.67933  Biso   1.000  H
  H48      1.0000 0.90367  0.57075  0.53840  Biso   1.000  H
  H49      1.0000 0.14545  0.57197  0.54607  Biso   1.000  H
  H50      1.0000 0.01577  0.53734  0.55986  Biso   1.000  H
  H51      1.0000 0.73861  0.45452  0.64291  Biso   1.000  H
  H52      1.0000 0.90690  0.48549  0.63026  Biso   1.000  H
  H53      1.0000 0.68814  0.48244  0.65073  Biso   1.000  H
  H54      1.0000 0.40294  0.56379  0.51653  Biso   1.000  H
  H55      1.0000 0.46949  0.53629  0.50829  Biso   1.000  H
  H56      1.0000 0.24525  0.53201  0.52765  Biso   1.000  H
  H57      1.0000 0.14172  0.48254  0.58624  Biso   1.000  H
  H58      1.0000 0.96624  0.48028  0.56475  Biso   1.000  H
  H59      1.0000 0.88982  0.44043  0.61406  Biso   1.000  H
  H60      1.0000 0.96394  0.42511  0.59280  Biso   1.000  H
  H61      1.0000 0.11018  0.39921  0.63638  Biso   1.000  H
  H62      1.0000 0.29726  0.42378  0.61154  Biso   1.000  H
  H63      1.0000 0.24255  0.45753  0.63191  Biso   1.000  H
  H64      1.0000 0.05950  0.43208  0.65701  Biso   1.000  H
  H65      1.0000 0.47171  0.41682  0.65372  Biso   1.000  H
  H66      1.0000 0.38745  0.43112  0.67603  Biso   1.000  H
  H67      1.0000 0.14194  0.38856  0.70154  Biso   1.000  H
  H68      1.0000 0.24264  0.37328  0.68062  Biso   1.000  H
  H69      1.0000 0.38123  0.37822  0.70551  Biso   1.000  H
  H70      1.0000 0.80498  0.59125  0.70836  Biso   1.000  H
  H71      1.0000 0.29207  0.31455  0.27945  Biso   1.000  H
  H72      1.0000 0.21648  0.35723  0.12815  Biso   1.000  H
  H73      1.0000 0.40717  0.37805  0.10103  Biso   1.000  H
  H74      1.0000 0.27870  0.39400  0.11920  Biso   1.000  H
  H75      1.0000 0.98662  0.39099  0.09618  Biso   1.000  H
  H76      1.0000 0.10848  0.37340  0.07970  Biso   1.000  H
  H77      1.0000 0.09565  0.42272  0.04280  Biso   1.000  H
  H78      1.0000 0.33635  0.41867  0.05159  Biso   1.000  H
  H79      1.0000 0.31603  0.44594  0.07649  Biso   1.000  H
  H80      1.0000 0.06275  0.44110  0.08113  Biso   1.000  H
  H81      1.0000 0.06068  0.47114  0.02573  Biso   1.000  H
  H82      1.0000 0.30961  0.47909  0.02390  Biso   1.000  H
  H83      1.0000 0.27669  0.51128  0.04133  Biso   1.000  H
  H84      1.0000 0.07971  0.49135  0.06565  Biso   1.000  H
  H85      1.0000 0.61099  0.56003  0.07265  Biso   1.000  H
  H86      1.0000 0.80917  0.56148  0.04983  Biso   1.000  H
  H87      1.0000 0.57210  0.56277  0.03837  Biso   1.000  H
  H88      1.0000 0.58334  0.41512  0.13879  Biso   1.000  H
  H89      1.0000 0.58772  0.41744  0.10370  Biso   1.000  H
  H90      1.0000 0.80177  0.42253  0.11764  Biso   1.000  H
  H91      1.0000 0.58497  0.50292  0.15189  Biso   1.000  H
  H92      1.0000 0.63796  0.47567  0.18752  Biso   1.000  H
  H93      1.0000 0.74541  0.47578  0.15625  Biso   1.000  H
  H94      1.0000 0.03215  0.39464  0.15308  Biso   1.000  H
  H95      1.0000 0.01628  0.37830  0.19185  Biso   1.000  H
  H96      1.0000 0.86342  0.40638  0.17025  Biso   1.000  H
  H97      1.0000 0.75213  0.57823  0.83246  Biso   1.000  H
  H98      1.0000 0.24432  0.63958  0.83141  Biso   1.000  H
  H99      1.0000 0.23290  0.53383  0.98630  Biso   1.000  H
  H100     1.0000 0.78147  0.46441  0.06220  Biso   1.000  H
  H101     1.0000 0.46697  0.51467  0.10772  Biso   1.000  H
  H102     1.0000 0.00357  0.62262  0.80407  Biso   1.000  H
  H103     1.0000 0.22188  0.63377  0.76311  Biso   1.000  H
  H104     1.0000 0.53750  0.62821  0.75371  Biso   1.000  H
  H105     1.0000 0.07494  0.31124  0.28820  Biso   1.000  H
  H106     1.0000 0.72117  0.71382  0.68671  Biso   1.000  H
  H107     1.0000 0.26093  0.39509  0.24932  Biso   1.000  H
  H108     1.0000 0.57715  0.40189  0.23860  Biso   1.000  H
  H109     1.0000 0.79681  0.42833  0.19655  Biso   1.000  H
  H110     1.0000 0.11842  0.55449  0.88261  Biso   1.000  H
  H111     1.0000 0.18601  0.60434  0.93996  Biso   1.000  H
  H112     1.0000 0.56441  0.54089  0.01010  Biso   1.000  H
  H113     1.0000 0.24442  0.43525  0.12511  Biso   1.000  H
  H114     1.0000 0.34886  0.44842  0.20950  Biso   1.000  H
  H115     1.0000 0.44712  0.66669  0.76135  Biso   1.000  H
  H116     1.0000 0.35962  0.67809  0.78589  Biso   1.000  H
  H117     1.0000 0.60957  0.67933  0.77840  Biso   1.000  H
  H118     1.0000 0.44207  0.53840  0.89085  Biso   1.000  H
  H119     1.0000 0.69152  0.54607  0.88196  Biso   1.000  H
  H120     1.0000 0.57563  0.55986  0.90280  Biso   1.000  H
  H121     1.0000 0.38152  0.64291  0.90257  Biso   1.000  H
  H122     1.0000 0.53716  0.63026  0.88425  Biso   1.000  H
  H123     1.0000 0.33887  0.65073  0.86683  Biso   1.000  H
  H124     1.0000 0.91947  0.51653  0.91968  Biso   1.000  H
  H125     1.0000 0.97778  0.50829  0.95542  Biso   1.000  H
  H126     1.0000 0.77290  0.52765  0.94034  Biso   1.000  H
  H127     1.0000 0.72796  0.58624  0.93122  Biso   1.000  H
  H128     1.0000 0.53099  0.56475  0.95497  Biso   1.000  H
  H129     1.0000 0.50388  0.61406  0.94551  Biso   1.000  H
  H130     1.0000 0.55674  0.59280  0.98209  Biso   1.000  H
  H131     1.0000 0.74656  0.63638  0.96441  Biso   1.000  H
  H132     1.0000 0.90880  0.61154  0.96468  Biso   1.000  H
  H133     1.0000 0.87446  0.63191  0.91056  Biso   1.000  H
  H134     1.0000 0.71651  0.65701  0.91091  Biso   1.000  H
  H135     1.0000 0.12543  0.65372  0.92946  Biso   1.000  H
  H136     1.0000 0.06348  0.67603  0.89285  Biso   1.000  H
  H137     1.0000 0.84348  0.70154  0.90990  Biso   1.000  H
  H138     1.0000 0.92326  0.68062  0.94610  Biso   1.000  H
  H139     1.0000 0.08674  0.70551  0.91627  Biso   1.000  H
  H140     1.0000 0.51334  0.70836  0.70039  Biso   1.000  H
  H141     1.0000 0.57152  0.27945  0.40600  Biso   1.000  H
  H142     1.0000 0.34463  0.12815  0.51462  Biso   1.000  H
  H143     1.0000 0.50820  0.10103  0.52092  Biso   1.000  H
  H144     1.0000 0.39790  0.11920  0.48680  Biso   1.000  H
  H145     1.0000 0.08280  0.09618  0.51283  Biso   1.000  H
  H146     1.0000 0.18818  0.07970  0.54690  Biso   1.000  H
  H147     1.0000 0.13845  0.04280  0.53448  Biso   1.000  H
  H148     1.0000 0.38794  0.05159  0.52974  Biso   1.000  H
  H149     1.0000 0.39252  0.07649  0.47757  Biso   1.000  H
  H150     1.0000 0.14388  0.08113  0.47777  Biso   1.000  H
  H151     1.0000 0.08641  0.02573  0.50313  Biso   1.000  H
  H152     1.0000 0.33351  0.02390  0.49701  Biso   1.000  H
  H153     1.0000 0.31802  0.04133  0.44739  Biso   1.000  H
  H154     1.0000 0.14536  0.06565  0.44300  Biso   1.000  H
  H155     1.0000 0.68364  0.07265  0.36732  Biso   1.000  H
  H156     1.0000 0.85900  0.04983  0.38869  Biso   1.000  H
  H157     1.0000 0.61047  0.03837  0.39886  Biso   1.000  H
  H158     1.0000 0.72213  0.13879  0.44609  Biso   1.000  H
  H159     1.0000 0.69142  0.10370  0.47886  Biso   1.000  H
  H160     1.0000 0.91941  0.11764  0.45983  Biso   1.000  H
  H161     1.0000 0.73686  0.15189  0.34519  Biso   1.000  H
  H162     1.0000 0.82548  0.18752  0.33681  Biso   1.000  H
  H163     1.0000 0.90166  0.15625  0.36797  Biso   1.000  H
  H164     1.0000 0.18523  0.15308  0.45228  Biso   1.000  H
  H165     1.0000 0.20813  0.19185  0.42985  Biso   1.000  H
  H166     1.0000 0.03367  0.17025  0.42337  Biso   1.000  H
  H167     1.0000 0.58459  0.83246  0.58931  Biso   1.000  H
  H168     1.0000 0.07573  0.83141  0.52901  Biso   1.000  H
  H169     1.0000 0.21920  0.98630  0.47987  Biso   1.000  H
  H170     1.0000 0.84367  0.06220  0.47339  Biso   1.000  H
  H171     1.0000 0.57469  0.10772  0.37761  Biso   1.000  H
  H172     1.0000 0.80764  0.80407  0.57331  Biso   1.000  H
  H173     1.0000 0.98499  0.76311  0.60312  Biso   1.000  H
  H174     1.0000 0.29121  0.75371  0.61808  Biso   1.000  H
  H175     1.0000 0.36314  0.28820  0.40056  Biso   1.000  H
  H176     1.0000 0.40788  0.68671  0.59947  Biso   1.000  H
  H177     1.0000 0.51025  0.24932  0.35559  Biso   1.000  H
  H178     1.0000 0.81575  0.23860  0.35951  Biso   1.000  H
  H179     1.0000 0.99336  0.19655  0.37512  Biso   1.000  H
  H180     1.0000 0.00103  0.88261  0.56290  Biso   1.000  H
  H181     1.0000 0.12597  0.93996  0.45570  Biso   1.000  H
  H182     1.0000 0.57451  0.01010  0.44901  Biso   1.000  H
  H183     1.0000 0.36953  0.12511  0.43964  Biso   1.000  H
  H184     1.0000 0.55836  0.20950  0.34208  Biso   1.000  H
  H185     1.0000 0.20847  0.76135  0.57196  Biso   1.000  H
  H186     1.0000 0.14551  0.78589  0.53602  Biso   1.000  H
  H187     1.0000 0.38797  0.77840  0.54227  Biso   1.000  H
  H188     1.0000 0.33292  0.89085  0.57075  Biso   1.000  H
  H189     1.0000 0.57348  0.88196  0.57197  Biso   1.000  H
  H190     1.0000 0.47843  0.90280  0.53734  Biso   1.000  H
  H191     1.0000 0.28409  0.90257  0.45452  Biso   1.000  H
  H192     1.0000 0.42141  0.88425  0.48549  Biso   1.000  H
  H193     1.0000 0.20570  0.86683  0.48244  Biso   1.000  H
  H194     1.0000 0.83915  0.91968  0.56379  Biso   1.000  H
  H195     1.0000 0.93320  0.95542  0.53629  Biso   1.000  H
  H196     1.0000 0.71324  0.94034  0.53201  Biso   1.000  H
  H197     1.0000 0.65918  0.93122  0.48254  Biso   1.000  H
  H198     1.0000 0.48596  0.95497  0.48028  Biso   1.000  H
  H199     1.0000 0.44939  0.94551  0.44043  Biso   1.000  H
  H200     1.0000 0.53883  0.98209  0.42511  Biso   1.000  H
  H201     1.0000 0.71097  0.96441  0.39921  Biso   1.000  H
  H202     1.0000 0.87348  0.96468  0.42378  Biso   1.000  H
  H203     1.0000 0.78502  0.91056  0.45753  Biso   1.000  H
  H204     1.0000 0.62742  0.91091  0.43208  Biso   1.000  H
  H205     1.0000 0.05489  0.92946  0.41682  Biso   1.000  H
  H206     1.0000 0.95633  0.89285  0.43112  Biso   1.000  H
  H207     1.0000 0.75338  0.90990  0.38856  Biso   1.000  H
  H208     1.0000 0.86936  0.94610  0.37328  Biso   1.000  H
  H209     1.0000 0.00301  0.91627  0.37822  Biso   1.000  H
  H210     1.0000 0.21373  0.70039  0.59125  Biso   1.000  H
  C1       1.0000 0.88740  0.51060  0.37925  Biso   1.000  C
  C2       1.0000 0.73653  0.52345  0.38979  Biso   1.000  C
  C3       1.0000 0.77250  0.52071  0.41933  Biso   1.000  C
  C4       1.0000 0.74228  0.48916  0.44481  Biso   1.000  C
  C5       1.0000 0.70231  0.48836  0.47383  Biso   1.000  C
  C6       1.0000 0.64076  0.45753  0.49931  Biso   1.000  C
  C7       1.0000 0.10690  0.38988  0.55295  Biso   1.000  C
  C8       1.0000 0.22371  0.45700  0.42669  Biso   1.000  C
  C9       1.0000 0.13411  0.35490  0.47978  Biso   1.000  C
  C10      1.0000 0.60835  0.42969  0.39908  Biso   1.000  C
  C11      1.0000 0.05010  0.57598  0.59172  Biso   1.000  C
  C12      1.0000 0.94074  0.55986  0.58265  Biso   1.000  C
  C13      1.0000 0.84521  0.55704  0.63617  Biso   1.000  C
  C14      1.0000 0.72941  0.54216  0.62627  Biso   1.000  C
  C15      1.0000 0.77656  0.54312  0.59984  Biso   1.000  C
  C16      1.0000 0.00410  0.57496  0.61815  Biso   1.000  C
  C17      1.0000 0.55220  0.47233  0.53592  Biso   1.000  C
  C18      1.0000 0.49401  0.45921  0.51995  Biso   1.000  C
  C19      1.0000 0.30044  0.44999  0.52231  Biso   1.000  C
  C20      1.0000 0.17373  0.44016  0.45902  Biso   1.000  C
  C21      1.0000 0.24378  0.45194  0.47548  Biso   1.000  C
  C22      1.0000 0.22389  0.43633  0.50595  Biso   1.000  C
  C23      1.0000 0.12377  0.40858  0.52026  Biso   1.000  C
  C24      1.0000 0.03970  0.39790  0.50370  Biso   1.000  C
  C25      1.0000 0.06420  0.41317  0.47322  Biso   1.000  C
  C26      1.0000 0.43990  0.60643  0.63354  Biso   1.000  C
  C27      1.0000 0.32135  0.58921  0.62709  Biso   1.000  C
  C28      1.0000 0.12783  0.59237  0.62644  Biso   1.000  C
  C29      1.0000 0.05592  0.61389  0.63113  Biso   1.000  C
  C30      1.0000 0.60594  0.34631  0.38134  Biso   1.000  C
  C31      1.0000 0.40623  0.34845  0.38195  Biso   1.000  C
  C32      1.0000 0.28011  0.34466  0.36211  Biso   1.000  C
  C33      1.0000 0.50306  0.64058  0.65179  Biso   1.000  C
  C34      1.0000 0.36938  0.62703  0.64013  Biso   1.000  C
  C35      1.0000 0.17196  0.63115  0.63813  Biso   1.000  C
  C36      1.0000 0.71535  0.35679  0.39599  Biso   1.000  C
  C37      1.0000 0.63266  0.36836  0.41203  Biso   1.000  C
  C38      1.0000 0.43648  0.36768  0.41492  Biso   1.000  C
  C39      1.0000 0.32553  0.35823  0.39992  Biso   1.000  C
  C40      1.0000 0.66046  0.52526  0.59107  Biso   1.000  C
  C41      1.0000 0.56583  0.53943  0.56558  Biso   1.000  C
  C42      1.0000 0.48366  0.52390  0.55338  Biso   1.000  C
  C43      1.0000 0.49210  0.49347  0.56744  Biso   1.000  C
  C44      1.0000 0.57693  0.47907  0.59375  Biso   1.000  C
  C45      1.0000 0.66027  0.49459  0.60594  Biso   1.000  C
  C46      1.0000 0.42338  0.47675  0.55381  Biso   1.000  C
  C47      1.0000 0.23172  0.46717  0.55656  Biso   1.000  C
  C48      1.0000 0.17239  0.45483  0.54002  Biso   1.000  C
  C49      1.0000 0.74984  0.38059  0.42642  Biso   1.000  C
  C50      1.0000 0.96227  0.40149  0.45689  Biso   1.000  C
  C51      1.0000 0.83099  0.41852  0.43783  Biso   1.000  C
  C52      1.0000 0.72930  0.40890  0.42185  Biso   1.000  C
  C53      1.0000 0.99047  0.37378  0.46035  Biso   1.000  C
  C54      1.0000 0.88275  0.36360  0.44522  Biso   1.000  C
  C55      1.0000 0.80668  0.55161  0.66668  Biso   1.000  C
  C56      1.0000 0.00501  0.56001  0.55517  Biso   1.000  C
  C57      1.0000 0.75429  0.47838  0.63395  Biso   1.000  C
  C58      1.0000 0.39539  0.53999  0.52486  Biso   1.000  C
  C59      1.0000 0.08705  0.46912  0.57717  Biso   1.000  C
  C60      1.0000 0.01431  0.43864  0.60207  Biso   1.000  C
  C61      1.0000 0.16232  0.42250  0.62355  Biso   1.000  C
  C62      1.0000 0.19432  0.43409  0.64453  Biso   1.000  C
  C63      1.0000 0.34438  0.41823  0.66569  Biso   1.000  C
  C64      1.0000 0.27210  0.38771  0.68974  Biso   1.000  C
  C65      1.0000 0.26665  0.37925  0.11015  Biso   1.000  C
  C66      1.0000 0.12632  0.38979  0.08676  Biso   1.000  C
  C67      1.0000 0.19183  0.41933  0.05996  Biso   1.000  C
  C68      1.0000 0.18709  0.44481  0.06603  Biso   1.000  C
  C69      1.0000 0.17614  0.47383  0.03781  Biso   1.000  C
  C70      1.0000 0.14007  0.49931  0.04316  Biso   1.000  C
  C71      1.0000 0.65985  0.55295  0.05717  Biso   1.000  C
  C72      1.0000 0.65040  0.42669  0.11631  Biso   1.000  C
  C73      1.0000 0.61389  0.47978  0.16532  Biso   1.000  C
  C74      1.0000 0.00743  0.39908  0.17123  Biso   1.000  C
  C75      1.0000 0.64182  0.59172  0.83230  Biso   1.000  C
  C76      1.0000 0.52339  0.58265  0.85749  Biso   1.000  C
  C77      1.0000 0.48138  0.63617  0.80679  Biso   1.000  C
  C78      1.0000 0.35568  0.62627  0.83157  Biso   1.000  C
  C79      1.0000 0.37640  0.59984  0.85704  Biso   1.000  C
  C80      1.0000 0.62225  0.61815  0.80689  Biso   1.000  C
  C81      1.0000 0.08812  0.53592  0.99175  Biso   1.000  C
  C82      1.0000 0.01396  0.51995  0.02084  Biso   1.000  C
  C83      1.0000 0.82275  0.52231  0.02770  Biso   1.000  C
  C84      1.0000 0.63275  0.45902  0.10082  Biso   1.000  C
  C85      1.0000 0.71926  0.47548  0.07258  Biso   1.000  C
  C86      1.0000 0.72984  0.50595  0.05772  Biso   1.000  C
  C87      1.0000 0.64403  0.52026  0.07116  Biso   1.000  C
  C88      1.0000 0.54340  0.50370  0.09840  Biso   1.000  C
  C89      1.0000 0.53742  0.47322  0.11361  Biso   1.000  C
  C90      1.0000 0.07344  0.63354  0.76003  Biso   1.000  C
  C91      1.0000 0.94844  0.62709  0.78370  Biso   1.000  C
  C92      1.0000 0.75427  0.62644  0.78119  Biso   1.000  C
  C93      1.0000 0.68705  0.63113  0.75498  Biso   1.000  C
  C94      1.0000 0.98728  0.38134  0.27235  Biso   1.000  C
  C95      1.0000 0.78818  0.38195  0.26960  Biso   1.000  C
  C96      1.0000 0.64222  0.36211  0.29323  Biso   1.000  C
  C97      1.0000 0.15485  0.65179  0.70763  Biso   1.000  C
  C98      1.0000 0.00951  0.64013  0.73284  Biso   1.000  C
  C99      1.0000 0.81009  0.63813  0.73072  Biso   1.000  C
  C100     1.0000 0.11134  0.39599  0.24722  Biso   1.000  C
  C101     1.0000 0.04469  0.41203  0.21961  Biso   1.000  C
  C102     1.0000 0.85140  0.41492  0.21740  Biso   1.000  C
  C103     1.0000 0.72545  0.39992  0.24185  Biso   1.000  C
  C104     1.0000 0.25153  0.59107  0.88367  Biso   1.000  C
  C105     1.0000 0.13141  0.56558  0.89499  Biso   1.000  C
  C106     1.0000 0.03704  0.55338  0.92272  Biso   1.000  C
  C107     1.0000 0.05954  0.56744  0.93909  Biso   1.000  C
  C108     1.0000 0.17068  0.59375  0.92718  Biso   1.000  C
  C109     1.0000 0.26621  0.60594  0.89947  Biso   1.000  C
  C110     1.0000 0.97719  0.55381  0.96944  Biso   1.000  C
  C111     1.0000 0.78828  0.55656  0.97627  Biso   1.000  C
  C112     1.0000 0.71241  0.54002  0.00515  Biso   1.000  C
  C113     1.0000 0.17626  0.42642  0.19299  Biso   1.000  C
  C114     1.0000 0.41916  0.45689  0.14162  Biso   1.000  C
  C115     1.0000 0.26882  0.43783  0.14365  Biso   1.000  C
  C116     1.0000 0.15115  0.42185  0.16925  Biso   1.000  C
  C117     1.0000 0.45082  0.46035  0.16587  Biso   1.000  C
  C118     1.0000 0.32797  0.44522  0.19118  Biso   1.000  C
  C119     1.0000 0.47336  0.66668  0.78171  Biso   1.000  C
  C120     1.0000 0.56018  0.55517  0.88482  Biso   1.000  C
  C121     1.0000 0.38824  0.63395  0.88767  Biso   1.000  C
  C122     1.0000 0.92025  0.52486  0.93515  Biso   1.000  C
  C123     1.0000 0.66422  0.57717  0.95371  Biso   1.000  C
  C124     1.0000 0.61638  0.60207  0.95929  Biso   1.000  C
  C125     1.0000 0.78587  0.62355  0.95395  Biso   1.000  C
  C126     1.0000 0.83885  0.64453  0.92138  Biso   1.000  C
  C127     1.0000 0.01007  0.66569  0.91608  Biso   1.000  C
  C128     1.0000 0.96184  0.68974  0.92255  Biso   1.000  C
  C129     1.0000 0.37680  0.11015  0.51060  Biso   1.000  C
  C130     1.0000 0.21308  0.08676  0.52345  Biso   1.000  C
  C131     1.0000 0.25179  0.05996  0.52071  Biso   1.000  C
  C132     1.0000 0.25312  0.06603  0.48916  Biso   1.000  C
  C133     1.0000 0.21395  0.03781  0.48836  Biso   1.000  C
  C134     1.0000 0.18323  0.04316  0.45753  Biso   1.000  C
  C135     1.0000 0.71702  0.05717  0.38988  Biso   1.000  C
  C136     1.0000 0.76671  0.11631  0.45700  Biso   1.000  C
  C137     1.0000 0.77921  0.16532  0.35490  Biso   1.000  C
  C138     1.0000 0.17866  0.17123  0.42969  Biso   1.000  C
  C139     1.0000 0.47412  0.83230  0.57598  Biso   1.000  C
  C140     1.0000 0.38088  0.85749  0.55986  Biso   1.000  C
  C141     1.0000 0.28817  0.80679  0.55704  Biso   1.000  C
  C142     1.0000 0.18725  0.83157  0.54216  Biso   1.000  C
  C143     1.0000 0.23344  0.85704  0.54312  Biso   1.000  C
  C144     1.0000 0.42914  0.80689  0.57496  Biso   1.000  C
  C145     1.0000 0.07987  0.99175  0.47233  Biso   1.000  C
  C146     1.0000 0.03480  0.02084  0.45921  Biso   1.000  C
  C147     1.0000 0.85045  0.02770  0.44999  Biso   1.000  C
  C148     1.0000 0.73357  0.10082  0.44016  Biso   1.000  C
  C149     1.0000 0.79184  0.07258  0.45194  Biso   1.000  C
  C150     1.0000 0.78756  0.05772  0.43633  Biso   1.000  C
  C151     1.0000 0.71519  0.07116  0.40858  Biso   1.000  C
  C152     1.0000 0.64180  0.09840  0.39790  Biso   1.000  C
  C153     1.0000 0.65103  0.11361  0.41317  Biso   1.000  C
  C154     1.0000 0.83347  0.76003  0.60643  Biso   1.000  C
  C155     1.0000 0.73214  0.78370  0.58921  Biso   1.000  C
  C156     1.0000 0.53546  0.78119  0.59237  Biso   1.000  C
  C157     1.0000 0.44203  0.75498  0.61389  Biso   1.000  C
  C158     1.0000 0.25963  0.27235  0.34631  Biso   1.000  C
  C159     1.0000 0.05778  0.26960  0.34845  Biso   1.000  C
  C160     1.0000 0.93545  0.29323  0.34466  Biso   1.000  C
  C161     1.0000 0.86248  0.70763  0.64058  Biso   1.000  C
  C162     1.0000 0.74235  0.73284  0.62703  Biso   1.000  C
  C163     1.0000 0.54081  0.73072  0.63115  Biso   1.000  C
  C164     1.0000 0.35856  0.24722  0.35679  Biso   1.000  C
  C165     1.0000 0.26430  0.21961  0.36836  Biso   1.000  C
  C166     1.0000 0.06880  0.21740  0.36768  Biso   1.000  C
  C167     1.0000 0.96730  0.24185  0.35823  Biso   1.000  C
  C168     1.0000 0.13520  0.88367  0.52526  Biso   1.000  C
  C169     1.0000 0.02640  0.89499  0.53943  Biso   1.000  C
  C170     1.0000 0.95976  0.92272  0.52390  Biso   1.000  C
  C171     1.0000 0.99863  0.93909  0.49347  Biso   1.000  C
  C172     1.0000 0.09786  0.92718  0.47907  Biso   1.000  C
  C173     1.0000 0.16568  0.89947  0.49459  Biso   1.000  C
  C174     1.0000 0.94663  0.96944  0.47675  Biso   1.000  C
  C175     1.0000 0.76455  0.97627  0.46717  Biso   1.000  C
  C176     1.0000 0.71756  0.00515  0.45483  Biso   1.000  C
  C177     1.0000 0.36925  0.19299  0.38059  Biso   1.000  C
  C178     1.0000 0.56078  0.14162  0.40149  Biso   1.000  C
  C179     1.0000 0.41247  0.14365  0.41852  Biso   1.000  C
  C180     1.0000 0.32040  0.16925  0.40890  Biso   1.000  C
  C181     1.0000 0.61669  0.16587  0.37378  Biso   1.000  C
  C182     1.0000 0.51915  0.19118  0.36360  Biso   1.000  C
  C183     1.0000 0.25507  0.78171  0.55161  Biso   1.000  C
  C184     1.0000 0.44500  0.88482  0.56001  Biso   1.000  C
  C185     1.0000 0.27591  0.88767  0.47838  Biso   1.000  C
  C186     1.0000 0.85540  0.93515  0.53999  Biso   1.000  C
  C187     1.0000 0.61793  0.95371  0.46912  Biso   1.000  C
  C188     1.0000 0.57567  0.95929  0.43864  Biso   1.000  C
  C189     1.0000 0.73982  0.95395  0.42250  Biso   1.000  C
  C190     1.0000 0.76023  0.92138  0.43409  Biso   1.000  C
  C191     1.0000 0.92615  0.91608  0.41823  Biso   1.000  C
  C192     1.0000 0.88439  0.92255  0.38771  Biso   1.000  C
  O1       1.0000 0.86082  0.39386  0.32548  Biso   1.000  O
  O2       1.0000 0.69912  0.33158  0.36931  Biso   1.000  O
  O3       1.0000 0.34455  0.33604  0.34518  Biso   1.000  O
  O4       1.0000 0.10801  0.35118  0.36170  Biso   1.000  O
  O5       1.0000 0.67450  0.63343  0.65472  Biso   1.000  O
  O6       1.0000 0.44557  0.65815  0.65967  Biso   1.000  O
  O7       1.0000 0.08682  0.65351  0.64000  Biso   1.000  O
  O8       1.0000 0.92892  0.60117  0.69824  Biso   1.000  O
  O9       1.0000 0.18630  0.32548  0.28066  Biso   1.000  O
  O10      1.0000 0.06843  0.36931  0.29911  Biso   1.000  O
  O11      1.0000 0.68973  0.34518  0.31878  Biso   1.000  O
  O12      1.0000 0.46971  0.36170  0.28712  Biso   1.000  O
  O13      1.0000 0.32922  0.65472  0.71185  Biso   1.000  O
  O14      1.0000 0.10524  0.65967  0.68218  Biso   1.000  O
  O15      1.0000 0.72682  0.64000  0.70649  Biso   1.000  O
  O16      1.0000 0.62716  0.69824  0.70059  Biso   1.000  O
  O17      1.0000 0.46696  0.28066  0.39386  Biso   1.000  O
  O18      1.0000 0.36754  0.29911  0.33158  Biso   1.000  O
  O19      1.0000 0.00851  0.31878  0.33604  Biso   1.000  O
  O20      1.0000 0.75683  0.28712  0.35118  Biso   1.000  O
  O21      1.0000 0.04107  0.71185  0.63343  Biso   1.000  O
  O22      1.0000 0.78742  0.68218  0.65815  Biso   1.000  O
  O23      1.0000 0.43331  0.70649  0.65351  Biso   1.000  O
  O24      1.0000 0.32775  0.70059  0.60117  Biso   1.000  O
