data_image0
_cell_length_a       6.73174
_cell_length_b       54.5467
_cell_length_c       54.5467
_cell_angle_alpha    60.1678
_cell_angle_beta     87.6423
_cell_angle_gamma    92.3577

_symmetry_space_group_name_H-M    P 1
_symmetry_int_tables_number       1

loop_
  _symmetry_equiv_pos_as_xyz
  'x, y, z'

loop_
  _atom_site_label
  _atom_site_occupancy
  _atom_site_fract_x
  _atom_site_fract_y
  _atom_site_fract_z
  _atom_site_thermal_displace_type
  _atom_site_B_iso_or_equiv
  _atom_site_type_symbol
  Mg1      1.0000 0.93677  0.35303  0.32999  Biso   1.000  Mg
  Mg2      1.0000 0.26676  0.32999  0.31698  Biso   1.000  Mg
  Mg3      1.0000 0.58374  0.31698  0.35303  Biso   1.000  Mg
  Mg4      1.0000 0.06323  0.64697  0.67001  Biso   1.000  Mg
  Mg5      1.0000 0.73324  0.67001  0.68302  Biso   1.000  Mg
  Mg6      1.0000 0.41626  0.68302  0.64697  Biso   1.000  Mg
  H1       1.0000 0.71596  0.39310  0.30946  Biso   1.000  H
  H2       1.0000 0.93149  0.36548  0.38837  Biso   1.000  H
  H3       1.0000 0.44771  0.41208  0.39468  Biso   1.000  H
  H4       1.0000 0.23291  0.39324  0.37209  Biso   1.000  H
  H5       1.0000 0.02124  0.41318  0.48395  Biso   1.000  H
  H6       1.0000 0.49786  0.49792  0.43261  Biso   1.000  H
  H7       1.0000 0.13992  0.48446  0.50567  Biso   1.000  H
  H8       1.0000 0.00957  0.46860  0.39576  Biso   1.000  H
  H9       1.0000 0.92903  0.36389  0.43637  Biso   1.000  H
  H10      1.0000 0.85409  0.44900  0.34631  Biso   1.000  H
  H11      1.0000 0.85857  0.47724  0.35460  Biso   1.000  H
  H12      1.0000 0.63592  0.45415  0.36361  Biso   1.000  H
  H13      1.0000 0.31040  0.38864  0.46961  Biso   1.000  H
  H14      1.0000 0.27048  0.36372  0.45759  Biso   1.000  H
  H15      1.0000 0.08939  0.36404  0.48314  Biso   1.000  H
  H16      1.0000 0.59887  0.47386  0.40159  Biso   1.000  H
  H17      1.0000 0.39741  0.49654  0.38614  Biso   1.000  H
  H18      1.0000 0.38403  0.46071  0.39195  Biso   1.000  H
  H19      1.0000 0.01363  0.43510  0.52366  Biso   1.000  H
  H20      1.0000 0.27693  0.43387  0.53098  Biso   1.000  H
  H21      1.0000 0.15369  0.40520  0.52916  Biso   1.000  H
  H22      1.0000 0.05759  0.50885  0.45581  Biso   1.000  H
  H23      1.0000 0.86137  0.53319  0.44304  Biso   1.000  H
  H24      1.0000 0.78326  0.51790  0.40840  Biso   1.000  H
  H25      1.0000 0.97837  0.49308  0.42108  Biso   1.000  H
  H26      1.0000 0.92445  0.54693  0.36357  Biso   1.000  H
  H27      1.0000 0.11785  0.52237  0.37048  Biso   1.000  H
  H28      1.0000 0.17694  0.58499  0.35510  Biso   1.000  H
  H29      1.0000 0.21756  0.57175  0.33049  Biso   1.000  H
  H30      1.0000 0.68427  0.58162  0.33961  Biso   1.000  H
  H31      1.0000 0.48814  0.60435  0.33540  Biso   1.000  H
  H32      1.0000 0.71935  0.56929  0.38887  Biso   1.000  H
  H33      1.0000 0.72531  0.60709  0.36694  Biso   1.000  H
  H34      1.0000 0.41508  0.54583  0.41896  Biso   1.000  H
  H35      1.0000 0.56550  0.56558  0.43154  Biso   1.000  H
  H36      1.0000 0.29852  0.56807  0.43037  Biso   1.000  H
  H37      1.0000 0.81816  0.41490  0.30342  Biso   1.000  H
  H38      1.0000 0.02542  0.30946  0.29744  Biso   1.000  H
  H39      1.0000 0.31986  0.38837  0.24615  Biso   1.000  H
  H40      1.0000 0.84239  0.39468  0.19324  Biso   1.000  H
  H41      1.0000 0.60500  0.37209  0.23467  Biso   1.000  H
  H42      1.0000 0.50519  0.48395  0.10287  Biso   1.000  H
  H43      1.0000 0.93047  0.43261  0.06947  Biso   1.000  H
  H44      1.0000 0.64559  0.50567  0.00987  Biso   1.000  H
  H45      1.0000 0.40533  0.39576  0.13564  Biso   1.000  H
  H46      1.0000 0.36540  0.43637  0.19974  Biso   1.000  H
  H47      1.0000 0.20040  0.34631  0.20469  Biso   1.000  H
  H48      1.0000 0.21317  0.35460  0.16816  Biso   1.000  H
  H49      1.0000 0.99953  0.36361  0.18224  Biso   1.000  H
  H50      1.0000 0.78001  0.46961  0.14175  Biso   1.000  H
  H51      1.0000 0.72807  0.45759  0.17869  Biso   1.000  H
  H52      1.0000 0.57253  0.48314  0.15282  Biso   1.000  H
  H53      1.0000 0.00046  0.40159  0.12455  Biso   1.000  H
  H54      1.0000 0.78355  0.38614  0.11732  Biso   1.000  H
  H55      1.0000 0.77598  0.39195  0.14734  Biso   1.000  H
  H56      1.0000 0.53729  0.52366  0.04124  Biso   1.000  H
  H57      1.0000 0.80791  0.53098  0.03515  Biso   1.000  H
  H58      1.0000 0.68285  0.52916  0.06564  Biso   1.000  H
  H59      1.0000 0.51340  0.45581  0.03534  Biso   1.000  H
  H60      1.0000 0.30441  0.44304  0.02377  Biso   1.000  H
  H61      1.0000 0.19166  0.40840  0.07370  Biso   1.000  H
  H62      1.0000 0.39945  0.42108  0.08584  Biso   1.000  H
  H63      1.0000 0.28802  0.36357  0.08950  Biso   1.000  H
  H64      1.0000 0.48833  0.37048  0.10715  Biso   1.000  H
  H65      1.0000 0.53204  0.35510  0.05991  Biso   1.000  H
  H66      1.0000 0.54805  0.33049  0.09776  Biso   1.000  H
  H67      1.0000 0.02388  0.33961  0.07877  Biso   1.000  H
  H68      1.0000 0.82354  0.33540  0.06025  Biso   1.000  H
  H69      1.0000 0.10822  0.38887  0.04184  Biso   1.000  H
  H70      1.0000 0.09225  0.36694  0.02597  Biso   1.000  H
  H71      1.0000 0.83404  0.41896  0.03521  Biso   1.000  H
  H72      1.0000 0.99704  0.43154  0.00288  Biso   1.000  H
  H73      1.0000 0.72889  0.43037  0.00156  Biso   1.000  H
  H74      1.0000 0.12158  0.30342  0.28168  Biso   1.000  H
  H75      1.0000 0.32286  0.29744  0.39310  Biso   1.000  H
  H76      1.0000 0.56601  0.24615  0.36548  Biso   1.000  H
  H77      1.0000 0.03563  0.19324  0.41208  Biso   1.000  H
  H78      1.0000 0.83967  0.23467  0.39324  Biso   1.000  H
  H79      1.0000 0.60806  0.10287  0.41318  Biso   1.000  H
  H80      1.0000 0.99994  0.06947  0.49792  Biso   1.000  H
  H81      1.0000 0.65546  0.00987  0.48446  Biso   1.000  H
  H82      1.0000 0.54097  0.13564  0.46860  Biso   1.000  H
  H83      1.0000 0.56514  0.19974  0.36389  Biso   1.000  H
  H84      1.0000 0.40509  0.20469  0.44900  Biso   1.000  H
  H85      1.0000 0.38133  0.16816  0.47724  Biso   1.000  H
  H86      1.0000 0.18177  0.18224  0.45415  Biso   1.000  H
  H87      1.0000 0.92176  0.14175  0.38864  Biso   1.000  H
  H88      1.0000 0.90676  0.17869  0.36372  Biso   1.000  H
  H89      1.0000 0.72535  0.15282  0.36404  Biso   1.000  H
  H90      1.0000 0.12501  0.12455  0.47386  Biso   1.000  H
  H91      1.0000 0.90087  0.11732  0.49654  Biso   1.000  H
  H92      1.0000 0.92332  0.14734  0.46071  Biso   1.000  H
  H93      1.0000 0.57853  0.04124  0.43510  Biso   1.000  H
  H94      1.0000 0.84306  0.03515  0.43387  Biso   1.000  H
  H95      1.0000 0.74849  0.06564  0.40520  Biso   1.000  H
  H96      1.0000 0.54874  0.03534  0.50885  Biso   1.000  H
  H97      1.0000 0.32818  0.02377  0.53319  Biso   1.000  H
  H98      1.0000 0.26536  0.07370  0.51790  Biso   1.000  H
  H99      1.0000 0.48529  0.08584  0.49308  Biso   1.000  H
  H100     1.0000 0.37752  0.08950  0.54693  Biso   1.000  H
  H101     1.0000 0.59548  0.10715  0.52237  Biso   1.000  H
  H102     1.0000 0.59195  0.05991  0.58499  Biso   1.000  H
  H103     1.0000 0.64581  0.09776  0.57175  Biso   1.000  H
  H104     1.0000 0.10265  0.07877  0.58162  Biso   1.000  H
  H105     1.0000 0.88379  0.06025  0.60435  Biso   1.000  H
  H106     1.0000 0.15006  0.04184  0.56929  Biso   1.000  H
  H107     1.0000 0.11822  0.02597  0.60709  Biso   1.000  H
  H108     1.0000 0.86925  0.03521  0.54583  Biso   1.000  H
  H109     1.0000 0.99992  0.00288  0.56558  Biso   1.000  H
  H110     1.0000 0.73045  0.00156  0.56807  Biso   1.000  H
  H111     1.0000 0.40326  0.28168  0.41490  Biso   1.000  H
  H112     1.0000 0.28404  0.60690  0.69054  Biso   1.000  H
  H113     1.0000 0.06851  0.63452  0.61163  Biso   1.000  H
  H114     1.0000 0.55229  0.58792  0.60532  Biso   1.000  H
  H115     1.0000 0.76709  0.60676  0.62791  Biso   1.000  H
  H116     1.0000 0.97876  0.58682  0.51605  Biso   1.000  H
  H117     1.0000 0.50214  0.50208  0.56739  Biso   1.000  H
  H118     1.0000 0.86008  0.51554  0.49433  Biso   1.000  H
  H119     1.0000 0.99043  0.53140  0.60424  Biso   1.000  H
  H120     1.0000 0.07097  0.63611  0.56363  Biso   1.000  H
  H121     1.0000 0.14591  0.55100  0.65369  Biso   1.000  H
  H122     1.0000 0.14143  0.52276  0.64540  Biso   1.000  H
  H123     1.0000 0.36408  0.54585  0.63639  Biso   1.000  H
  H124     1.0000 0.68960  0.61136  0.53039  Biso   1.000  H
  H125     1.0000 0.72952  0.63628  0.54241  Biso   1.000  H
  H126     1.0000 0.91061  0.63596  0.51686  Biso   1.000  H
  H127     1.0000 0.40113  0.52614  0.59841  Biso   1.000  H
  H128     1.0000 0.60259  0.50346  0.61386  Biso   1.000  H
  H129     1.0000 0.61597  0.53929  0.60805  Biso   1.000  H
  H130     1.0000 0.98637  0.56490  0.47634  Biso   1.000  H
  H131     1.0000 0.72307  0.56613  0.46902  Biso   1.000  H
  H132     1.0000 0.84631  0.59480  0.47084  Biso   1.000  H
  H133     1.0000 0.94241  0.49115  0.54419  Biso   1.000  H
  H134     1.0000 0.13863  0.46681  0.55696  Biso   1.000  H
  H135     1.0000 0.21674  0.48210  0.59160  Biso   1.000  H
  H136     1.0000 0.02163  0.50692  0.57892  Biso   1.000  H
  H137     1.0000 0.07555  0.45307  0.63643  Biso   1.000  H
  H138     1.0000 0.88215  0.47763  0.62952  Biso   1.000  H
  H139     1.0000 0.82306  0.41501  0.64490  Biso   1.000  H
  H140     1.0000 0.78244  0.42825  0.66951  Biso   1.000  H
  H141     1.0000 0.31573  0.41838  0.66039  Biso   1.000  H
  H142     1.0000 0.51186  0.39565  0.66460  Biso   1.000  H
  H143     1.0000 0.28065  0.43071  0.61113  Biso   1.000  H
  H144     1.0000 0.27469  0.39291  0.63306  Biso   1.000  H
  H145     1.0000 0.58492  0.45417  0.58104  Biso   1.000  H
  H146     1.0000 0.43450  0.43442  0.56846  Biso   1.000  H
  H147     1.0000 0.70148  0.43193  0.56963  Biso   1.000  H
  H148     1.0000 0.18184  0.58510  0.69658  Biso   1.000  H
  H149     1.0000 0.97458  0.69054  0.70256  Biso   1.000  H
  H150     1.0000 0.68014  0.61163  0.75385  Biso   1.000  H
  H151     1.0000 0.15761  0.60532  0.80676  Biso   1.000  H
  H152     1.0000 0.39500  0.62791  0.76533  Biso   1.000  H
  H153     1.0000 0.49481  0.51605  0.89713  Biso   1.000  H
  H154     1.0000 0.06953  0.56739  0.93053  Biso   1.000  H
  H155     1.0000 0.35441  0.49433  0.99013  Biso   1.000  H
  H156     1.0000 0.59467  0.60424  0.86436  Biso   1.000  H
  H157     1.0000 0.63460  0.56363  0.80026  Biso   1.000  H
  H158     1.0000 0.79960  0.65369  0.79531  Biso   1.000  H
  H159     1.0000 0.78683  0.64540  0.83184  Biso   1.000  H
  H160     1.0000 0.00047  0.63639  0.81776  Biso   1.000  H
  H161     1.0000 0.21999  0.53039  0.85825  Biso   1.000  H
  H162     1.0000 0.27193  0.54241  0.82131  Biso   1.000  H
  H163     1.0000 0.42747  0.51686  0.84718  Biso   1.000  H
  H164     1.0000 0.99954  0.59841  0.87545  Biso   1.000  H
  H165     1.0000 0.21645  0.61386  0.88268  Biso   1.000  H
  H166     1.0000 0.22402  0.60805  0.85266  Biso   1.000  H
  H167     1.0000 0.46271  0.47634  0.95876  Biso   1.000  H
  H168     1.0000 0.19209  0.46902  0.96485  Biso   1.000  H
  H169     1.0000 0.31715  0.47084  0.93436  Biso   1.000  H
  H170     1.0000 0.48660  0.54419  0.96466  Biso   1.000  H
  H171     1.0000 0.69559  0.55696  0.97623  Biso   1.000  H
  H172     1.0000 0.80834  0.59160  0.92630  Biso   1.000  H
  H173     1.0000 0.60055  0.57892  0.91416  Biso   1.000  H
  H174     1.0000 0.71198  0.63643  0.91050  Biso   1.000  H
  H175     1.0000 0.51167  0.62952  0.89285  Biso   1.000  H
  H176     1.0000 0.46796  0.64490  0.94009  Biso   1.000  H
  H177     1.0000 0.45195  0.66951  0.90224  Biso   1.000  H
  H178     1.0000 0.97612  0.66039  0.92123  Biso   1.000  H
  H179     1.0000 0.17646  0.66460  0.93975  Biso   1.000  H
  H180     1.0000 0.89178  0.61113  0.95816  Biso   1.000  H
  H181     1.0000 0.90775  0.63306  0.97403  Biso   1.000  H
  H182     1.0000 0.16596  0.58104  0.96479  Biso   1.000  H
  H183     1.0000 0.00296  0.56846  0.99712  Biso   1.000  H
  H184     1.0000 0.27111  0.56963  0.99844  Biso   1.000  H
  H185     1.0000 0.87842  0.69658  0.71832  Biso   1.000  H
  H186     1.0000 0.67714  0.70256  0.60690  Biso   1.000  H
  H187     1.0000 0.43399  0.75385  0.63452  Biso   1.000  H
  H188     1.0000 0.96437  0.80676  0.58792  Biso   1.000  H
  H189     1.0000 0.16033  0.76533  0.60676  Biso   1.000  H
  H190     1.0000 0.39194  0.89713  0.58682  Biso   1.000  H
  H191     1.0000 0.00006  0.93053  0.50208  Biso   1.000  H
  H192     1.0000 0.34454  0.99013  0.51554  Biso   1.000  H
  H193     1.0000 0.45903  0.86436  0.53140  Biso   1.000  H
  H194     1.0000 0.43486  0.80026  0.63611  Biso   1.000  H
  H195     1.0000 0.59491  0.79531  0.55100  Biso   1.000  H
  H196     1.0000 0.61867  0.83184  0.52276  Biso   1.000  H
  H197     1.0000 0.81823  0.81776  0.54585  Biso   1.000  H
  H198     1.0000 0.07824  0.85825  0.61136  Biso   1.000  H
  H199     1.0000 0.09324  0.82131  0.63628  Biso   1.000  H
  H200     1.0000 0.27465  0.84718  0.63596  Biso   1.000  H
  H201     1.0000 0.87499  0.87545  0.52614  Biso   1.000  H
  H202     1.0000 0.09913  0.88268  0.50346  Biso   1.000  H
  H203     1.0000 0.07668  0.85266  0.53929  Biso   1.000  H
  H204     1.0000 0.42147  0.95876  0.56490  Biso   1.000  H
  H205     1.0000 0.15694  0.96485  0.56613  Biso   1.000  H
  H206     1.0000 0.25151  0.93436  0.59480  Biso   1.000  H
  H207     1.0000 0.45126  0.96466  0.49115  Biso   1.000  H
  H208     1.0000 0.67182  0.97623  0.46681  Biso   1.000  H
  H209     1.0000 0.73464  0.92630  0.48210  Biso   1.000  H
  H210     1.0000 0.51471  0.91416  0.50692  Biso   1.000  H
  H211     1.0000 0.62248  0.91050  0.45307  Biso   1.000  H
  H212     1.0000 0.40452  0.89285  0.47763  Biso   1.000  H
  H213     1.0000 0.40805  0.94009  0.41501  Biso   1.000  H
  H214     1.0000 0.35419  0.90224  0.42825  Biso   1.000  H
  H215     1.0000 0.89735  0.92123  0.41838  Biso   1.000  H
  H216     1.0000 0.11621  0.93975  0.39565  Biso   1.000  H
  H217     1.0000 0.84994  0.95816  0.43071  Biso   1.000  H
  H218     1.0000 0.88178  0.97403  0.39291  Biso   1.000  H
  H219     1.0000 0.13075  0.96479  0.45417  Biso   1.000  H
  H220     1.0000 0.00008  0.99712  0.43442  Biso   1.000  H
  H221     1.0000 0.26955  0.99844  0.43193  Biso   1.000  H
  H222     1.0000 0.59674  0.71832  0.58510  Biso   1.000  H
  C1       1.0000 0.31889  0.35819  0.35177  Biso   1.000  C
  C2       1.0000 0.45630  0.36792  0.36663  Biso   1.000  C
  C3       1.0000 0.65964  0.36059  0.37103  Biso   1.000  C
  C4       1.0000 0.78088  0.37214  0.38381  Biso   1.000  C
  C5       1.0000 0.70987  0.39163  0.39130  Biso   1.000  C
  C6       1.0000 0.50898  0.39812  0.38780  Biso   1.000  C
  C7       1.0000 0.38486  0.38673  0.37536  Biso   1.000  C
  C8       1.0000 0.19394  0.44087  0.44432  Biso   1.000  C
  C9       1.0000 0.13317  0.43098  0.47304  Biso   1.000  C
  C10      1.0000 0.21716  0.44321  0.48815  Biso   1.000  C
  C11      1.0000 0.35092  0.46802  0.47345  Biso   1.000  C
  C12      1.0000 0.40460  0.47839  0.44446  Biso   1.000  C
  C13      1.0000 0.33913  0.46423  0.43027  Biso   1.000  C
  C14      1.0000 0.43039  0.48418  0.48718  Biso   1.000  C
  C15      1.0000 0.63408  0.49446  0.48279  Biso   1.000  C
  C16      1.0000 0.29817  0.49076  0.50357  Biso   1.000  C
  C17      1.0000 0.84503  0.40466  0.40340  Biso   1.000  C
  C18      1.0000 0.09059  0.42787  0.42922  Biso   1.000  C
  C19      1.0000 0.99359  0.44572  0.40456  Biso   1.000  C
  C20      1.0000 0.87787  0.43459  0.39088  Biso   1.000  C
  C21      1.0000 0.07448  0.39807  0.43992  Biso   1.000  C
  C22      1.0000 0.94734  0.38681  0.42740  Biso   1.000  C
  C23      1.0000 0.80186  0.45485  0.36233  Biso   1.000  C
  C24      1.0000 0.19270  0.37761  0.46401  Biso   1.000  C
  C25      1.0000 0.43319  0.47431  0.40078  Biso   1.000  C
  C26      1.0000 0.16223  0.42873  0.51975  Biso   1.000  C
  C27      1.0000 0.90925  0.51226  0.44665  Biso   1.000  C
  C28      1.0000 0.93109  0.51380  0.41783  Biso   1.000  C
  C29      1.0000 0.07536  0.54128  0.37187  Biso   1.000  C
  C30      1.0000 0.22421  0.56653  0.35305  Biso   1.000  C
  C31      1.0000 0.55242  0.58416  0.35109  Biso   1.000  C
  C32      1.0000 0.62506  0.58726  0.37585  Biso   1.000  C
  C33      1.0000 0.43512  0.56614  0.41926  Biso   1.000  C
  C34      1.0000 0.67066  0.35177  0.29004  Biso   1.000  C
  C35      1.0000 0.82293  0.36663  0.26545  Biso   1.000  C
  C36      1.0000 0.03067  0.37103  0.26838  Biso   1.000  C
  C37      1.0000 0.16469  0.38381  0.24405  Biso   1.000  C
  C38      1.0000 0.10117  0.39130  0.21707  Biso   1.000  C
  C39      1.0000 0.89678  0.38780  0.21408  Biso   1.000  C
  C40      1.0000 0.76022  0.37536  0.23791  Biso   1.000  C
  C41      1.0000 0.63826  0.44432  0.11481  Biso   1.000  C
  C42      1.0000 0.60621  0.47304  0.09598  Biso   1.000  C
  C43      1.0000 0.70531  0.48815  0.06864  Biso   1.000  C
  C44      1.0000 0.82437  0.47345  0.05853  Biso   1.000  C
  C45      1.0000 0.84906  0.44446  0.07715  Biso   1.000  C
  C46      1.0000 0.76940  0.43027  0.10550  Biso   1.000  C
  C47      1.0000 0.91757  0.48718  0.02864  Biso   1.000  C
  C48      1.0000 0.11687  0.48279  0.02275  Biso   1.000  C
  C49      1.0000 0.80174  0.50357  0.00567  Biso   1.000  C
  C50      1.0000 0.24843  0.40340  0.19194  Biso   1.000  C
  C51      1.0000 0.51981  0.42922  0.14291  Biso   1.000  C
  C52      1.0000 0.39815  0.40456  0.14972  Biso   1.000  C
  C53      1.0000 0.26875  0.39088  0.17453  Biso   1.000  C
  C54      1.0000 0.51440  0.43992  0.16201  Biso   1.000  C
  C55      1.0000 0.37474  0.42740  0.18579  Biso   1.000  C
  C56      1.0000 0.16419  0.36233  0.18282  Biso   1.000  C
  C57      1.0000 0.65671  0.46401  0.15838  Biso   1.000  C
  C58      1.0000 0.83397  0.40078  0.12491  Biso   1.000  C
  C59      1.0000 0.68198  0.51975  0.05152  Biso   1.000  C
  C60      1.0000 0.35590  0.44665  0.04109  Biso   1.000  C
  C61      1.0000 0.34892  0.41783  0.06837  Biso   1.000  C
  C62      1.0000 0.44723  0.37187  0.08685  Biso   1.000  C
  C63      1.0000 0.57726  0.35305  0.08042  Biso   1.000  C
  C64      1.0000 0.90351  0.35109  0.06475  Biso   1.000  C
  C65      1.0000 0.00091  0.37585  0.03689  Biso   1.000  C
  C66      1.0000 0.85438  0.41926  0.01460  Biso   1.000  C
  C67      1.0000 0.96070  0.29004  0.35819  Biso   1.000  C
  C68      1.0000 0.08838  0.26545  0.36792  Biso   1.000  C
  C69      1.0000 0.29905  0.26838  0.36059  Biso   1.000  C
  C70      1.0000 0.40874  0.24405  0.37214  Biso   1.000  C
  C71      1.0000 0.31824  0.21707  0.39163  Biso   1.000  C
  C72      1.0000 0.11086  0.21408  0.39812  Biso   1.000  C
  C73      1.0000 0.99813  0.23791  0.38673  Biso   1.000  C
  C74      1.0000 0.75307  0.11481  0.44087  Biso   1.000  C
  C75      1.0000 0.70219  0.09598  0.43098  Biso   1.000  C
  C76      1.0000 0.77395  0.06864  0.44321  Biso   1.000  C
  C77      1.0000 0.88290  0.05853  0.46802  Biso   1.000  C
  C78      1.0000 0.92621  0.07715  0.47839  Biso   1.000  C
  C79      1.0000 0.87490  0.10550  0.46423  Biso   1.000  C
  C80      1.0000 0.94621  0.02864  0.48418  Biso   1.000  C
  C81      1.0000 0.13962  0.02275  0.49446  Biso   1.000  C
  C82      1.0000 0.80741  0.00567  0.49076  Biso   1.000  C
  C83      1.0000 0.44037  0.19194  0.40466  Biso   1.000  C
  C84      1.0000 0.66272  0.14291  0.42787  Biso   1.000  C
  C85      1.0000 0.54787  0.14972  0.44572  Biso   1.000  C
  C86      1.0000 0.44328  0.17453  0.43459  Biso   1.000  C
  C87      1.0000 0.67641  0.16201  0.39807  Biso   1.000  C
  C88      1.0000 0.56053  0.18579  0.38681  Biso   1.000  C
  C89      1.0000 0.34701  0.18282  0.45485  Biso   1.000  C
  C90      1.0000 0.81509  0.15838  0.37761  Biso   1.000  C
  C91      1.0000 0.95888  0.12491  0.47431  Biso   1.000  C
  C92      1.0000 0.73350  0.05152  0.42873  Biso   1.000  C
  C93      1.0000 0.39699  0.04109  0.51226  Biso   1.000  C
  C94      1.0000 0.41729  0.06837  0.51380  Biso   1.000  C
  C95      1.0000 0.53408  0.08685  0.54128  Biso   1.000  C
  C96      1.0000 0.65768  0.08042  0.56653  Biso   1.000  C
  C97      1.0000 0.96826  0.06475  0.58416  Biso   1.000  C
  C98      1.0000 0.03780  0.03689  0.58726  Biso   1.000  C
  C99      1.0000 0.86898  0.01460  0.56614  Biso   1.000  C
  C100     1.0000 0.68111  0.64181  0.64823  Biso   1.000  C
  C101     1.0000 0.54370  0.63208  0.63337  Biso   1.000  C
  C102     1.0000 0.34036  0.63941  0.62897  Biso   1.000  C
  C103     1.0000 0.21912  0.62786  0.61619  Biso   1.000  C
  C104     1.0000 0.29013  0.60837  0.60870  Biso   1.000  C
  C105     1.0000 0.49102  0.60188  0.61220  Biso   1.000  C
  C106     1.0000 0.61514  0.61327  0.62464  Biso   1.000  C
  C107     1.0000 0.80606  0.55913  0.55568  Biso   1.000  C
  C108     1.0000 0.86683  0.56902  0.52696  Biso   1.000  C
  C109     1.0000 0.78284  0.55679  0.51185  Biso   1.000  C
  C110     1.0000 0.64908  0.53198  0.52655  Biso   1.000  C
  C111     1.0000 0.59540  0.52161  0.55554  Biso   1.000  C
  C112     1.0000 0.66087  0.53577  0.56973  Biso   1.000  C
  C113     1.0000 0.56961  0.51582  0.51282  Biso   1.000  C
  C114     1.0000 0.36592  0.50554  0.51721  Biso   1.000  C
  C115     1.0000 0.70183  0.50924  0.49643  Biso   1.000  C
  C116     1.0000 0.15497  0.59534  0.59660  Biso   1.000  C
  C117     1.0000 0.90941  0.57213  0.57078  Biso   1.000  C
  C118     1.0000 0.00641  0.55428  0.59544  Biso   1.000  C
  C119     1.0000 0.12213  0.56541  0.60912  Biso   1.000  C
  C120     1.0000 0.92552  0.60193  0.56008  Biso   1.000  C
  C121     1.0000 0.05266  0.61319  0.57260  Biso   1.000  C
  C122     1.0000 0.19814  0.54515  0.63767  Biso   1.000  C
  C123     1.0000 0.80730  0.62239  0.53599  Biso   1.000  C
  C124     1.0000 0.56681  0.52569  0.59922  Biso   1.000  C
  C125     1.0000 0.83777  0.57127  0.48025  Biso   1.000  C
  C126     1.0000 0.09075  0.48774  0.55335  Biso   1.000  C
  C127     1.0000 0.06891  0.48620  0.58217  Biso   1.000  C
  C128     1.0000 0.92464  0.45872  0.62813  Biso   1.000  C
  C129     1.0000 0.77579  0.43347  0.64695  Biso   1.000  C
  C130     1.0000 0.44758  0.41584  0.64891  Biso   1.000  C
  C131     1.0000 0.37494  0.41274  0.62415  Biso   1.000  C
  C132     1.0000 0.56488  0.43386  0.58074  Biso   1.000  C
  C133     1.0000 0.32934  0.64823  0.70996  Biso   1.000  C
  C134     1.0000 0.17707  0.63337  0.73455  Biso   1.000  C
  C135     1.0000 0.96933  0.62897  0.73162  Biso   1.000  C
  C136     1.0000 0.83531  0.61619  0.75595  Biso   1.000  C
  C137     1.0000 0.89883  0.60870  0.78293  Biso   1.000  C
  C138     1.0000 0.10322  0.61220  0.78592  Biso   1.000  C
  C139     1.0000 0.23978  0.62464  0.76209  Biso   1.000  C
  C140     1.0000 0.36174  0.55568  0.88519  Biso   1.000  C
  C141     1.0000 0.39379  0.52696  0.90402  Biso   1.000  C
  C142     1.0000 0.29469  0.51185  0.93136  Biso   1.000  C
  C143     1.0000 0.17563  0.52655  0.94147  Biso   1.000  C
  C144     1.0000 0.15094  0.55554  0.92285  Biso   1.000  C
  C145     1.0000 0.23060  0.56973  0.89450  Biso   1.000  C
  C146     1.0000 0.08243  0.51282  0.97136  Biso   1.000  C
  C147     1.0000 0.88313  0.51721  0.97725  Biso   1.000  C
  C148     1.0000 0.19826  0.49643  0.99433  Biso   1.000  C
  C149     1.0000 0.75157  0.59660  0.80806  Biso   1.000  C
  C150     1.0000 0.48019  0.57078  0.85709  Biso   1.000  C
  C151     1.0000 0.60185  0.59544  0.85028  Biso   1.000  C
  C152     1.0000 0.73125  0.60912  0.82547  Biso   1.000  C
  C153     1.0000 0.48560  0.56008  0.83799  Biso   1.000  C
  C154     1.0000 0.62526  0.57260  0.81421  Biso   1.000  C
  C155     1.0000 0.83581  0.63767  0.81718  Biso   1.000  C
  C156     1.0000 0.34329  0.53599  0.84162  Biso   1.000  C
  C157     1.0000 0.16603  0.59922  0.87509  Biso   1.000  C
  C158     1.0000 0.31802  0.48025  0.94848  Biso   1.000  C
  C159     1.0000 0.64410  0.55335  0.95891  Biso   1.000  C
  C160     1.0000 0.65108  0.58217  0.93163  Biso   1.000  C
  C161     1.0000 0.55277  0.62813  0.91315  Biso   1.000  C
  C162     1.0000 0.42274  0.64695  0.91958  Biso   1.000  C
  C163     1.0000 0.09649  0.64891  0.93525  Biso   1.000  C
  C164     1.0000 0.99909  0.62415  0.96311  Biso   1.000  C
  C165     1.0000 0.14562  0.58074  0.98540  Biso   1.000  C
  C166     1.0000 0.03930  0.70996  0.64181  Biso   1.000  C
  C167     1.0000 0.91162  0.73455  0.63208  Biso   1.000  C
  C168     1.0000 0.70095  0.73162  0.63941  Biso   1.000  C
  C169     1.0000 0.59126  0.75595  0.62786  Biso   1.000  C
  C170     1.0000 0.68176  0.78293  0.60837  Biso   1.000  C
  C171     1.0000 0.88914  0.78592  0.60188  Biso   1.000  C
  C172     1.0000 0.00187  0.76209  0.61327  Biso   1.000  C
  C173     1.0000 0.24693  0.88519  0.55913  Biso   1.000  C
  C174     1.0000 0.29781  0.90402  0.56902  Biso   1.000  C
  C175     1.0000 0.22605  0.93136  0.55679  Biso   1.000  C
  C176     1.0000 0.11710  0.94147  0.53198  Biso   1.000  C
  C177     1.0000 0.07379  0.92285  0.52161  Biso   1.000  C
  C178     1.0000 0.12510  0.89450  0.53577  Biso   1.000  C
  C179     1.0000 0.05379  0.97136  0.51582  Biso   1.000  C
  C180     1.0000 0.86038  0.97725  0.50554  Biso   1.000  C
  C181     1.0000 0.19259  0.99433  0.50924  Biso   1.000  C
  C182     1.0000 0.55963  0.80806  0.59534  Biso   1.000  C
  C183     1.0000 0.33728  0.85709  0.57213  Biso   1.000  C
  C184     1.0000 0.45213  0.85028  0.55428  Biso   1.000  C
  C185     1.0000 0.55672  0.82547  0.56541  Biso   1.000  C
  C186     1.0000 0.32359  0.83799  0.60193  Biso   1.000  C
  C187     1.0000 0.43947  0.81421  0.61319  Biso   1.000  C
  C188     1.0000 0.65299  0.81718  0.54515  Biso   1.000  C
  C189     1.0000 0.18491  0.84162  0.62239  Biso   1.000  C
  C190     1.0000 0.04112  0.87509  0.52569  Biso   1.000  C
  C191     1.0000 0.26650  0.94848  0.57127  Biso   1.000  C
  C192     1.0000 0.60301  0.95891  0.48774  Biso   1.000  C
  C193     1.0000 0.58271  0.93163  0.48620  Biso   1.000  C
  C194     1.0000 0.46592  0.91315  0.45872  Biso   1.000  C
  C195     1.0000 0.34232  0.91958  0.43347  Biso   1.000  C
  C196     1.0000 0.03174  0.93525  0.41584  Biso   1.000  C
  C197     1.0000 0.96220  0.96311  0.41274  Biso   1.000  C
  C198     1.0000 0.13102  0.98540  0.43386  Biso   1.000  C
  O1       1.0000 0.13501  0.36431  0.34985  Biso   1.000  O
  O2       1.0000 0.38460  0.34426  0.34042  Biso   1.000  O
  O3       1.0000 0.74431  0.34042  0.36544  Biso   1.000  O
  O4       1.0000 0.86453  0.39377  0.30812  Biso   1.000  O
  O5       1.0000 0.76913  0.48896  0.46571  Biso   1.000  O
  O6       1.0000 0.07689  0.53591  0.40016  Biso   1.000  O
  O7       1.0000 0.42010  0.55936  0.36181  Biso   1.000  O
  O8       1.0000 0.45908  0.58983  0.39138  Biso   1.000  O
  O9       1.0000 0.48486  0.34985  0.28584  Biso   1.000  O
  O10      1.0000 0.72502  0.34042  0.31532  Biso   1.000  O
  O11      1.0000 0.10975  0.36544  0.29414  Biso   1.000  O
  O12      1.0000 0.17265  0.30812  0.29811  Biso   1.000  O
  O13      1.0000 0.23484  0.46571  0.04533  Biso   1.000  O
  O14      1.0000 0.47705  0.40016  0.06393  Biso   1.000  O
  O15      1.0000 0.78191  0.36181  0.07883  Biso   1.000  O
  O16      1.0000 0.85046  0.39138  0.01879  Biso   1.000  O
  O17      1.0000 0.77070  0.28584  0.36431  Biso   1.000  O
  O18      1.0000 0.04034  0.31532  0.34426  Biso   1.000  O
  O19      1.0000 0.40389  0.29414  0.34042  Biso   1.000  O
  O20      1.0000 0.47076  0.29811  0.39377  Biso   1.000  O
  O21      1.0000 0.28017  0.04533  0.48896  Biso   1.000  O
  O22      1.0000 0.54098  0.06393  0.53591  Biso   1.000  O
  O23      1.0000 0.86074  0.07883  0.55936  Biso   1.000  O
  O24      1.0000 0.86925  0.01879  0.58983  Biso   1.000  O
  O25      1.0000 0.86499  0.63569  0.65015  Biso   1.000  O
  O26      1.0000 0.61540  0.65574  0.65958  Biso   1.000  O
  O27      1.0000 0.25569  0.65958  0.63456  Biso   1.000  O
  O28      1.0000 0.13547  0.60623  0.69188  Biso   1.000  O
  O29      1.0000 0.23087  0.51104  0.53429  Biso   1.000  O
  O30      1.0000 0.92311  0.46409  0.59984  Biso   1.000  O
  O31      1.0000 0.57990  0.44064  0.63819  Biso   1.000  O
  O32      1.0000 0.54092  0.41017  0.60862  Biso   1.000  O
  O33      1.0000 0.51514  0.65015  0.71416  Biso   1.000  O
  O34      1.0000 0.27498  0.65958  0.68468  Biso   1.000  O
  O35      1.0000 0.89025  0.63456  0.70586  Biso   1.000  O
  O36      1.0000 0.82735  0.69188  0.70189  Biso   1.000  O
  O37      1.0000 0.76516  0.53429  0.95467  Biso   1.000  O
  O38      1.0000 0.52295  0.59984  0.93607  Biso   1.000  O
  O39      1.0000 0.21809  0.63819  0.92117  Biso   1.000  O
  O40      1.0000 0.14954  0.60862  0.98121  Biso   1.000  O
  O41      1.0000 0.22930  0.71416  0.63569  Biso   1.000  O
  O42      1.0000 0.95966  0.68468  0.65574  Biso   1.000  O
  O43      1.0000 0.59611  0.70586  0.65958  Biso   1.000  O
  O44      1.0000 0.52924  0.70189  0.60623  Biso   1.000  O
  O45      1.0000 0.71983  0.95467  0.51104  Biso   1.000  O
  O46      1.0000 0.45902  0.93607  0.46409  Biso   1.000  O
  O47      1.0000 0.13926  0.92117  0.44064  Biso   1.000  O
  O48      1.0000 0.13075  0.98121  0.41017  Biso   1.000  O
