data_image0
_cell_length_a       9.267
_cell_length_b       13.257
_cell_length_c       16.324
_cell_angle_alpha    90
_cell_angle_beta     94.975
_cell_angle_gamma    90

_symmetry_space_group_name_H-M    P 1
_symmetry_int_tables_number       1

loop_
  _symmetry_equiv_pos_as_xyz
  'x, y, z'

loop_
  _atom_site_label
  _atom_site_occupancy
  _atom_site_fract_x
  _atom_site_fract_y
  _atom_site_fract_z
  _atom_site_thermal_displace_type
  _atom_site_B_iso_or_equiv
  _atom_site_type_symbol
  Zn1      1.0000 0.73090  0.15523  0.81676  Biso   1.000  Zn
  Zn2      1.0000 0.76910  0.65523  0.68324  Biso   1.000  Zn
  Zn3      1.0000 0.26910  0.84477  0.18324  Biso   1.000  Zn
  Zn4      1.0000 0.23090  0.34477  0.31676  Biso   1.000  Zn
  H1       1.0000 0.99840  0.19740  0.04410  Biso   1.000  H
  H2       1.0000 0.25400  0.02550  0.91850  Biso   1.000  H
  H3       1.0000 0.40080  0.13460  0.13980  Biso   1.000  H
  H4       1.0000 0.28420  0.32400  0.90410  Biso   1.000  H
  H5       1.0000 0.68130  0.24720  0.98750  Biso   1.000  H
  H6       1.0000 0.38780  0.22270  0.80740  Biso   1.000  H
  H7       1.0000 0.35980  0.37610  0.04800  Biso   1.000  H
  H8       1.0000 0.50440  0.33310  0.09150  Biso   1.000  H
  H9       1.0000 0.63630  0.46080  0.02690  Biso   1.000  H
  H10      1.0000 0.52870  0.50770  0.08540  Biso   1.000  H
  H11      1.0000 0.77800  0.89120  0.60750  Biso   1.000  H
  H12      1.0000 0.49300  0.82990  0.58600  Biso   1.000  H
  H13      1.0000 0.38740  0.91900  0.60180  Biso   1.000  H
  H14      1.0000 0.47770  0.02410  0.72520  Biso   1.000  H
  H15      1.0000 0.88880  0.98990  0.71900  Biso   1.000  H
  H16      1.0000 0.43110  0.91600  0.46370  Biso   1.000  H
  H17      1.0000 0.59810  0.92350  0.48710  Biso   1.000  H
  H18      1.0000 0.50160  0.69740  0.45590  Biso   1.000  H
  H19      1.0000 0.24600  0.52550  0.58150  Biso   1.000  H
  H20      1.0000 0.09920  0.63460  0.36020  Biso   1.000  H
  H21      1.0000 0.21580  0.82400  0.59590  Biso   1.000  H
  H22      1.0000 0.81870  0.74720  0.51250  Biso   1.000  H
  H23      1.0000 0.11220  0.72270  0.69260  Biso   1.000  H
  H24      1.0000 0.14020  0.87610  0.45200  Biso   1.000  H
  H25      1.0000 0.99560  0.83310  0.40850  Biso   1.000  H
  H26      1.0000 0.86370  0.96080  0.47310  Biso   1.000  H
  H27      1.0000 0.97130  0.00770  0.41460  Biso   1.000  H
  H28      1.0000 0.72200  0.39120  0.89250  Biso   1.000  H
  H29      1.0000 0.00700  0.32990  0.91400  Biso   1.000  H
  H30      1.0000 0.11260  0.41900  0.89820  Biso   1.000  H
  H31      1.0000 0.02230  0.52410  0.77480  Biso   1.000  H
  H32      1.0000 0.61120  0.48990  0.78100  Biso   1.000  H
  H33      1.0000 0.06890  0.41600  0.03630  Biso   1.000  H
  H34      1.0000 0.90190  0.42350  0.01290  Biso   1.000  H
  H35      1.0000 0.00160  0.80260  0.95590  Biso   1.000  H
  H36      1.0000 0.74600  0.97450  0.08150  Biso   1.000  H
  H37      1.0000 0.59920  0.86540  0.86020  Biso   1.000  H
  H38      1.0000 0.71580  0.67600  0.09590  Biso   1.000  H
  H39      1.0000 0.31870  0.75280  0.01250  Biso   1.000  H
  H40      1.0000 0.61220  0.77730  0.19260  Biso   1.000  H
  H41      1.0000 0.64020  0.62390  0.95200  Biso   1.000  H
  H42      1.0000 0.49560  0.66690  0.90850  Biso   1.000  H
  H43      1.0000 0.36370  0.53920  0.97310  Biso   1.000  H
  H44      1.0000 0.47130  0.49230  0.91460  Biso   1.000  H
  H45      1.0000 0.22200  0.10880  0.39250  Biso   1.000  H
  H46      1.0000 0.50700  0.17010  0.41400  Biso   1.000  H
  H47      1.0000 0.61260  0.08100  0.39820  Biso   1.000  H
  H48      1.0000 0.52230  0.97590  0.27480  Biso   1.000  H
  H49      1.0000 0.11120  0.01010  0.28100  Biso   1.000  H
  H50      1.0000 0.56890  0.08400  0.53630  Biso   1.000  H
  H51      1.0000 0.40190  0.07650  0.51290  Biso   1.000  H
  H52      1.0000 0.49840  0.30260  0.54410  Biso   1.000  H
  H53      1.0000 0.75400  0.47450  0.41850  Biso   1.000  H
  H54      1.0000 0.90080  0.36540  0.63980  Biso   1.000  H
  H55      1.0000 0.78420  0.17600  0.40410  Biso   1.000  H
  H56      1.0000 0.18130  0.25280  0.48750  Biso   1.000  H
  H57      1.0000 0.88780  0.27730  0.30740  Biso   1.000  H
  H58      1.0000 0.85980  0.12390  0.54800  Biso   1.000  H
  H59      1.0000 0.00440  0.16690  0.59150  Biso   1.000  H
  H60      1.0000 0.13630  0.03920  0.52690  Biso   1.000  H
  H61      1.0000 0.02870  0.99230  0.58540  Biso   1.000  H
  H62      1.0000 0.27800  0.60880  0.10750  Biso   1.000  H
  H63      1.0000 0.99300  0.67010  0.08600  Biso   1.000  H
  H64      1.0000 0.88740  0.58100  0.10180  Biso   1.000  H
  H65      1.0000 0.97770  0.47590  0.22520  Biso   1.000  H
  H66      1.0000 0.38880  0.51010  0.21900  Biso   1.000  H
  H67      1.0000 0.93110  0.58400  0.96370  Biso   1.000  H
  H68      1.0000 0.09810  0.57650  0.98710  Biso   1.000  H
  C1       1.0000 0.08750  0.16640  0.03990  Biso   1.000  C
  C2       1.0000 0.11060  0.11120  0.97030  Biso   1.000  C
  C3       1.0000 0.17390  0.23730  0.17730  Biso   1.000  C
  C4       1.0000 0.99760  0.10710  0.89900  Biso   1.000  C
  C5       1.0000 0.19600  0.17580  0.10350  Biso   1.000  C
  C6       1.0000 0.23920  0.06360  0.96490  Biso   1.000  C
  C7       1.0000 0.32730  0.12840  0.09760  Biso   1.000  C
  C8       1.0000 0.34920  0.07150  0.02860  Biso   1.000  C
  C9       1.0000 0.37650  0.29590  0.90860  Biso   1.000  C
  C10      1.0000 0.59580  0.25270  0.95350  Biso   1.000  C
  C11      1.0000 0.43560  0.24100  0.85760  Biso   1.000  C
  C12      1.0000 0.46230  0.36680  0.04240  Biso   1.000  C
  C13      1.0000 0.53470  0.47040  0.03470  Biso   1.000  C
  C14      1.0000 0.73140  0.92990  0.64480  Biso   1.000  C
  C15      1.0000 0.48390  0.90270  0.58710  Biso   1.000  C
  C16      1.0000 0.56810  0.00340  0.71080  Biso   1.000  C
  C17      1.0000 0.78930  0.98400  0.70670  Biso   1.000  C
  C18      1.0000 0.50430  0.94480  0.50290  Biso   1.000  C
  C19      1.0000 0.41250  0.66640  0.46010  Biso   1.000  C
  C20      1.0000 0.38940  0.61120  0.52970  Biso   1.000  C
  C21      1.0000 0.32610  0.73730  0.32270  Biso   1.000  C
  C22      1.0000 0.50240  0.60710  0.60100  Biso   1.000  C
  C23      1.0000 0.30400  0.67580  0.39650  Biso   1.000  C
  C24      1.0000 0.26080  0.56360  0.53510  Biso   1.000  C
  C25      1.0000 0.17270  0.62840  0.40240  Biso   1.000  C
  C26      1.0000 0.15080  0.57150  0.47140  Biso   1.000  C
  C27      1.0000 0.12350  0.79590  0.59140  Biso   1.000  C
  C28      1.0000 0.90420  0.75270  0.54650  Biso   1.000  C
  C29      1.0000 0.06440  0.74100  0.64240  Biso   1.000  C
  C30      1.0000 0.03770  0.86680  0.45760  Biso   1.000  C
  C31      1.0000 0.96530  0.97040  0.46530  Biso   1.000  C
  C32      1.0000 0.76860  0.42990  0.85520  Biso   1.000  C
  C33      1.0000 0.01610  0.40270  0.91290  Biso   1.000  C
  C34      1.0000 0.93190  0.50340  0.78920  Biso   1.000  C
  C35      1.0000 0.71070  0.48400  0.79330  Biso   1.000  C
  C36      1.0000 0.99570  0.44480  0.99710  Biso   1.000  C
  C37      1.0000 0.91250  0.83360  0.96010  Biso   1.000  C
  C38      1.0000 0.88940  0.88880  0.02970  Biso   1.000  C
  C39      1.0000 0.82610  0.76270  0.82270  Biso   1.000  C
  C40      1.0000 0.00240  0.89290  0.10100  Biso   1.000  C
  C41      1.0000 0.80400  0.82420  0.89650  Biso   1.000  C
  C42      1.0000 0.76080  0.93640  0.03510  Biso   1.000  C
  C43      1.0000 0.67270  0.87160  0.90240  Biso   1.000  C
  C44      1.0000 0.65080  0.92850  0.97140  Biso   1.000  C
  C45      1.0000 0.62350  0.70410  0.09140  Biso   1.000  C
  C46      1.0000 0.40420  0.74730  0.04650  Biso   1.000  C
  C47      1.0000 0.56440  0.75900  0.14240  Biso   1.000  C
  C48      1.0000 0.53770  0.63320  0.95760  Biso   1.000  C
  C49      1.0000 0.46530  0.52960  0.96530  Biso   1.000  C
  C50      1.0000 0.26860  0.07010  0.35520  Biso   1.000  C
  C51      1.0000 0.51610  0.09730  0.41290  Biso   1.000  C
  C52      1.0000 0.43190  0.99660  0.28920  Biso   1.000  C
  C53      1.0000 0.21070  0.01600  0.29330  Biso   1.000  C
  C54      1.0000 0.49570  0.05520  0.49710  Biso   1.000  C
  C55      1.0000 0.58750  0.33360  0.53990  Biso   1.000  C
  C56      1.0000 0.61060  0.38880  0.47030  Biso   1.000  C
  C57      1.0000 0.67390  0.26270  0.67730  Biso   1.000  C
  C58      1.0000 0.49760  0.39290  0.39900  Biso   1.000  C
  C59      1.0000 0.69600  0.32420  0.60350  Biso   1.000  C
  C60      1.0000 0.73920  0.43640  0.46490  Biso   1.000  C
  C61      1.0000 0.82730  0.37160  0.59760  Biso   1.000  C
  C62      1.0000 0.84920  0.42850  0.52860  Biso   1.000  C
  C63      1.0000 0.87650  0.20410  0.40860  Biso   1.000  C
  C64      1.0000 0.09580  0.24730  0.45350  Biso   1.000  C
  C65      1.0000 0.93560  0.25900  0.35760  Biso   1.000  C
  C66      1.0000 0.96230  0.13320  0.54240  Biso   1.000  C
  C67      1.0000 0.03470  0.02960  0.53470  Biso   1.000  C
  C68      1.0000 0.23140  0.57010  0.14480  Biso   1.000  C
  C69      1.0000 0.98390  0.59730  0.08710  Biso   1.000  C
  C70      1.0000 0.06810  0.49660  0.21080  Biso   1.000  C
  C71      1.0000 0.28930  0.51600  0.20670  Biso   1.000  C
  C72      1.0000 0.00430  0.55520  0.00290  Biso   1.000  C
  N1       1.0000 0.48050  0.30340  0.97090  Biso   1.000  N
  N2       1.0000 0.57140  0.21080  0.88030  Biso   1.000  N
  N3       1.0000 0.48840  0.02550  0.03050  Biso   1.000  N
  N4       1.0000 0.69370  0.02940  0.74990  Biso   1.000  N
  N5       1.0000 0.59050  0.94390  0.64840  Biso   1.000  N
  N6       1.0000 0.01950  0.80340  0.52910  Biso   1.000  N
  N7       1.0000 0.92860  0.71080  0.61970  Biso   1.000  N
  N8       1.0000 0.01160  0.52550  0.46950  Biso   1.000  N
  N9       1.0000 0.80630  0.52940  0.75010  Biso   1.000  N
  N10      1.0000 0.90950  0.44390  0.85160  Biso   1.000  N
  N11      1.0000 0.51950  0.69660  0.02910  Biso   1.000  N
  N12      1.0000 0.42860  0.78920  0.11970  Biso   1.000  N
  N13      1.0000 0.51160  0.97450  0.96950  Biso   1.000  N
  N14      1.0000 0.30630  0.97060  0.25010  Biso   1.000  N
  N15      1.0000 0.40950  0.05610  0.35160  Biso   1.000  N
  N16      1.0000 0.98050  0.19660  0.47090  Biso   1.000  N
  N17      1.0000 0.07140  0.28920  0.38030  Biso   1.000  N
  N18      1.0000 0.98840  0.47450  0.53050  Biso   1.000  N
  N19      1.0000 0.19370  0.47060  0.24990  Biso   1.000  N
  N20      1.0000 0.09050  0.55610  0.14840  Biso   1.000  N
  O1       1.0000 0.87860  0.15250  0.90890  Biso   1.000  O
  O2       1.0000 0.28250  0.25230  0.22840  Biso   1.000  O
  O3       1.0000 0.05190  0.27280  0.18630  Biso   1.000  O
  O4       1.0000 0.02200  0.06470  0.83620  Biso   1.000  O
  O5       1.0000 0.62140  0.65250  0.59110  Biso   1.000  O
  O6       1.0000 0.21750  0.75230  0.27160  Biso   1.000  O
  O7       1.0000 0.44810  0.77280  0.31370  Biso   1.000  O
  O8       1.0000 0.47800  0.56470  0.66380  Biso   1.000  O
  O9       1.0000 0.12140  0.84750  0.09110  Biso   1.000  O
  O10      1.0000 0.71750  0.74770  0.77160  Biso   1.000  O
  O11      1.0000 0.94810  0.72720  0.81370  Biso   1.000  O
  O12      1.0000 0.97800  0.93530  0.16380  Biso   1.000  O
  O13      1.0000 0.37860  0.34750  0.40890  Biso   1.000  O
  O14      1.0000 0.78250  0.24770  0.72840  Biso   1.000  O
  O15      1.0000 0.55190  0.22720  0.68630  Biso   1.000  O
  O16      1.0000 0.52200  0.43530  0.33620  Biso   1.000  O
