data_image0
_cell_length_a       8.66148
_cell_length_b       14.5663
_cell_length_c       15.239
_cell_angle_alpha    102.975
_cell_angle_beta     90
_cell_angle_gamma    107.296

_symmetry_space_group_name_H-M    P 1
_symmetry_int_tables_number       1

loop_
  _symmetry_equiv_pos_as_xyz
  'x, y, z'

loop_
  _atom_site_label
  _atom_site_occupancy
  _atom_site_fract_x
  _atom_site_fract_y
  _atom_site_fract_z
  _atom_site_thermal_displace_type
  _atom_site_B_iso_or_equiv
  _atom_site_type_symbol
  Mn1      1.0000 0.49170  0.49348  0.38385  Biso   1.000  Mn
  Mn2      1.0000 0.99822  0.50652  0.11615  Biso   1.000  Mn
  Mn3      1.0000 0.50830  0.50652  0.61615  Biso   1.000  Mn
  Mn4      1.0000 0.00178  0.49348  0.88385  Biso   1.000  Mn
  H1       1.0000 0.64240  0.72460  0.38110  Biso   1.000  H
  H2       1.0000 0.86750  0.53920  0.41640  Biso   1.000  H
  H3       1.0000 0.11470  0.65580  0.42070  Biso   1.000  H
  H4       1.0000 0.12570  0.81260  0.40670  Biso   1.000  H
  H5       1.0000 0.77960  0.89540  0.38120  Biso   1.000  H
  H6       1.0000 0.20600  0.09160  0.36190  Biso   1.000  H
  H7       1.0000 0.85710  0.17620  0.35230  Biso   1.000  H
  H8       1.0000 0.86380  0.33360  0.34340  Biso   1.000  H
  H9       1.0000 0.11070  0.45240  0.35090  Biso   1.000  H
  H10      1.0000 0.33970  0.26200  0.35890  Biso   1.000  H
  H11      1.0000 0.91780  0.27540  0.11890  Biso   1.000  H
  H12      1.0000 0.32830  0.46080  0.08360  Biso   1.000  H
  H13      1.0000 0.45890  0.34420  0.07930  Biso   1.000  H
  H14      1.0000 0.31310  0.18740  0.09330  Biso   1.000  H
  H15      1.0000 0.88420  0.10460  0.11880  Biso   1.000  H
  H16      1.0000 0.11440  0.90840  0.13810  Biso   1.000  H
  H17      1.0000 0.68090  0.82380  0.14770  Biso   1.000  H
  H18      1.0000 0.53020  0.66640  0.15660  Biso   1.000  H
  H19      1.0000 0.65830  0.54760  0.14910  Biso   1.000  H
  H20      1.0000 0.07770  0.73800  0.14110  Biso   1.000  H
  H21      1.0000 0.35760  0.27540  0.61890  Biso   1.000  H
  H22      1.0000 0.13250  0.46080  0.58360  Biso   1.000  H
  H23      1.0000 0.88530  0.34420  0.57930  Biso   1.000  H
  H24      1.0000 0.87430  0.18740  0.59330  Biso   1.000  H
  H25      1.0000 0.22040  0.10460  0.61880  Biso   1.000  H
  H26      1.0000 0.79400  0.90840  0.63810  Biso   1.000  H
  H27      1.0000 0.14290  0.82380  0.64770  Biso   1.000  H
  H28      1.0000 0.13620  0.66640  0.65660  Biso   1.000  H
  H29      1.0000 0.88930  0.54760  0.64910  Biso   1.000  H
  H30      1.0000 0.66030  0.73800  0.64110  Biso   1.000  H
  H31      1.0000 0.08220  0.72460  0.88110  Biso   1.000  H
  H32      1.0000 0.67170  0.53920  0.91640  Biso   1.000  H
  H33      1.0000 0.54110  0.65580  0.92070  Biso   1.000  H
  H34      1.0000 0.68690  0.81260  0.90670  Biso   1.000  H
  H35      1.0000 0.11580  0.89540  0.88120  Biso   1.000  H
  H36      1.0000 0.88560  0.09160  0.86190  Biso   1.000  H
  H37      1.0000 0.31910  0.17620  0.85230  Biso   1.000  H
  H38      1.0000 0.46980  0.33360  0.84340  Biso   1.000  H
  H39      1.0000 0.34170  0.45240  0.85090  Biso   1.000  H
  H40      1.0000 0.92230  0.26200  0.85890  Biso   1.000  H
  C1       1.0000 0.73903  0.71086  0.38910  Biso   1.000  C
  C2       1.0000 0.87074  0.60148  0.40950  Biso   1.000  C
  C3       1.0000 0.01981  0.67142  0.41280  Biso   1.000  C
  C4       1.0000 0.02633  0.76426  0.40440  Biso   1.000  C
  C5       1.0000 0.88254  0.78528  0.39240  Biso   1.000  C
  C6       1.0000 0.87810  0.88240  0.38310  Biso   1.000  C
  C7       1.0000 0.10741  0.10502  0.36370  Biso   1.000  C
  C8       1.0000 0.09989  0.20258  0.35770  Biso   1.000  C
  C9       1.0000 0.95570  0.22460  0.35280  Biso   1.000  C
  C10      1.0000 0.95942  0.31784  0.34860  Biso   1.000  C
  C11      1.0000 0.10880  0.38860  0.35200  Biso   1.000  C
  C12      1.0000 0.24261  0.27702  0.35800  Biso   1.000  C
  C13      1.0000 0.02817  0.28914  0.11090  Biso   1.000  C
  C14      1.0000 0.26926  0.39852  0.09050  Biso   1.000  C
  C15      1.0000 0.34839  0.32858  0.08720  Biso   1.000  C
  C16      1.0000 0.26207  0.23574  0.09560  Biso   1.000  C
  C17      1.0000 0.09726  0.21472  0.10760  Biso   1.000  C
  C18      1.0000 0.99570  0.11760  0.11690  Biso   1.000  C
  C19      1.0000 0.00239  0.89498  0.13630  Biso   1.000  C
  C20      1.0000 0.89731  0.79742  0.14230  Biso   1.000  C
  C21      1.0000 0.73110  0.77540  0.14720  Biso   1.000  C
  C22      1.0000 0.64158  0.68216  0.15140  Biso   1.000  C
  C23      1.0000 0.72020  0.61140  0.14800  Biso   1.000  C
  C24      1.0000 0.96559  0.72298  0.14200  Biso   1.000  C
  C25      1.0000 0.26097  0.28914  0.61090  Biso   1.000  C
  C26      1.0000 0.12926  0.39852  0.59050  Biso   1.000  C
  C27      1.0000 0.98019  0.32858  0.58720  Biso   1.000  C
  C28      1.0000 0.97367  0.23574  0.59560  Biso   1.000  C
  C29      1.0000 0.11746  0.21472  0.60760  Biso   1.000  C
  C30      1.0000 0.12190  0.11760  0.61690  Biso   1.000  C
  C31      1.0000 0.89259  0.89498  0.63630  Biso   1.000  C
  C32      1.0000 0.90011  0.79742  0.64230  Biso   1.000  C
  C33      1.0000 0.04430  0.77540  0.64720  Biso   1.000  C
  C34      1.0000 0.04058  0.68216  0.65140  Biso   1.000  C
  C35      1.0000 0.89120  0.61140  0.64800  Biso   1.000  C
  C36      1.0000 0.75739  0.72298  0.64200  Biso   1.000  C
  C37      1.0000 0.97183  0.71086  0.88910  Biso   1.000  C
  C38      1.0000 0.73074  0.60148  0.90950  Biso   1.000  C
  C39      1.0000 0.65161  0.67142  0.91280  Biso   1.000  C
  C40      1.0000 0.73793  0.76426  0.90440  Biso   1.000  C
  C41      1.0000 0.90274  0.78528  0.89240  Biso   1.000  C
  C42      1.0000 0.00430  0.88240  0.88310  Biso   1.000  C
  C43      1.0000 0.99761  0.10502  0.86370  Biso   1.000  C
  C44      1.0000 0.10269  0.20258  0.85770  Biso   1.000  C
  C45      1.0000 0.26890  0.22460  0.85280  Biso   1.000  C
  C46      1.0000 0.35842  0.31784  0.84860  Biso   1.000  C
  C47      1.0000 0.27980  0.38860  0.85200  Biso   1.000  C
  C48      1.0000 0.03441  0.27702  0.85800  Biso   1.000  C
  N1       1.0000 0.73138  0.61936  0.39680  Biso   1.000  N
  N2       1.0000 0.01057  0.94934  0.37760  Biso   1.000  N
  N3       1.0000 0.97626  0.03832  0.37160  Biso   1.000  N
  N4       1.0000 0.24872  0.37024  0.35700  Biso   1.000  N
  N5       1.0000 0.58458  0.43016  0.48740  Biso   1.000  N
  N6       1.0000 0.59854  0.34848  0.47590  Biso   1.000  N
  N7       1.0000 0.61102  0.27044  0.46460  Biso   1.000  N
  N8       1.0000 0.59431  0.40322  0.28040  Biso   1.000  N
  N9       1.0000 0.70699  0.41578  0.23750  Biso   1.000  N
  N10      1.0000 0.81920  0.42560  0.19560  Biso   1.000  N
  N11      1.0000 0.11202  0.38064  0.10320  Biso   1.000  N
  N12      1.0000 0.06123  0.05066  0.12240  Biso   1.000  N
  N13      1.0000 0.93794  0.96168  0.12840  Biso   1.000  N
  N14      1.0000 0.87848  0.62976  0.14300  Biso   1.000  N
  N15      1.0000 0.15442  0.56984  0.01260  Biso   1.000  N
  N16      1.0000 0.25006  0.65152  0.02410  Biso   1.000  N
  N17      1.0000 0.34058  0.72956  0.03540  Biso   1.000  N
  N18      1.0000 0.19109  0.59678  0.21960  Biso   1.000  N
  N19      1.0000 0.29121  0.58422  0.26250  Biso   1.000  N
  N20      1.0000 0.39360  0.57440  0.30440  Biso   1.000  N
  N21      1.0000 0.26862  0.38064  0.60320  Biso   1.000  N
  N22      1.0000 0.98943  0.05066  0.62240  Biso   1.000  N
  N23      1.0000 0.02374  0.96168  0.62840  Biso   1.000  N
  N24      1.0000 0.75128  0.62976  0.64300  Biso   1.000  N
  N25      1.0000 0.41542  0.56984  0.51260  Biso   1.000  N
  N26      1.0000 0.40146  0.65152  0.52410  Biso   1.000  N
  N27      1.0000 0.38898  0.72956  0.53540  Biso   1.000  N
  N28      1.0000 0.40569  0.59678  0.71960  Biso   1.000  N
  N29      1.0000 0.29301  0.58422  0.76250  Biso   1.000  N
  N30      1.0000 0.18080  0.57440  0.80440  Biso   1.000  N
  N31      1.0000 0.88798  0.61936  0.89680  Biso   1.000  N
  N32      1.0000 0.93877  0.94934  0.87760  Biso   1.000  N
  N33      1.0000 0.06206  0.03832  0.87160  Biso   1.000  N
  N34      1.0000 0.12152  0.37024  0.85700  Biso   1.000  N
  N35      1.0000 0.84558  0.43016  0.98740  Biso   1.000  N
  N36      1.0000 0.74994  0.34848  0.97590  Biso   1.000  N
  N37      1.0000 0.65942  0.27044  0.96460  Biso   1.000  N
  N38      1.0000 0.80891  0.40322  0.78040  Biso   1.000  N
  N39      1.0000 0.70879  0.41578  0.73750  Biso   1.000  N
  N40      1.0000 0.60640  0.42560  0.69560  Biso   1.000  N
