data_image0
_cell_length_a       18.2766
_cell_length_b       24.6401
_cell_length_c       24.6401
_cell_angle_alpha    65.9017
_cell_angle_beta     75.6853
_cell_angle_gamma    104.315

_symmetry_space_group_name_H-M    P 1
_symmetry_int_tables_number       1

loop_
  _symmetry_equiv_pos_as_xyz
  'x, y, z'

loop_
  _atom_site_label
  _atom_site_occupancy
  _atom_site_fract_x
  _atom_site_fract_y
  _atom_site_fract_z
  _atom_site_thermal_displace_type
  _atom_site_B_iso_or_equiv
  _atom_site_type_symbol
  Cu1      1.0000 0.86716  0.16711  0.28268  Biso   1.000  Cu
  Cu2      1.0000 0.87996  0.35089  0.21176  Biso   1.000  Cu
  Cu3      1.0000 0.79246  0.96090  0.39894  Biso   1.000  Cu
  Cu4      1.0000 0.96029  0.55694  0.10916  Biso   1.000  Cu
  Cu5      1.0000 0.14984  0.28268  0.55021  Biso   1.000  Cu
  Cu6      1.0000 0.09172  0.21176  0.43735  Biso   1.000  Cu
  Cu7      1.0000 0.19140  0.39894  0.64016  Biso   1.000  Cu
  Cu8      1.0000 0.06945  0.10916  0.33390  Biso   1.000  Cu
  Cu9      1.0000 0.70005  0.55021  0.16711  Biso   1.000  Cu
  Cu10     1.0000 0.52907  0.43735  0.35089  Biso   1.000  Cu
  Cu11     1.0000 0.83156  0.64016  0.96090  Biso   1.000  Cu
  Cu12     1.0000 0.40335  0.33390  0.55694  Biso   1.000  Cu
  Cu13     1.0000 0.13284  0.83289  0.71732  Biso   1.000  Cu
  Cu14     1.0000 0.12004  0.64911  0.78824  Biso   1.000  Cu
  Cu15     1.0000 0.20754  0.03910  0.60106  Biso   1.000  Cu
  Cu16     1.0000 0.03971  0.44306  0.89084  Biso   1.000  Cu
  Cu17     1.0000 0.85016  0.71732  0.44979  Biso   1.000  Cu
  Cu18     1.0000 0.90828  0.78824  0.56265  Biso   1.000  Cu
  Cu19     1.0000 0.80860  0.60106  0.35984  Biso   1.000  Cu
  Cu20     1.0000 0.93055  0.89084  0.66610  Biso   1.000  Cu
  Cu21     1.0000 0.29995  0.44979  0.83289  Biso   1.000  Cu
  Cu22     1.0000 0.47093  0.56265  0.64911  Biso   1.000  Cu
  Cu23     1.0000 0.16844  0.35984  0.03910  Biso   1.000  Cu
  Cu24     1.0000 0.59665  0.66610  0.44306  Biso   1.000  Cu
  H1       1.0000 0.05520  0.70000  0.99390  Biso   1.000  H
  H2       1.0000 0.16190  0.75480  0.89330  Biso   1.000  H
  H3       1.0000 0.22560  0.69710  0.85930  Biso   1.000  H
  H4       1.0000 0.18010  0.58630  0.92460  Biso   1.000  H
  H5       1.0000 0.68130  0.81570  0.51000  Biso   1.000  H
  H6       1.0000 0.54910  0.75920  0.58610  Biso   1.000  H
  H7       1.0000 0.46810  0.81440  0.59960  Biso   1.000  H
  H8       1.0000 0.51850  0.92600  0.53060  Biso   1.000  H
  H9       1.0000 0.70400  0.29630  0.31740  Biso   1.000  H
  H10      1.0000 0.77640  0.00870  0.26680  Biso   1.000  H
  H11      1.0000 0.73790  0.85870  0.28930  Biso   1.000  H
  H12      1.0000 0.74730  0.87710  0.21830  Biso   1.000  H
  H13      1.0000 0.66150  0.85640  0.27080  Biso   1.000  H
  H14      1.0000 0.69100  0.98740  0.18250  Biso   1.000  H
  H15      1.0000 0.76490  0.97760  0.14510  Biso   1.000  H
  H16      1.0000 0.78140  0.03500  0.15930  Biso   1.000  H
  H17      1.0000 0.99190  0.58200  0.21880  Biso   1.000  H
  H18      1.0000 0.12410  0.65490  0.25750  Biso   1.000  H
  H19      1.0000 0.07840  0.58280  0.31320  Biso   1.000  H
  H20      1.0000 0.02890  0.61990  0.28100  Biso   1.000  H
  H21      1.0000 0.22660  0.62350  0.17420  Biso   1.000  H
  H22      1.0000 0.16790  0.57310  0.16460  Biso   1.000  H
  H23      1.0000 0.17780  0.55160  0.23070  Biso   1.000  H
  H24      1.0000 0.03180  0.22000  0.15980  Biso   1.000  H
  H25      1.0000 0.05970  0.42270  0.21880  Biso   1.000  H
  H26      1.0000 0.03140  0.41730  0.28690  Biso   1.000  H
  H27      1.0000 0.00090  0.45560  0.23520  Biso   1.000  H
  H28      1.0000 0.95920  0.33490  0.28130  Biso   1.000  H
  H29      1.0000 0.04910  0.99390  0.30610  Biso   1.000  H
  H30      1.0000 0.05520  0.89330  0.35190  Biso   1.000  H
  H31      1.0000 0.08490  0.85930  0.44360  Biso   1.000  H
  H32      1.0000 0.10470  0.92460  0.48910  Biso   1.000  H
  H33      1.0000 0.19130  0.51000  0.67430  Biso   1.000  H
  H34      1.0000 0.13520  0.58610  0.65470  Biso   1.000  H
  H35      1.0000 0.06770  0.59960  0.58600  Biso   1.000  H
  H36      1.0000 0.04910  0.53060  0.54340  Biso   1.000  H
  H37      1.0000 0.02140  0.31740  0.38630  Biso   1.000  H
  H38      1.0000 0.04320  0.26680  0.72450  Biso   1.000  H
  H39      1.0000 0.02720  0.28930  0.85200  Biso   1.000  H
  H40      1.0000 0.96560  0.21830  0.90460  Biso   1.000  H
  H41      1.0000 0.93230  0.27080  0.87280  Biso   1.000  H
  H42      1.0000 0.87350  0.18250  0.83010  Biso   1.000  H
  H43      1.0000 0.91000  0.14510  0.87730  Biso   1.000  H
  H44      1.0000 0.94070  0.15930  0.80570  Biso   1.000  H
  H45      1.0000 0.21070  0.21880  0.19920  Biso   1.000  H
  H46      1.0000 0.38160  0.25750  0.08760  Biso   1.000  H
  H47      1.0000 0.39160  0.31320  0.10400  Biso   1.000  H
  H48      1.0000 0.30990  0.28100  0.09910  Biso   1.000  H
  H49      1.0000 0.40080  0.17420  0.20230  Biso   1.000  H
  H50      1.0000 0.33250  0.16460  0.26230  Biso   1.000  H
  H51      1.0000 0.40850  0.23070  0.21770  Biso   1.000  H
  H52      1.0000 0.19160  0.15980  0.62020  Biso   1.000  H
  H53      1.0000 0.27850  0.21880  0.35850  Biso   1.000  H
  H54      1.0000 0.31830  0.28690  0.29580  Biso   1.000  H
  H55      1.0000 0.23610  0.23520  0.30920  Biso   1.000  H
  H56      1.0000 0.24050  0.28130  0.38380  Biso   1.000  H
  H57      1.0000 0.35520  0.30610  0.70000  Biso   1.000  H
  H58      1.0000 0.40710  0.35190  0.75480  Biso   1.000  H
  H59      1.0000 0.52850  0.44360  0.69710  Biso   1.000  H
  H60      1.0000 0.59380  0.48910  0.58630  Biso   1.000  H
  H61      1.0000 0.86560  0.67430  0.81570  Biso   1.000  H
  H62      1.0000 0.78990  0.65470  0.75920  Biso   1.000  H
  H63      1.0000 0.65370  0.58600  0.81440  Biso   1.000  H
  H64      1.0000 0.59250  0.54340  0.92600  Biso   1.000  H
  H65      1.0000 0.40770  0.38630  0.29630  Biso   1.000  H
  H66      1.0000 0.76770  0.72450  0.00870  Biso   1.000  H
  H67      1.0000 0.87920  0.85200  0.85870  Biso   1.000  H
  H68      1.0000 0.87020  0.90460  0.87710  Biso   1.000  H
  H69      1.0000 0.80510  0.87280  0.85640  Biso   1.000  H
  H70      1.0000 0.70360  0.83010  0.98740  Biso   1.000  H
  H71      1.0000 0.78730  0.87730  0.97760  Biso   1.000  H
  H72      1.0000 0.74640  0.80570  0.03500  Biso   1.000  H
  H73      1.0000 0.40990  0.19920  0.58200  Biso   1.000  H
  H74      1.0000 0.46920  0.08760  0.65490  Biso   1.000  H
  H75      1.0000 0.49560  0.10400  0.58280  Biso   1.000  H
  H76      1.0000 0.40900  0.09910  0.61990  Biso   1.000  H
  H77      1.0000 0.60310  0.20230  0.62350  Biso   1.000  H
  H78      1.0000 0.59480  0.26230  0.57310  Biso   1.000  H
  H79      1.0000 0.62620  0.21770  0.55160  Biso   1.000  H
  H80      1.0000 0.81180  0.62020  0.22000  Biso   1.000  H
  H81      1.0000 0.63700  0.35850  0.42270  Biso   1.000  H
  H82      1.0000 0.61410  0.29580  0.41730  Biso   1.000  H
  H83      1.0000 0.54530  0.30920  0.45560  Biso   1.000  H
  H84      1.0000 0.62430  0.38380  0.33490  Biso   1.000  H
  H85      1.0000 0.94480  0.30000  0.00610  Biso   1.000  H
  H86      1.0000 0.83810  0.24520  0.10670  Biso   1.000  H
  H87      1.0000 0.77440  0.30290  0.14070  Biso   1.000  H
  H88      1.0000 0.81990  0.41370  0.07540  Biso   1.000  H
  H89      1.0000 0.31870  0.18430  0.49000  Biso   1.000  H
  H90      1.0000 0.45090  0.24080  0.41390  Biso   1.000  H
  H91      1.0000 0.53190  0.18560  0.40040  Biso   1.000  H
  H92      1.0000 0.48150  0.07400  0.46940  Biso   1.000  H
  H93      1.0000 0.29600  0.70370  0.68260  Biso   1.000  H
  H94      1.0000 0.22360  0.99130  0.73320  Biso   1.000  H
  H95      1.0000 0.26210  0.14130  0.71070  Biso   1.000  H
  H96      1.0000 0.25270  0.12290  0.78170  Biso   1.000  H
  H97      1.0000 0.33850  0.14360  0.72920  Biso   1.000  H
  H98      1.0000 0.30900  0.01260  0.81750  Biso   1.000  H
  H99      1.0000 0.23510  0.02240  0.85490  Biso   1.000  H
  H100     1.0000 0.21860  0.96500  0.84070  Biso   1.000  H
  H101     1.0000 0.00810  0.41800  0.78120  Biso   1.000  H
  H102     1.0000 0.87590  0.34510  0.74250  Biso   1.000  H
  H103     1.0000 0.92160  0.41720  0.68680  Biso   1.000  H
  H104     1.0000 0.97110  0.38010  0.71900  Biso   1.000  H
  H105     1.0000 0.77340  0.37650  0.82580  Biso   1.000  H
  H106     1.0000 0.83210  0.42690  0.83540  Biso   1.000  H
  H107     1.0000 0.82220  0.44840  0.76930  Biso   1.000  H
  H108     1.0000 0.96820  0.78000  0.84020  Biso   1.000  H
  H109     1.0000 0.94030  0.57730  0.78120  Biso   1.000  H
  H110     1.0000 0.96860  0.58270  0.71310  Biso   1.000  H
  H111     1.0000 0.99910  0.54440  0.76480  Biso   1.000  H
  H112     1.0000 0.04080  0.66510  0.71870  Biso   1.000  H
  H113     1.0000 0.95090  0.00610  0.69390  Biso   1.000  H
  H114     1.0000 0.94480  0.10670  0.64810  Biso   1.000  H
  H115     1.0000 0.91510  0.14070  0.55640  Biso   1.000  H
  H116     1.0000 0.89530  0.07540  0.51090  Biso   1.000  H
  H117     1.0000 0.80870  0.49000  0.32570  Biso   1.000  H
  H118     1.0000 0.86480  0.41390  0.34530  Biso   1.000  H
  H119     1.0000 0.93230  0.40040  0.41400  Biso   1.000  H
  H120     1.0000 0.95090  0.46940  0.45660  Biso   1.000  H
  H121     1.0000 0.97860  0.68260  0.61370  Biso   1.000  H
  H122     1.0000 0.95680  0.73320  0.27550  Biso   1.000  H
  H123     1.0000 0.97280  0.71070  0.14800  Biso   1.000  H
  H124     1.0000 0.03440  0.78170  0.09540  Biso   1.000  H
  H125     1.0000 0.06770  0.72920  0.12720  Biso   1.000  H
  H126     1.0000 0.12650  0.81750  0.16990  Biso   1.000  H
  H127     1.0000 0.09000  0.85490  0.12270  Biso   1.000  H
  H128     1.0000 0.05930  0.84070  0.19430  Biso   1.000  H
  H129     1.0000 0.78930  0.78120  0.80080  Biso   1.000  H
  H130     1.0000 0.61840  0.74250  0.91240  Biso   1.000  H
  H131     1.0000 0.60840  0.68680  0.89600  Biso   1.000  H
  H132     1.0000 0.69010  0.71900  0.90090  Biso   1.000  H
  H133     1.0000 0.59920  0.82580  0.79770  Biso   1.000  H
  H134     1.0000 0.66750  0.83540  0.73770  Biso   1.000  H
  H135     1.0000 0.59150  0.76930  0.78230  Biso   1.000  H
  H136     1.0000 0.80840  0.84020  0.37980  Biso   1.000  H
  H137     1.0000 0.72150  0.78120  0.64150  Biso   1.000  H
  H138     1.0000 0.68170  0.71310  0.70420  Biso   1.000  H
  H139     1.0000 0.76390  0.76480  0.69080  Biso   1.000  H
  H140     1.0000 0.75950  0.71870  0.61620  Biso   1.000  H
  H141     1.0000 0.64480  0.69390  0.30000  Biso   1.000  H
  H142     1.0000 0.59290  0.64810  0.24520  Biso   1.000  H
  H143     1.0000 0.47150  0.55640  0.30290  Biso   1.000  H
  H144     1.0000 0.40620  0.51090  0.41370  Biso   1.000  H
  H145     1.0000 0.13440  0.32570  0.18430  Biso   1.000  H
  H146     1.0000 0.21010  0.34530  0.24080  Biso   1.000  H
  H147     1.0000 0.34630  0.41400  0.18560  Biso   1.000  H
  H148     1.0000 0.40750  0.45660  0.07400  Biso   1.000  H
  H149     1.0000 0.59230  0.61370  0.70370  Biso   1.000  H
  H150     1.0000 0.23230  0.27550  0.99130  Biso   1.000  H
  H151     1.0000 0.12080  0.14800  0.14130  Biso   1.000  H
  H152     1.0000 0.12980  0.09540  0.12290  Biso   1.000  H
  H153     1.0000 0.19490  0.12720  0.14360  Biso   1.000  H
  H154     1.0000 0.29640  0.16990  0.01260  Biso   1.000  H
  H155     1.0000 0.21270  0.12270  0.02240  Biso   1.000  H
  H156     1.0000 0.25360  0.19430  0.96500  Biso   1.000  H
  H157     1.0000 0.59010  0.80080  0.41800  Biso   1.000  H
  H158     1.0000 0.53080  0.91240  0.34510  Biso   1.000  H
  H159     1.0000 0.50440  0.89600  0.41720  Biso   1.000  H
  H160     1.0000 0.59100  0.90090  0.38010  Biso   1.000  H
  H161     1.0000 0.39690  0.79770  0.37650  Biso   1.000  H
  H162     1.0000 0.40520  0.73770  0.42690  Biso   1.000  H
  H163     1.0000 0.37380  0.78230  0.44840  Biso   1.000  H
  H164     1.0000 0.18820  0.37980  0.78000  Biso   1.000  H
  H165     1.0000 0.36300  0.64150  0.57730  Biso   1.000  H
  H166     1.0000 0.38590  0.70420  0.58270  Biso   1.000  H
  H167     1.0000 0.45470  0.69080  0.54440  Biso   1.000  H
  H168     1.0000 0.37570  0.61620  0.66510  Biso   1.000  H
  C1       1.0000 0.08005  0.67688  0.97963  Biso   1.000  C
  C2       1.0000 0.14447  0.71032  0.91941  Biso   1.000  C
  C3       1.0000 0.18197  0.67563  0.89942  Biso   1.000  C
  C4       1.0000 0.15557  0.61018  0.93777  Biso   1.000  C
  C5       1.0000 0.09119  0.58093  0.99696  Biso   1.000  C
  C6       1.0000 0.05588  0.51135  0.04441  Biso   1.000  C
  C7       1.0000 0.02590  0.41368  0.09788  Biso   1.000  C
  C8       1.0000 0.01300  0.34568  0.12768  Biso   1.000  C
  C9       1.0000 0.64776  0.83792  0.51404  Biso   1.000  C
  C10      1.0000 0.56920  0.80400  0.56010  Biso   1.000  C
  C11      1.0000 0.52090  0.83640  0.56760  Biso   1.000  C
  C12      1.0000 0.55090  0.90300  0.52680  Biso   1.000  C
  C13      1.0000 0.63013  0.93392  0.48053  Biso   1.000  C
  C14      1.0000 0.67064  0.00476  0.43554  Biso   1.000  C
  C15      1.0000 0.70693  0.10288  0.38279  Biso   1.000  C
  C16      1.0000 0.71982  0.17068  0.35222  Biso   1.000  C
  C17      1.0000 0.72003  0.26241  0.32092  Biso   1.000  C
  C18      1.0000 0.76010  0.96470  0.28160  Biso   1.000  C
  C19      1.0000 0.71960  0.87870  0.25590  Biso   1.000  C
  C20      1.0000 0.74640  0.99090  0.17580  Biso   1.000  C
  C21      1.0000 0.04500  0.58850  0.19560  Biso   1.000  C
  C22      1.0000 0.08010  0.61450  0.27350  Biso   1.000  C
  C23      1.0000 0.17590  0.58640  0.19500  Biso   1.000  C
  C24      1.0000 0.01571  0.25347  0.15784  Biso   1.000  C
  C25      1.0000 0.01500  0.41880  0.25240  Biso   1.000  C
  C26      1.0000 0.05968  0.97963  0.34349  Biso   1.000  C
  C27      1.0000 0.06388  0.91941  0.37027  Biso   1.000  C
  C28      1.0000 0.08139  0.89942  0.42495  Biso   1.000  C
  C29      1.0000 0.09334  0.93777  0.45205  Biso   1.000  C
  C30      1.0000 0.08815  0.99696  0.42211  Biso   1.000  C
  C31      1.0000 0.10029  0.04441  0.44424  Biso   1.000  C
  C32      1.0000 0.12378  0.09788  0.48844  Biso   1.000  C
  C33      1.0000 0.14068  0.12768  0.52664  Biso   1.000  C
  C34      1.0000 0.16180  0.51404  0.64804  Biso   1.000  C
  C35      1.0000 0.12930  0.56010  0.63590  Biso   1.000  C
  C36      1.0000 0.08850  0.56760  0.59600  Biso   1.000  C
  C37      1.0000 0.07770  0.52680  0.57020  Biso   1.000  C
  C38      1.0000 0.11066  0.48053  0.58555  Biso   1.000  C
  C39      1.0000 0.10618  0.43554  0.55970  Biso   1.000  C
  C40      1.0000 0.08972  0.38279  0.51433  Biso   1.000  C
  C41      1.0000 0.07204  0.35222  0.47710  Biso   1.000  C
  C42      1.0000 0.04095  0.32092  0.41667  Biso   1.000  C
  C43      1.0000 0.04170  0.28160  0.75370  Biso   1.000  C
  C44      1.0000 0.97550  0.25590  0.86540  Biso   1.000  C
  C45      1.0000 0.92220  0.17580  0.83330  Biso   1.000  C
  C46      1.0000 0.24060  0.19560  0.21590  Biso   1.000  C
  C47      1.0000 0.35360  0.27350  0.11200  Biso   1.000  C
  C48      1.0000 0.37090  0.19500  0.21860  Biso   1.000  C
  C49      1.0000 0.17355  0.15784  0.58869  Biso   1.000  C
  C50      1.0000 0.26740  0.25240  0.32880  Biso   1.000  C
  C51      1.0000 0.40317  0.34349  0.67688  Biso   1.000  C
  C52      1.0000 0.43415  0.37027  0.71032  Biso   1.000  C
  C53      1.0000 0.50634  0.42495  0.67563  Biso   1.000  C
  C54      1.0000 0.54539  0.45205  0.61018  Biso   1.000  C
  C55      1.0000 0.51026  0.42211  0.58093  Biso   1.000  C
  C56      1.0000 0.54453  0.44424  0.51135  Biso   1.000  C
  C57      1.0000 0.61222  0.48844  0.41368  Biso   1.000  C
  C58      1.0000 0.66732  0.52664  0.34568  Biso   1.000  C
  C59      1.0000 0.80984  0.64804  0.83792  Biso   1.000  C
  C60      1.0000 0.76520  0.63590  0.80400  Biso   1.000  C
  C61      1.0000 0.68450  0.59600  0.83640  Biso   1.000  C
  C62      1.0000 0.64790  0.57020  0.90300  Biso   1.000  C
  C63      1.0000 0.69621  0.58555  0.93392  Biso   1.000  C
  C64      1.0000 0.66588  0.55970  0.00476  Biso   1.000  C
  C65      1.0000 0.60405  0.51433  0.10288  Biso   1.000  C
  C66      1.0000 0.54914  0.47710  0.17068  Biso   1.000  C
  C67      1.0000 0.45762  0.41667  0.26241  Biso   1.000  C
  C68      1.0000 0.79540  0.75370  0.96470  Biso   1.000  C
  C69      1.0000 0.84090  0.86540  0.87870  Biso   1.000  C
  C70      1.0000 0.75550  0.83330  0.99090  Biso   1.000  C
  C71      1.0000 0.45650  0.21590  0.58850  Biso   1.000  C
  C72      1.0000 0.46560  0.11200  0.61450  Biso   1.000  C
  C73      1.0000 0.58950  0.21860  0.58640  Biso   1.000  C
  C74      1.0000 0.76224  0.58869  0.25347  Biso   1.000  C
  C75      1.0000 0.59620  0.32880  0.41880  Biso   1.000  C
  C76      1.0000 0.91995  0.32312  0.02037  Biso   1.000  C
  C77      1.0000 0.85553  0.28968  0.08059  Biso   1.000  C
  C78      1.0000 0.81803  0.32437  0.10058  Biso   1.000  C
  C79      1.0000 0.84443  0.38982  0.06223  Biso   1.000  C
  C80      1.0000 0.90881  0.41907  0.00304  Biso   1.000  C
  C81      1.0000 0.94412  0.48865  0.95559  Biso   1.000  C
  C82      1.0000 0.97410  0.58632  0.90212  Biso   1.000  C
  C83      1.0000 0.98700  0.65432  0.87232  Biso   1.000  C
  C84      1.0000 0.35224  0.16208  0.48596  Biso   1.000  C
  C85      1.0000 0.43080  0.19600  0.43990  Biso   1.000  C
  C86      1.0000 0.47910  0.16360  0.43240  Biso   1.000  C
  C87      1.0000 0.44910  0.09700  0.47320  Biso   1.000  C
  C88      1.0000 0.36987  0.06608  0.51947  Biso   1.000  C
  C89      1.0000 0.32936  0.99524  0.56446  Biso   1.000  C
  C90      1.0000 0.29307  0.89712  0.61721  Biso   1.000  C
  C91      1.0000 0.28018  0.82932  0.64778  Biso   1.000  C
  C92      1.0000 0.27997  0.73759  0.67908  Biso   1.000  C
  C93      1.0000 0.23990  0.03530  0.71840  Biso   1.000  C
  C94      1.0000 0.28040  0.12130  0.74410  Biso   1.000  C
  C95      1.0000 0.25360  0.00910  0.82420  Biso   1.000  C
  C96      1.0000 0.95500  0.41150  0.80440  Biso   1.000  C
  C97      1.0000 0.91990  0.38550  0.72650  Biso   1.000  C
  C98      1.0000 0.82410  0.41360  0.80500  Biso   1.000  C
  C99      1.0000 0.98429  0.74653  0.84216  Biso   1.000  C
  C100     1.0000 0.98500  0.58120  0.74760  Biso   1.000  C
  C101     1.0000 0.94032  0.02037  0.65651  Biso   1.000  C
  C102     1.0000 0.93612  0.08059  0.62973  Biso   1.000  C
  C103     1.0000 0.91861  0.10058  0.57505  Biso   1.000  C
  C104     1.0000 0.90666  0.06223  0.54795  Biso   1.000  C
  C105     1.0000 0.91185  0.00304  0.57789  Biso   1.000  C
  C106     1.0000 0.89971  0.95559  0.55576  Biso   1.000  C
  C107     1.0000 0.87622  0.90212  0.51156  Biso   1.000  C
  C108     1.0000 0.85932  0.87232  0.47336  Biso   1.000  C
  C109     1.0000 0.83820  0.48596  0.35196  Biso   1.000  C
  C110     1.0000 0.87070  0.43990  0.36410  Biso   1.000  C
  C111     1.0000 0.91150  0.43240  0.40400  Biso   1.000  C
  C112     1.0000 0.92230  0.47320  0.42980  Biso   1.000  C
  C113     1.0000 0.88934  0.51947  0.41445  Biso   1.000  C
  C114     1.0000 0.89382  0.56446  0.44030  Biso   1.000  C
  C115     1.0000 0.91028  0.61721  0.48567  Biso   1.000  C
  C116     1.0000 0.92796  0.64778  0.52290  Biso   1.000  C
  C117     1.0000 0.95905  0.67908  0.58333  Biso   1.000  C
  C118     1.0000 0.95830  0.71840  0.24630  Biso   1.000  C
  C119     1.0000 0.02450  0.74410  0.13460  Biso   1.000  C
  C120     1.0000 0.07780  0.82420  0.16670  Biso   1.000  C
  C121     1.0000 0.75940  0.80440  0.78410  Biso   1.000  C
  C122     1.0000 0.64640  0.72650  0.88800  Biso   1.000  C
  C123     1.0000 0.62910  0.80500  0.78140  Biso   1.000  C
  C124     1.0000 0.82645  0.84216  0.41131  Biso   1.000  C
  C125     1.0000 0.73260  0.74760  0.67120  Biso   1.000  C
  C126     1.0000 0.59683  0.65651  0.32312  Biso   1.000  C
  C127     1.0000 0.56585  0.62973  0.28968  Biso   1.000  C
  C128     1.0000 0.49366  0.57505  0.32437  Biso   1.000  C
  C129     1.0000 0.45461  0.54795  0.38982  Biso   1.000  C
  C130     1.0000 0.48974  0.57789  0.41907  Biso   1.000  C
  C131     1.0000 0.45547  0.55576  0.48865  Biso   1.000  C
  C132     1.0000 0.38778  0.51156  0.58632  Biso   1.000  C
  C133     1.0000 0.33268  0.47336  0.65432  Biso   1.000  C
  C134     1.0000 0.19016  0.35196  0.16208  Biso   1.000  C
  C135     1.0000 0.23480  0.36410  0.19600  Biso   1.000  C
  C136     1.0000 0.31550  0.40400  0.16360  Biso   1.000  C
  C137     1.0000 0.35210  0.42980  0.09700  Biso   1.000  C
  C138     1.0000 0.30379  0.41445  0.06608  Biso   1.000  C
  C139     1.0000 0.33412  0.44030  0.99524  Biso   1.000  C
  C140     1.0000 0.39595  0.48567  0.89712  Biso   1.000  C
  C141     1.0000 0.45086  0.52290  0.82932  Biso   1.000  C
  C142     1.0000 0.54238  0.58333  0.73759  Biso   1.000  C
  C143     1.0000 0.20460  0.24630  0.03530  Biso   1.000  C
  C144     1.0000 0.15910  0.13460  0.12130  Biso   1.000  C
  C145     1.0000 0.24450  0.16670  0.00910  Biso   1.000  C
  C146     1.0000 0.54350  0.78410  0.41150  Biso   1.000  C
  C147     1.0000 0.53440  0.88800  0.38550  Biso   1.000  C
  C148     1.0000 0.41050  0.78140  0.41360  Biso   1.000  C
  C149     1.0000 0.23776  0.41131  0.74653  Biso   1.000  C
  C150     1.0000 0.40380  0.67120  0.58120  Biso   1.000  C
  S1       1.0000 0.01016  0.21479  0.33687  Biso   1.000  S
  S2       1.0000 0.95006  0.06979  0.27635  Biso   1.000  S
  S3       1.0000 0.34703  0.33687  0.44834  Biso   1.000  S
  S4       1.0000 0.22641  0.27635  0.65386  Biso   1.000  S
  S5       1.0000 0.79537  0.44834  0.21479  Biso   1.000  S
  S6       1.0000 0.88027  0.65386  0.06979  Biso   1.000  S
  S7       1.0000 0.98984  0.78521  0.66313  Biso   1.000  S
  S8       1.0000 0.04994  0.93021  0.72365  Biso   1.000  S
  S9       1.0000 0.65297  0.66313  0.55166  Biso   1.000  S
  S10      1.0000 0.77359  0.72365  0.34614  Biso   1.000  S
  S11      1.0000 0.20463  0.55166  0.78521  Biso   1.000  S
  S12      1.0000 0.11973  0.34614  0.93021  Biso   1.000  S
  N1       1.0000 0.05251  0.61346  0.01773  Biso   1.000  N
  N2       1.0000 0.98984  0.49006  0.09674  Biso   1.000  N
  N3       1.0000 0.96958  0.42602  0.13272  Biso   1.000  N
  N4       1.0000 0.08183  0.46510  0.04241  Biso   1.000  N
  N5       1.0000 0.94716  0.30571  0.18155  Biso   1.000  N
  N6       1.0000 0.94882  0.24547  0.20117  Biso   1.000  N
  N7       1.0000 0.67852  0.90278  0.47402  Biso   1.000  N
  N8       1.0000 0.74602  0.02567  0.39231  Biso   1.000  N
  N9       1.0000 0.76979  0.09082  0.35708  Biso   1.000  N
  N10      1.0000 0.64231  0.05094  0.43171  Biso   1.000  N
  N11      1.0000 0.79182  0.21088  0.30212  Biso   1.000  N
  N12      1.0000 0.79181  0.27100  0.28157  Biso   1.000  N
  N13      1.0000 0.67279  0.20025  0.36628  Biso   1.000  N
  N14      1.0000 0.74370  0.94490  0.23990  Biso   1.000  N
  N15      1.0000 0.10130  0.60330  0.21640  Biso   1.000  N
  N16      1.0000 0.05821  0.31572  0.11041  Biso   1.000  N
  N17      1.0000 0.07024  0.01773  0.36881  Biso   1.000  N
  N18      1.0000 0.08658  0.09674  0.41320  Biso   1.000  N
  N19      1.0000 0.10230  0.13272  0.44126  Biso   1.000  N
  N20      1.0000 0.12424  0.04241  0.49249  Biso   1.000  N
  N21      1.0000 0.12871  0.18155  0.51274  Biso   1.000  N
  N22      1.0000 0.14999  0.20117  0.55336  Biso   1.000  N
  N23      1.0000 0.15254  0.47402  0.62320  Biso   1.000  N
  N24      1.0000 0.13833  0.39231  0.58202  Biso   1.000  N
  N25      1.0000 0.12687  0.35708  0.55210  Biso   1.000  N
  N26      1.0000 0.07402  0.43171  0.51735  Biso   1.000  N
  N27      1.0000 0.09394  0.30212  0.48700  Biso   1.000  N
  N28      1.0000 0.07338  0.28157  0.44743  Biso   1.000  N
  N29      1.0000 0.03907  0.36628  0.43347  Biso   1.000  N
  N30      1.0000 0.98360  0.23990  0.81520  Biso   1.000  N
  N31      1.0000 0.31770  0.21640  0.18030  Biso   1.000  N
  N32      1.0000 0.16862  0.11041  0.57387  Biso   1.000  N
  N33      1.0000 0.43905  0.36881  0.61346  Biso   1.000  N
  N34      1.0000 0.49978  0.41320  0.49006  Biso   1.000  N
  N35      1.0000 0.54356  0.44126  0.42602  Biso   1.000  N
  N36      1.0000 0.61673  0.49249  0.46510  Biso   1.000  N
  N37      1.0000 0.64145  0.51274  0.30571  Biso   1.000  N
  N38      1.0000 0.70335  0.55336  0.24547  Biso   1.000  N
  N39      1.0000 0.77574  0.62320  0.90278  Biso   1.000  N
  N40      1.0000 0.72035  0.58202  0.02567  Biso   1.000  N
  N41      1.0000 0.67897  0.55210  0.09082  Biso   1.000  N
  N42      1.0000 0.59137  0.51735  0.05094  Biso   1.000  N
  N43      1.0000 0.58094  0.48700  0.21088  Biso   1.000  N
  N44      1.0000 0.52081  0.44743  0.27100  Biso   1.000  N
  N45      1.0000 0.47254  0.43347  0.20025  Biso   1.000  N
  N46      1.0000 0.79880  0.81520  0.94490  Biso   1.000  N
  N47      1.0000 0.49800  0.18030  0.60330  Biso   1.000  N
  N48      1.0000 0.74249  0.57387  0.31572  Biso   1.000  N
  N49      1.0000 0.94749  0.38654  0.98227  Biso   1.000  N
  N50      1.0000 0.01016  0.50994  0.90326  Biso   1.000  N
  N51      1.0000 0.03042  0.57398  0.86728  Biso   1.000  N
  N52      1.0000 0.91817  0.53490  0.95759  Biso   1.000  N
  N53      1.0000 0.05284  0.69429  0.81845  Biso   1.000  N
  N54      1.0000 0.05118  0.75453  0.79883  Biso   1.000  N
  N55      1.0000 0.32148  0.09722  0.52598  Biso   1.000  N
  N56      1.0000 0.25398  0.97433  0.60769  Biso   1.000  N
  N57      1.0000 0.23021  0.90918  0.64292  Biso   1.000  N
  N58      1.0000 0.35769  0.94906  0.56829  Biso   1.000  N
  N59      1.0000 0.20818  0.78912  0.69788  Biso   1.000  N
  N60      1.0000 0.20819  0.72900  0.71843  Biso   1.000  N
  N61      1.0000 0.32721  0.79975  0.63372  Biso   1.000  N
  N62      1.0000 0.25630  0.05510  0.76010  Biso   1.000  N
  N63      1.0000 0.89870  0.39670  0.78360  Biso   1.000  N
  N64      1.0000 0.94179  0.68428  0.88959  Biso   1.000  N
  N65      1.0000 0.92976  0.98227  0.63119  Biso   1.000  N
  N66      1.0000 0.91342  0.90326  0.58680  Biso   1.000  N
  N67      1.0000 0.89770  0.86728  0.55874  Biso   1.000  N
  N68      1.0000 0.87576  0.95759  0.50751  Biso   1.000  N
  N69      1.0000 0.87129  0.81845  0.48726  Biso   1.000  N
  N70      1.0000 0.85001  0.79883  0.44664  Biso   1.000  N
  N71      1.0000 0.84746  0.52598  0.37680  Biso   1.000  N
  N72      1.0000 0.86167  0.60769  0.41798  Biso   1.000  N
  N73      1.0000 0.87313  0.64292  0.44790  Biso   1.000  N
  N74      1.0000 0.92598  0.56829  0.48265  Biso   1.000  N
  N75      1.0000 0.90606  0.69788  0.51300  Biso   1.000  N
  N76      1.0000 0.92662  0.71843  0.55257  Biso   1.000  N
  N77      1.0000 0.96093  0.63372  0.56653  Biso   1.000  N
  N78      1.0000 0.01640  0.76010  0.18480  Biso   1.000  N
  N79      1.0000 0.68230  0.78360  0.81970  Biso   1.000  N
  N80      1.0000 0.83138  0.88959  0.42613  Biso   1.000  N
  N81      1.0000 0.56095  0.63119  0.38654  Biso   1.000  N
  N82      1.0000 0.50022  0.58680  0.50994  Biso   1.000  N
  N83      1.0000 0.45644  0.55874  0.57398  Biso   1.000  N
  N84      1.0000 0.38327  0.50751  0.53490  Biso   1.000  N
  N85      1.0000 0.35855  0.48726  0.69429  Biso   1.000  N
  N86      1.0000 0.29665  0.44664  0.75453  Biso   1.000  N
  N87      1.0000 0.22426  0.37680  0.09722  Biso   1.000  N
  N88      1.0000 0.27965  0.41798  0.97433  Biso   1.000  N
  N89      1.0000 0.32103  0.44790  0.90918  Biso   1.000  N
  N90      1.0000 0.40863  0.48265  0.94906  Biso   1.000  N
  N91      1.0000 0.41906  0.51300  0.78912  Biso   1.000  N
  N92      1.0000 0.47919  0.55257  0.72900  Biso   1.000  N
  N93      1.0000 0.52746  0.56653  0.79975  Biso   1.000  N
  N94      1.0000 0.20120  0.18480  0.05510  Biso   1.000  N
  N95      1.0000 0.50200  0.81970  0.39670  Biso   1.000  N
  N96      1.0000 0.25751  0.42613  0.68428  Biso   1.000  N
  O1       1.0000 0.90569  0.02634  0.34693  Biso   1.000  O
  O2       1.0000 0.95355  0.03461  0.24216  Biso   1.000  O
  O3       1.0000 0.90922  0.11379  0.25168  Biso   1.000  O
  O4       1.0000 0.03001  0.28323  0.29425  Biso   1.000  O
  O5       1.0000 0.07579  0.19738  0.30794  Biso   1.000  O
  O6       1.0000 0.00783  0.20385  0.40138  Biso   1.000  O
  O7       1.0000 0.94546  0.36090  0.27622  Biso   1.000  O
  O8       1.0000 0.75611  0.93382  0.33169  Biso   1.000  O
  O9       1.0000 0.05663  0.58236  0.14767  Biso   1.000  O
  O10      1.0000 0.03414  0.10858  0.26528  Biso   1.000  O
  O11      1.0000 0.93023  0.17258  0.34764  Biso   1.000  O
  O12      1.0000 0.25262  0.34693  0.62673  Biso   1.000  O
  O13      1.0000 0.19571  0.24216  0.72323  Biso   1.000  O
  O14      1.0000 0.16090  0.25168  0.63453  Biso   1.000  O
  O15      1.0000 0.32426  0.29425  0.42252  Biso   1.000  O
  O16      1.0000 0.38373  0.30794  0.49468  Biso   1.000  O
  O17      1.0000 0.40921  0.40138  0.39477  Biso   1.000  O
  O18      1.0000 0.22168  0.27622  0.36288  Biso   1.000  O
  O19      1.0000 0.08780  0.33169  0.73449  Biso   1.000  O
  O20      1.0000 0.20430  0.14767  0.26997  Biso   1.000  O
  O21      1.0000 0.29942  0.26528  0.62614  Biso   1.000  O
  O22      1.0000 0.27787  0.34764  0.47978  Biso   1.000  O
  O23      1.0000 0.87935  0.62673  0.02634  Biso   1.000  O
  O24      1.0000 0.91894  0.72323  0.03461  Biso   1.000  O
  O25      1.0000 0.79543  0.63453  0.11379  Biso   1.000  O
  O26      1.0000 0.74678  0.42252  0.28323  Biso   1.000  O
  O27      1.0000 0.87841  0.49468  0.19738  Biso   1.000  O
  O28      1.0000 0.80398  0.39477  0.20385  Biso   1.000  O
  O29      1.0000 0.58456  0.36288  0.36090  Biso   1.000  O
  O30      1.0000 0.82229  0.73449  0.93382  Biso   1.000  O
  O31      1.0000 0.47427  0.26997  0.58236  Biso   1.000  O
  O32      1.0000 0.92556  0.62614  0.10858  Biso   1.000  O
  O33      1.0000 0.75765  0.47978  0.17258  Biso   1.000  O
  O34      1.0000 0.09431  0.97366  0.65307  Biso   1.000  O
  O35      1.0000 0.04645  0.96539  0.75784  Biso   1.000  O
  O36      1.0000 0.09078  0.88621  0.74832  Biso   1.000  O
  O37      1.0000 0.96999  0.71677  0.70575  Biso   1.000  O
  O38      1.0000 0.92421  0.80262  0.69206  Biso   1.000  O
  O39      1.0000 0.99217  0.79615  0.59862  Biso   1.000  O
  O40      1.0000 0.05454  0.63910  0.72378  Biso   1.000  O
  O41      1.0000 0.24389  0.06618  0.66831  Biso   1.000  O
  O42      1.0000 0.94337  0.41764  0.85233  Biso   1.000  O
  O43      1.0000 0.96586  0.89142  0.73472  Biso   1.000  O
  O44      1.0000 0.06977  0.82742  0.65236  Biso   1.000  O
  O45      1.0000 0.74738  0.65307  0.37327  Biso   1.000  O
  O46      1.0000 0.80429  0.75784  0.27677  Biso   1.000  O
  O47      1.0000 0.83910  0.74832  0.36547  Biso   1.000  O
  O48      1.0000 0.67574  0.70575  0.57748  Biso   1.000  O
  O49      1.0000 0.61627  0.69206  0.50532  Biso   1.000  O
  O50      1.0000 0.59079  0.59862  0.60523  Biso   1.000  O
  O51      1.0000 0.77832  0.72378  0.63712  Biso   1.000  O
  O52      1.0000 0.91220  0.66831  0.26551  Biso   1.000  O
  O53      1.0000 0.79570  0.85233  0.73003  Biso   1.000  O
  O54      1.0000 0.70058  0.73472  0.37386  Biso   1.000  O
  O55      1.0000 0.72213  0.65236  0.52022  Biso   1.000  O
  O56      1.0000 0.12065  0.37327  0.97366  Biso   1.000  O
  O57      1.0000 0.08106  0.27677  0.96539  Biso   1.000  O
  O58      1.0000 0.20457  0.36547  0.88621  Biso   1.000  O
  O59      1.0000 0.25322  0.57748  0.71677  Biso   1.000  O
  O60      1.0000 0.12159  0.50532  0.80262  Biso   1.000  O
  O61      1.0000 0.19602  0.60523  0.79615  Biso   1.000  O
  O62      1.0000 0.41544  0.63712  0.63910  Biso   1.000  O
  O63      1.0000 0.17771  0.26551  0.06618  Biso   1.000  O
  O64      1.0000 0.52573  0.73003  0.41764  Biso   1.000  O
  O65      1.0000 0.07444  0.37386  0.89142  Biso   1.000  O
  O66      1.0000 0.24235  0.52022  0.82742  Biso   1.000  O
