data_image0
_cell_length_a       16.5276
_cell_length_b       16.5276
_cell_length_c       25.3959
_cell_angle_alpha    90
_cell_angle_beta     90
_cell_angle_gamma    120

_symmetry_space_group_name_H-M    P 1
_symmetry_int_tables_number       1

loop_
  _symmetry_equiv_pos_as_xyz
  'x, y, z'

loop_
  _atom_site_label
  _atom_site_occupancy
  _atom_site_fract_x
  _atom_site_fract_y
  _atom_site_fract_z
  _atom_site_thermal_displace_type
  _atom_site_B_iso_or_equiv
  _atom_site_type_symbol
  Zn1      1.0000 0.28704  0.71295  0.00000  Biso   1.000  Zn
  Zn2      1.0000 0.42591  0.71295  0.33333  Biso   1.000  Zn
  Zn3      1.0000 0.28704  0.57408  0.66667  Biso   1.000  Zn
  Zn4      1.0000 0.71296  0.28705  0.00000  Biso   1.000  Zn
  Zn5      1.0000 0.57409  0.28705  0.33333  Biso   1.000  Zn
  Zn6      1.0000 0.71296  0.42592  0.66667  Biso   1.000  Zn
  H1       1.0000 0.59760  0.82080  0.91220  Biso   1.000  H
  H2       1.0000 0.69340  0.48590  0.96010  Biso   1.000  H
  H3       1.0000 0.54180  0.45580  0.95560  Biso   1.000  H
  H4       1.0000 0.10050  0.64240  0.05180  Biso   1.000  H
  H5       1.0000 0.94380  0.58510  0.03020  Biso   1.000  H
  H6       1.0000 0.02240  0.63110  0.88120  Biso   1.000  H
  H7       1.0000 0.58330  0.55560  0.81700  Biso   1.000  H
  H8       1.0000 0.73430  0.58180  0.82120  Biso   1.000  H
  H9       1.0000 0.17020  0.67020  0.90620  Biso   1.000  H
  H10      1.0000 0.83310  0.54840  0.96680  Biso   1.000  H
  H11      1.0000 0.22320  0.40240  0.24553  Biso   1.000  H
  H12      1.0000 0.79250  0.30660  0.29343  Biso   1.000  H
  H13      1.0000 0.91400  0.45820  0.28893  Biso   1.000  H
  H14      1.0000 0.54190  0.89950  0.38513  Biso   1.000  H
  H15      1.0000 0.64130  0.05620  0.36353  Biso   1.000  H
  H16      1.0000 0.60870  0.97760  0.21453  Biso   1.000  H
  H17      1.0000 0.97230  0.41670  0.15033  Biso   1.000  H
  H18      1.0000 0.84750  0.26570  0.15453  Biso   1.000  H
  H19      1.0000 0.50000  0.82980  0.23953  Biso   1.000  H
  H20      1.0000 0.71530  0.16690  0.30013  Biso   1.000  H
  H21      1.0000 0.17920  0.77680  0.57887  Biso   1.000  H
  H22      1.0000 0.51410  0.20750  0.62677  Biso   1.000  H
  H23      1.0000 0.54420  0.08600  0.62227  Biso   1.000  H
  H24      1.0000 0.35760  0.45810  0.71847  Biso   1.000  H
  H25      1.0000 0.41490  0.35870  0.69687  Biso   1.000  H
  H26      1.0000 0.36890  0.39130  0.54787  Biso   1.000  H
  H27      1.0000 0.44440  0.02770  0.48367  Biso   1.000  H
  H28      1.0000 0.41820  0.15250  0.48787  Biso   1.000  H
  H29      1.0000 0.32980  0.50000  0.57287  Biso   1.000  H
  H30      1.0000 0.45160  0.28470  0.63347  Biso   1.000  H
  H31      1.0000 0.40240  0.17920  0.91220  Biso   1.000  H
  H32      1.0000 0.30660  0.51410  0.96010  Biso   1.000  H
  H33      1.0000 0.45820  0.54420  0.95560  Biso   1.000  H
  H34      1.0000 0.89950  0.35760  0.05180  Biso   1.000  H
  H35      1.0000 0.05620  0.41490  0.03020  Biso   1.000  H
  H36      1.0000 0.97760  0.36890  0.88120  Biso   1.000  H
  H37      1.0000 0.41670  0.44440  0.81700  Biso   1.000  H
  H38      1.0000 0.26570  0.41820  0.82120  Biso   1.000  H
  H39      1.0000 0.82980  0.32980  0.90620  Biso   1.000  H
  H40      1.0000 0.16690  0.45160  0.96680  Biso   1.000  H
  H41      1.0000 0.77680  0.59760  0.24553  Biso   1.000  H
  H42      1.0000 0.20750  0.69340  0.29343  Biso   1.000  H
  H43      1.0000 0.08600  0.54180  0.28893  Biso   1.000  H
  H44      1.0000 0.45810  0.10050  0.38513  Biso   1.000  H
  H45      1.0000 0.35870  0.94380  0.36353  Biso   1.000  H
  H46      1.0000 0.39130  0.02240  0.21453  Biso   1.000  H
  H47      1.0000 0.02770  0.58330  0.15033  Biso   1.000  H
  H48      1.0000 0.15250  0.73430  0.15453  Biso   1.000  H
  H49      1.0000 0.50000  0.17020  0.23953  Biso   1.000  H
  H50      1.0000 0.28470  0.83310  0.30013  Biso   1.000  H
  H51      1.0000 0.82080  0.22320  0.57887  Biso   1.000  H
  H52      1.0000 0.48590  0.79250  0.62677  Biso   1.000  H
  H53      1.0000 0.45580  0.91400  0.62227  Biso   1.000  H
  H54      1.0000 0.64240  0.54190  0.71847  Biso   1.000  H
  H55      1.0000 0.58510  0.64130  0.69687  Biso   1.000  H
  H56      1.0000 0.63110  0.60870  0.54787  Biso   1.000  H
  H57      1.0000 0.55560  0.97230  0.48367  Biso   1.000  H
  H58      1.0000 0.58180  0.84750  0.48787  Biso   1.000  H
  H59      1.0000 0.67020  0.50000  0.57287  Biso   1.000  H
  H60      1.0000 0.54840  0.71530  0.63347  Biso   1.000  H
  H61      1.0000 0.77680  0.17920  0.42113  Biso   1.000  H
  H62      1.0000 0.20750  0.51410  0.37323  Biso   1.000  H
  H63      1.0000 0.08600  0.54420  0.37773  Biso   1.000  H
  H64      1.0000 0.45810  0.35760  0.28153  Biso   1.000  H
  H65      1.0000 0.35870  0.41490  0.30313  Biso   1.000  H
  H66      1.0000 0.39130  0.36890  0.45213  Biso   1.000  H
  H67      1.0000 0.02770  0.44440  0.51633  Biso   1.000  H
  H68      1.0000 0.15250  0.41820  0.51213  Biso   1.000  H
  H69      1.0000 0.50000  0.32980  0.42713  Biso   1.000  H
  H70      1.0000 0.28470  0.45160  0.36653  Biso   1.000  H
  H71      1.0000 0.82080  0.59760  0.08780  Biso   1.000  H
  H72      1.0000 0.48590  0.69340  0.03990  Biso   1.000  H
  H73      1.0000 0.45580  0.54180  0.04440  Biso   1.000  H
  H74      1.0000 0.64240  0.10050  0.94820  Biso   1.000  H
  H75      1.0000 0.58510  0.94380  0.96980  Biso   1.000  H
  H76      1.0000 0.63110  0.02240  0.11880  Biso   1.000  H
  H77      1.0000 0.55560  0.58330  0.18300  Biso   1.000  H
  H78      1.0000 0.58180  0.73430  0.17880  Biso   1.000  H
  H79      1.0000 0.67020  0.17020  0.09380  Biso   1.000  H
  H80      1.0000 0.54840  0.83310  0.03320  Biso   1.000  H
  H81      1.0000 0.40240  0.22320  0.75447  Biso   1.000  H
  H82      1.0000 0.30660  0.79250  0.70657  Biso   1.000  H
  H83      1.0000 0.45820  0.91400  0.71107  Biso   1.000  H
  H84      1.0000 0.89950  0.54190  0.61487  Biso   1.000  H
  H85      1.0000 0.05620  0.64130  0.63647  Biso   1.000  H
  H86      1.0000 0.97760  0.60870  0.78547  Biso   1.000  H
  H87      1.0000 0.41670  0.97230  0.84967  Biso   1.000  H
  H88      1.0000 0.26570  0.84750  0.84547  Biso   1.000  H
  H89      1.0000 0.82980  0.50000  0.76047  Biso   1.000  H
  H90      1.0000 0.16690  0.71530  0.69987  Biso   1.000  H
  H91      1.0000 0.22320  0.82080  0.42113  Biso   1.000  H
  H92      1.0000 0.79250  0.48590  0.37323  Biso   1.000  H
  H93      1.0000 0.91400  0.45580  0.37773  Biso   1.000  H
  H94      1.0000 0.54190  0.64240  0.28153  Biso   1.000  H
  H95      1.0000 0.64130  0.58510  0.30313  Biso   1.000  H
  H96      1.0000 0.60870  0.63110  0.45213  Biso   1.000  H
  H97      1.0000 0.97230  0.55560  0.51633  Biso   1.000  H
  H98      1.0000 0.84750  0.58180  0.51213  Biso   1.000  H
  H99      1.0000 0.50000  0.67020  0.42713  Biso   1.000  H
  H100     1.0000 0.71530  0.54840  0.36653  Biso   1.000  H
  H101     1.0000 0.17920  0.40240  0.08780  Biso   1.000  H
  H102     1.0000 0.51410  0.30660  0.03990  Biso   1.000  H
  H103     1.0000 0.54420  0.45820  0.04440  Biso   1.000  H
  H104     1.0000 0.35760  0.89950  0.94820  Biso   1.000  H
  H105     1.0000 0.41490  0.05620  0.96980  Biso   1.000  H
  H106     1.0000 0.36890  0.97760  0.11880  Biso   1.000  H
  H107     1.0000 0.44440  0.41670  0.18300  Biso   1.000  H
  H108     1.0000 0.41820  0.26570  0.17880  Biso   1.000  H
  H109     1.0000 0.32980  0.82980  0.09380  Biso   1.000  H
  H110     1.0000 0.45160  0.16690  0.03320  Biso   1.000  H
  H111     1.0000 0.59760  0.77680  0.75447  Biso   1.000  H
  H112     1.0000 0.69340  0.20750  0.70657  Biso   1.000  H
  H113     1.0000 0.54180  0.08600  0.71107  Biso   1.000  H
  H114     1.0000 0.10050  0.45810  0.61487  Biso   1.000  H
  H115     1.0000 0.94380  0.35870  0.63647  Biso   1.000  H
  H116     1.0000 0.02240  0.39130  0.78547  Biso   1.000  H
  H117     1.0000 0.58330  0.02770  0.84967  Biso   1.000  H
  H118     1.0000 0.73430  0.15250  0.84547  Biso   1.000  H
  H119     1.0000 0.17020  0.50000  0.76047  Biso   1.000  H
  H120     1.0000 0.83310  0.28470  0.69987  Biso   1.000  H
  H121     1.0000 0.35600  0.67800  0.83333  Biso   1.000  H
  H122     1.0000 0.67910  0.83955  0.83333  Biso   1.000  H
  H123     1.0000 0.32200  0.64400  0.16667  Biso   1.000  H
  H124     1.0000 0.16045  0.32090  0.16667  Biso   1.000  H
  H125     1.0000 0.32200  0.67800  0.50000  Biso   1.000  H
  H126     1.0000 0.16045  0.83955  0.50000  Biso   1.000  H
  H127     1.0000 0.64400  0.32200  0.83333  Biso   1.000  H
  H128     1.0000 0.32090  0.16045  0.83333  Biso   1.000  H
  H129     1.0000 0.67800  0.35600  0.16667  Biso   1.000  H
  H130     1.0000 0.83955  0.67910  0.16667  Biso   1.000  H
  H131     1.0000 0.67800  0.32200  0.50000  Biso   1.000  H
  H132     1.0000 0.83955  0.16045  0.50000  Biso   1.000  H
  C1       1.0000 0.41590  0.73990  0.92925  Biso   1.000  C
  C2       1.0000 0.46710  0.74930  0.87933  Biso   1.000  C
  C3       1.0000 0.56550  0.79680  0.88080  Biso   1.000  C
  C4       1.0000 0.73440  0.55010  0.89434  Biso   1.000  C
  C5       1.0000 0.83470  0.57840  0.89570  Biso   1.000  C
  C6       1.0000 0.67490  0.50620  0.93070  Biso   1.000  C
  C7       1.0000 0.58120  0.48740  0.92760  Biso   1.000  C
  C8       1.0000 0.08440  0.63840  0.01640  Biso   1.000  C
  C9       1.0000 0.98850  0.60470  0.00365  Biso   1.000  C
  C10      1.0000 0.03540  0.63010  0.91674  Biso   1.000  C
  C11      1.0000 0.96370  0.60160  0.95327  Biso   1.000  C
  C12      1.0000 0.60460  0.54360  0.84830  Biso   1.000  C
  C13      1.0000 0.69760  0.56130  0.85140  Biso   1.000  C
  C14      1.0000 0.54700  0.51030  0.88931  Biso   1.000  C
  C15      1.0000 0.12550  0.65670  0.93216  Biso   1.000  C
  C16      1.0000 0.32400  0.58410  0.26258  Biso   1.000  C
  C17      1.0000 0.28220  0.53290  0.21266  Biso   1.000  C
  C18      1.0000 0.23130  0.43450  0.21413  Biso   1.000  C
  C19      1.0000 0.81570  0.26560  0.22767  Biso   1.000  C
  C20      1.0000 0.74370  0.16530  0.22903  Biso   1.000  C
  C21      1.0000 0.83130  0.32510  0.26403  Biso   1.000  C
  C22      1.0000 0.90620  0.41880  0.26093  Biso   1.000  C
  C23      1.0000 0.55400  0.91560  0.34973  Biso   1.000  C
  C24      1.0000 0.61620  0.01150  0.33698  Biso   1.000  C
  C25      1.0000 0.59470  0.96460  0.25007  Biso   1.000  C
  C26      1.0000 0.63790  0.03630  0.28660  Biso   1.000  C
  C27      1.0000 0.93900  0.39540  0.18163  Biso   1.000  C
  C28      1.0000 0.86370  0.30240  0.18473  Biso   1.000  C
  C29      1.0000 0.96330  0.45300  0.22264  Biso   1.000  C
  C30      1.0000 0.53120  0.87450  0.26549  Biso   1.000  C
  C31      1.0000 0.26010  0.67600  0.59592  Biso   1.000  C
  C32      1.0000 0.25070  0.71780  0.54600  Biso   1.000  C
  C33      1.0000 0.20320  0.76870  0.54747  Biso   1.000  C
  C34      1.0000 0.44990  0.18430  0.56101  Biso   1.000  C
  C35      1.0000 0.42160  0.25630  0.56237  Biso   1.000  C
  C36      1.0000 0.49380  0.16870  0.59737  Biso   1.000  C
  C37      1.0000 0.51260  0.09380  0.59427  Biso   1.000  C
  C38      1.0000 0.36160  0.44600  0.68307  Biso   1.000  C
  C39      1.0000 0.39530  0.38380  0.67032  Biso   1.000  C
  C40      1.0000 0.36990  0.40530  0.58341  Biso   1.000  C
  C41      1.0000 0.39840  0.36210  0.61994  Biso   1.000  C
  C42      1.0000 0.45640  0.06100  0.51497  Biso   1.000  C
  C43      1.0000 0.43870  0.13630  0.51807  Biso   1.000  C
  C44      1.0000 0.48970  0.03670  0.55598  Biso   1.000  C
  C45      1.0000 0.34330  0.46880  0.59883  Biso   1.000  C
  C46      1.0000 0.58410  0.26010  0.92925  Biso   1.000  C
  C47      1.0000 0.53290  0.25070  0.87933  Biso   1.000  C
  C48      1.0000 0.43450  0.20320  0.88080  Biso   1.000  C
  C49      1.0000 0.26560  0.44990  0.89434  Biso   1.000  C
  C50      1.0000 0.16530  0.42160  0.89570  Biso   1.000  C
  C51      1.0000 0.32510  0.49380  0.93070  Biso   1.000  C
  C52      1.0000 0.41880  0.51260  0.92760  Biso   1.000  C
  C53      1.0000 0.91560  0.36160  0.01640  Biso   1.000  C
  C54      1.0000 0.01150  0.39530  0.00365  Biso   1.000  C
  C55      1.0000 0.96460  0.36990  0.91674  Biso   1.000  C
  C56      1.0000 0.03630  0.39840  0.95327  Biso   1.000  C
  C57      1.0000 0.39540  0.45640  0.84830  Biso   1.000  C
  C58      1.0000 0.30240  0.43870  0.85140  Biso   1.000  C
  C59      1.0000 0.45300  0.48970  0.88931  Biso   1.000  C
  C60      1.0000 0.87450  0.34330  0.93216  Biso   1.000  C
  C61      1.0000 0.67600  0.41590  0.26258  Biso   1.000  C
  C62      1.0000 0.71780  0.46710  0.21266  Biso   1.000  C
  C63      1.0000 0.76870  0.56550  0.21413  Biso   1.000  C
  C64      1.0000 0.18430  0.73440  0.22767  Biso   1.000  C
  C65      1.0000 0.25630  0.83470  0.22903  Biso   1.000  C
  C66      1.0000 0.16870  0.67490  0.26403  Biso   1.000  C
  C67      1.0000 0.09380  0.58120  0.26093  Biso   1.000  C
  C68      1.0000 0.44600  0.08440  0.34973  Biso   1.000  C
  C69      1.0000 0.38380  0.98850  0.33698  Biso   1.000  C
  C70      1.0000 0.40530  0.03540  0.25007  Biso   1.000  C
  C71      1.0000 0.36210  0.96370  0.28660  Biso   1.000  C
  C72      1.0000 0.06100  0.60460  0.18163  Biso   1.000  C
  C73      1.0000 0.13630  0.69760  0.18473  Biso   1.000  C
  C74      1.0000 0.03670  0.54700  0.22264  Biso   1.000  C
  C75      1.0000 0.46880  0.12550  0.26549  Biso   1.000  C
  C76      1.0000 0.73990  0.32400  0.59592  Biso   1.000  C
  C77      1.0000 0.74930  0.28220  0.54600  Biso   1.000  C
  C78      1.0000 0.79680  0.23130  0.54747  Biso   1.000  C
  C79      1.0000 0.55010  0.81570  0.56101  Biso   1.000  C
  C80      1.0000 0.57840  0.74370  0.56237  Biso   1.000  C
  C81      1.0000 0.50620  0.83130  0.59737  Biso   1.000  C
  C82      1.0000 0.48740  0.90620  0.59427  Biso   1.000  C
  C83      1.0000 0.63840  0.55400  0.68307  Biso   1.000  C
  C84      1.0000 0.60470  0.61620  0.67032  Biso   1.000  C
  C85      1.0000 0.63010  0.59470  0.58341  Biso   1.000  C
  C86      1.0000 0.60160  0.63790  0.61994  Biso   1.000  C
  C87      1.0000 0.54360  0.93900  0.51497  Biso   1.000  C
  C88      1.0000 0.56130  0.86370  0.51807  Biso   1.000  C
  C89      1.0000 0.51030  0.96330  0.55598  Biso   1.000  C
  C90      1.0000 0.65670  0.53120  0.59883  Biso   1.000  C
  C91      1.0000 0.67600  0.26010  0.40408  Biso   1.000  C
  C92      1.0000 0.71780  0.25070  0.45400  Biso   1.000  C
  C93      1.0000 0.76870  0.20320  0.45253  Biso   1.000  C
  C94      1.0000 0.18430  0.44990  0.43899  Biso   1.000  C
  C95      1.0000 0.25630  0.42160  0.43763  Biso   1.000  C
  C96      1.0000 0.16870  0.49380  0.40263  Biso   1.000  C
  C97      1.0000 0.09380  0.51260  0.40573  Biso   1.000  C
  C98      1.0000 0.44600  0.36160  0.31693  Biso   1.000  C
  C99      1.0000 0.38380  0.39530  0.32968  Biso   1.000  C
  C100     1.0000 0.40530  0.36990  0.41659  Biso   1.000  C
  C101     1.0000 0.36210  0.39840  0.38006  Biso   1.000  C
  C102     1.0000 0.06100  0.45640  0.48503  Biso   1.000  C
  C103     1.0000 0.13630  0.43870  0.48193  Biso   1.000  C
  C104     1.0000 0.03670  0.48970  0.44402  Biso   1.000  C
  C105     1.0000 0.46880  0.34330  0.40117  Biso   1.000  C
  C106     1.0000 0.73990  0.41590  0.07075  Biso   1.000  C
  C107     1.0000 0.74930  0.46710  0.12067  Biso   1.000  C
  C108     1.0000 0.79680  0.56550  0.11920  Biso   1.000  C
  C109     1.0000 0.55010  0.73440  0.10566  Biso   1.000  C
  C110     1.0000 0.57840  0.83470  0.10430  Biso   1.000  C
  C111     1.0000 0.50620  0.67490  0.06930  Biso   1.000  C
  C112     1.0000 0.48740  0.58120  0.07240  Biso   1.000  C
  C113     1.0000 0.63840  0.08440  0.98360  Biso   1.000  C
  C114     1.0000 0.60470  0.98850  0.99635  Biso   1.000  C
  C115     1.0000 0.63010  0.03540  0.08326  Biso   1.000  C
  C116     1.0000 0.60160  0.96370  0.04673  Biso   1.000  C
  C117     1.0000 0.54360  0.60460  0.15170  Biso   1.000  C
  C118     1.0000 0.56130  0.69760  0.14860  Biso   1.000  C
  C119     1.0000 0.51030  0.54700  0.11069  Biso   1.000  C
  C120     1.0000 0.65670  0.12550  0.06784  Biso   1.000  C
  C121     1.0000 0.58410  0.32400  0.73742  Biso   1.000  C
  C122     1.0000 0.53290  0.28220  0.78734  Biso   1.000  C
  C123     1.0000 0.43450  0.23130  0.78587  Biso   1.000  C
  C124     1.0000 0.26560  0.81570  0.77233  Biso   1.000  C
  C125     1.0000 0.16530  0.74370  0.77097  Biso   1.000  C
  C126     1.0000 0.32510  0.83130  0.73597  Biso   1.000  C
  C127     1.0000 0.41880  0.90620  0.73907  Biso   1.000  C
  C128     1.0000 0.91560  0.55400  0.65027  Biso   1.000  C
  C129     1.0000 0.01150  0.61620  0.66302  Biso   1.000  C
  C130     1.0000 0.96460  0.59470  0.74993  Biso   1.000  C
  C131     1.0000 0.03630  0.63790  0.71340  Biso   1.000  C
  C132     1.0000 0.39540  0.93900  0.81837  Biso   1.000  C
  C133     1.0000 0.30240  0.86370  0.81527  Biso   1.000  C
  C134     1.0000 0.45300  0.96330  0.77736  Biso   1.000  C
  C135     1.0000 0.87450  0.53120  0.73451  Biso   1.000  C
  C136     1.0000 0.32400  0.73990  0.40408  Biso   1.000  C
  C137     1.0000 0.28220  0.74930  0.45400  Biso   1.000  C
  C138     1.0000 0.23130  0.79680  0.45253  Biso   1.000  C
  C139     1.0000 0.81570  0.55010  0.43899  Biso   1.000  C
  C140     1.0000 0.74370  0.57840  0.43763  Biso   1.000  C
  C141     1.0000 0.83130  0.50620  0.40263  Biso   1.000  C
  C142     1.0000 0.90620  0.48740  0.40573  Biso   1.000  C
  C143     1.0000 0.55400  0.63840  0.31693  Biso   1.000  C
  C144     1.0000 0.61620  0.60470  0.32968  Biso   1.000  C
  C145     1.0000 0.59470  0.63010  0.41659  Biso   1.000  C
  C146     1.0000 0.63790  0.60160  0.38006  Biso   1.000  C
  C147     1.0000 0.93900  0.54360  0.48503  Biso   1.000  C
  C148     1.0000 0.86370  0.56130  0.48193  Biso   1.000  C
  C149     1.0000 0.96330  0.51030  0.44402  Biso   1.000  C
  C150     1.0000 0.53120  0.65670  0.40117  Biso   1.000  C
  C151     1.0000 0.26010  0.58410  0.07075  Biso   1.000  C
  C152     1.0000 0.25070  0.53290  0.12067  Biso   1.000  C
  C153     1.0000 0.20320  0.43450  0.11920  Biso   1.000  C
  C154     1.0000 0.44990  0.26560  0.10566  Biso   1.000  C
  C155     1.0000 0.42160  0.16530  0.10430  Biso   1.000  C
  C156     1.0000 0.49380  0.32510  0.06930  Biso   1.000  C
  C157     1.0000 0.51260  0.41880  0.07240  Biso   1.000  C
  C158     1.0000 0.36160  0.91560  0.98360  Biso   1.000  C
  C159     1.0000 0.39530  0.01150  0.99635  Biso   1.000  C
  C160     1.0000 0.36990  0.96460  0.08326  Biso   1.000  C
  C161     1.0000 0.39840  0.03630  0.04673  Biso   1.000  C
  C162     1.0000 0.45640  0.39540  0.15170  Biso   1.000  C
  C163     1.0000 0.43870  0.30240  0.14860  Biso   1.000  C
  C164     1.0000 0.48970  0.45300  0.11069  Biso   1.000  C
  C165     1.0000 0.34330  0.87450  0.06784  Biso   1.000  C
  C166     1.0000 0.41590  0.67600  0.73742  Biso   1.000  C
  C167     1.0000 0.46710  0.71780  0.78734  Biso   1.000  C
  C168     1.0000 0.56550  0.76870  0.78587  Biso   1.000  C
  C169     1.0000 0.73440  0.18430  0.77233  Biso   1.000  C
  C170     1.0000 0.83470  0.25630  0.77097  Biso   1.000  C
  C171     1.0000 0.67490  0.16870  0.73597  Biso   1.000  C
  C172     1.0000 0.58120  0.09380  0.73907  Biso   1.000  C
  C173     1.0000 0.08440  0.44600  0.65027  Biso   1.000  C
  C174     1.0000 0.98850  0.38380  0.66302  Biso   1.000  C
  C175     1.0000 0.03540  0.40530  0.74993  Biso   1.000  C
  C176     1.0000 0.96370  0.36210  0.71340  Biso   1.000  C
  C177     1.0000 0.60460  0.06100  0.81837  Biso   1.000  C
  C178     1.0000 0.69760  0.13630  0.81527  Biso   1.000  C
  C179     1.0000 0.54700  0.03670  0.77736  Biso   1.000  C
  C180     1.0000 0.12550  0.46880  0.73451  Biso   1.000  C
  C181     1.0000 0.42100  0.71050  0.83333  Biso   1.000  C
  C182     1.0000 0.61410  0.80705  0.83333  Biso   1.000  C
  C183     1.0000 0.28950  0.57900  0.16667  Biso   1.000  C
  C184     1.0000 0.19295  0.38590  0.16667  Biso   1.000  C
  C185     1.0000 0.28950  0.71050  0.50000  Biso   1.000  C
  C186     1.0000 0.19295  0.80705  0.50000  Biso   1.000  C
  C187     1.0000 0.57900  0.28950  0.83333  Biso   1.000  C
  C188     1.0000 0.38590  0.19295  0.83333  Biso   1.000  C
  C189     1.0000 0.71050  0.42100  0.16667  Biso   1.000  C
  C190     1.0000 0.80705  0.61410  0.16667  Biso   1.000  C
  C191     1.0000 0.71050  0.28950  0.50000  Biso   1.000  C
  C192     1.0000 0.80705  0.19295  0.50000  Biso   1.000  C
  N1       1.0000 0.15083  0.66391  0.98145  Biso   1.000  N
  N2       1.0000 0.87194  0.57314  0.94120  Biso   1.000  N
  N3       1.0000 0.51308  0.84917  0.31478  Biso   1.000  N
  N4       1.0000 0.70120  0.12806  0.27453  Biso   1.000  N
  N5       1.0000 0.33609  0.48692  0.64812  Biso   1.000  N
  N6       1.0000 0.42686  0.29880  0.60787  Biso   1.000  N
  N7       1.0000 0.84917  0.33609  0.98145  Biso   1.000  N
  N8       1.0000 0.12806  0.42686  0.94120  Biso   1.000  N
  N9       1.0000 0.48692  0.15083  0.31478  Biso   1.000  N
  N10      1.0000 0.29880  0.87194  0.27453  Biso   1.000  N
  N11      1.0000 0.66391  0.51308  0.64812  Biso   1.000  N
  N12      1.0000 0.57314  0.70120  0.60787  Biso   1.000  N
  N13      1.0000 0.48692  0.33609  0.35188  Biso   1.000  N
  N14      1.0000 0.29880  0.42686  0.39213  Biso   1.000  N
  N15      1.0000 0.66391  0.15083  0.01855  Biso   1.000  N
  N16      1.0000 0.57314  0.87194  0.05880  Biso   1.000  N
  N17      1.0000 0.84917  0.51308  0.68522  Biso   1.000  N
  N18      1.0000 0.12806  0.70120  0.72547  Biso   1.000  N
  N19      1.0000 0.51308  0.66391  0.35188  Biso   1.000  N
  N20      1.0000 0.70120  0.57314  0.39213  Biso   1.000  N
  N21      1.0000 0.33609  0.84917  0.01855  Biso   1.000  N
  N22      1.0000 0.42686  0.12806  0.05880  Biso   1.000  N
  N23      1.0000 0.15083  0.48692  0.68522  Biso   1.000  N
  N24      1.0000 0.87194  0.29880  0.72547  Biso   1.000  N
  O1       1.0000 0.33028  0.70871  0.92834  Biso   1.000  O
  O2       1.0000 0.46130  0.76532  0.97143  Biso   1.000  O
  O3       1.0000 0.88260  0.60850  0.85653  Biso   1.000  O
  O4       1.0000 0.37843  0.66972  0.26167  Biso   1.000  O
  O5       1.0000 0.30402  0.53870  0.30476  Biso   1.000  O
  O6       1.0000 0.72590  0.11740  0.18986  Biso   1.000  O
  O7       1.0000 0.29129  0.62157  0.59501  Biso   1.000  O
  O8       1.0000 0.23468  0.69598  0.63810  Biso   1.000  O
  O9       1.0000 0.39150  0.27410  0.52320  Biso   1.000  O
  O10      1.0000 0.66972  0.29129  0.92834  Biso   1.000  O
  O11      1.0000 0.53870  0.23468  0.97143  Biso   1.000  O
  O12      1.0000 0.11740  0.39150  0.85653  Biso   1.000  O
  O13      1.0000 0.62157  0.33028  0.26167  Biso   1.000  O
  O14      1.0000 0.69598  0.46130  0.30476  Biso   1.000  O
  O15      1.0000 0.27410  0.88260  0.18986  Biso   1.000  O
  O16      1.0000 0.70871  0.37843  0.59501  Biso   1.000  O
  O17      1.0000 0.76532  0.30402  0.63810  Biso   1.000  O
  O18      1.0000 0.60850  0.72590  0.52320  Biso   1.000  O
  O19      1.0000 0.62157  0.29129  0.40499  Biso   1.000  O
  O20      1.0000 0.69598  0.23468  0.36190  Biso   1.000  O
  O21      1.0000 0.27410  0.39150  0.47680  Biso   1.000  O
  O22      1.0000 0.70871  0.33028  0.07166  Biso   1.000  O
  O23      1.0000 0.76532  0.46130  0.02857  Biso   1.000  O
  O24      1.0000 0.60850  0.88260  0.14347  Biso   1.000  O
  O25      1.0000 0.66972  0.37843  0.73833  Biso   1.000  O
  O26      1.0000 0.53870  0.30402  0.69524  Biso   1.000  O
  O27      1.0000 0.11740  0.72590  0.81014  Biso   1.000  O
  O28      1.0000 0.37843  0.70871  0.40499  Biso   1.000  O
  O29      1.0000 0.30402  0.76532  0.36190  Biso   1.000  O
  O30      1.0000 0.72590  0.60850  0.47680  Biso   1.000  O
  O31      1.0000 0.29129  0.66972  0.07166  Biso   1.000  O
  O32      1.0000 0.23468  0.53870  0.02857  Biso   1.000  O
  O33      1.0000 0.39150  0.11740  0.14347  Biso   1.000  O
  O34      1.0000 0.33028  0.62157  0.73833  Biso   1.000  O
  O35      1.0000 0.46130  0.69598  0.69524  Biso   1.000  O
  O36      1.0000 0.88260  0.27410  0.81014  Biso   1.000  O
