data_image0
_cell_length_a       16.5094
_cell_length_b       16.5094
_cell_length_c       25.701
_cell_angle_alpha    90
_cell_angle_beta     90
_cell_angle_gamma    120

_symmetry_space_group_name_H-M    P 1
_symmetry_int_tables_number       1

loop_
  _symmetry_equiv_pos_as_xyz
  'x, y, z'

loop_
  _atom_site_label
  _atom_site_occupancy
  _atom_site_fract_x
  _atom_site_fract_y
  _atom_site_fract_z
  _atom_site_thermal_displace_type
  _atom_site_B_iso_or_equiv
  _atom_site_type_symbol
  Zn1      1.0000 0.71534  0.43068  0.16667  Biso   1.000  Zn
  Zn2      1.0000 0.71534  0.28466  0.50000  Biso   1.000  Zn
  Zn3      1.0000 0.56932  0.28466  0.83333  Biso   1.000  Zn
  Zn4      1.0000 0.28466  0.56932  0.16667  Biso   1.000  Zn
  Zn5      1.0000 0.28466  0.71534  0.50000  Biso   1.000  Zn
  Zn6      1.0000 0.43068  0.71534  0.83333  Biso   1.000  Zn
  H1       1.0000 0.82010  0.22850  0.07560  Biso   1.000  H
  H2       1.0000 0.66270  0.49790  0.07350  Biso   1.000  H
  H3       1.0000 0.61210  0.59570  0.04750  Biso   1.000  H
  H4       1.0000 0.58710  0.64370  0.19520  Biso   1.000  H
  H5       1.0000 0.65250  0.55530  0.21740  Biso   1.000  H
  H6       1.0000 0.56740  0.83560  0.98270  Biso   1.000  H
  H7       1.0000 0.55340  0.96710  0.97950  Biso   1.000  H
  H8       1.0000 0.45300  0.91510  0.12120  Biso   1.000  H
  H9       1.0000 0.48290  0.79110  0.12800  Biso   1.000  H
  H10      1.0000 0.55070  0.71920  0.13260  Biso   1.000  H
  H11      1.0000 0.40840  0.17990  0.40893  Biso   1.000  H
  H12      1.0000 0.83520  0.33730  0.40683  Biso   1.000  H
  H13      1.0000 0.98360  0.38790  0.38083  Biso   1.000  H
  H14      1.0000 0.05660  0.41290  0.52853  Biso   1.000  H
  H15      1.0000 0.90280  0.34750  0.55073  Biso   1.000  H
  H16      1.0000 0.26820  0.43260  0.31603  Biso   1.000  H
  H17      1.0000 0.41370  0.44660  0.31283  Biso   1.000  H
  H18      1.0000 0.46210  0.54700  0.45453  Biso   1.000  H
  H19      1.0000 0.30820  0.51710  0.46133  Biso   1.000  H
  H20      1.0000 0.16850  0.44930  0.46593  Biso   1.000  H
  H21      1.0000 0.77150  0.59160  0.74227  Biso   1.000  H
  H22      1.0000 0.50210  0.16480  0.74017  Biso   1.000  H
  H23      1.0000 0.40430  0.01640  0.71417  Biso   1.000  H
  H24      1.0000 0.35630  0.94340  0.86187  Biso   1.000  H
  H25      1.0000 0.44470  0.09720  0.88407  Biso   1.000  H
  H26      1.0000 0.16440  0.73180  0.64937  Biso   1.000  H
  H27      1.0000 0.03290  0.58630  0.64617  Biso   1.000  H
  H28      1.0000 0.08490  0.53790  0.78787  Biso   1.000  H
  H29      1.0000 0.20890  0.69180  0.79467  Biso   1.000  H
  H30      1.0000 0.28080  0.83150  0.79927  Biso   1.000  H
  H31      1.0000 0.17990  0.77150  0.07560  Biso   1.000  H
  H32      1.0000 0.33730  0.50210  0.07350  Biso   1.000  H
  H33      1.0000 0.38790  0.40430  0.04750  Biso   1.000  H
  H34      1.0000 0.41290  0.35630  0.19520  Biso   1.000  H
  H35      1.0000 0.34750  0.44470  0.21740  Biso   1.000  H
  H36      1.0000 0.43260  0.16440  0.98270  Biso   1.000  H
  H37      1.0000 0.44660  0.03290  0.97950  Biso   1.000  H
  H38      1.0000 0.54700  0.08490  0.12120  Biso   1.000  H
  H39      1.0000 0.51710  0.20890  0.12800  Biso   1.000  H
  H40      1.0000 0.44930  0.28080  0.13260  Biso   1.000  H
  H41      1.0000 0.59160  0.82010  0.40893  Biso   1.000  H
  H42      1.0000 0.16480  0.66270  0.40683  Biso   1.000  H
  H43      1.0000 0.01640  0.61210  0.38083  Biso   1.000  H
  H44      1.0000 0.94340  0.58710  0.52853  Biso   1.000  H
  H45      1.0000 0.09720  0.65250  0.55073  Biso   1.000  H
  H46      1.0000 0.73180  0.56740  0.31603  Biso   1.000  H
  H47      1.0000 0.58630  0.55340  0.31283  Biso   1.000  H
  H48      1.0000 0.53790  0.45300  0.45453  Biso   1.000  H
  H49      1.0000 0.69180  0.48290  0.46133  Biso   1.000  H
  H50      1.0000 0.83150  0.55070  0.46593  Biso   1.000  H
  H51      1.0000 0.22850  0.40840  0.74227  Biso   1.000  H
  H52      1.0000 0.49790  0.83520  0.74017  Biso   1.000  H
  H53      1.0000 0.59570  0.98360  0.71417  Biso   1.000  H
  H54      1.0000 0.64370  0.05660  0.86187  Biso   1.000  H
  H55      1.0000 0.55530  0.90280  0.88407  Biso   1.000  H
  H56      1.0000 0.83560  0.26820  0.64937  Biso   1.000  H
  H57      1.0000 0.96710  0.41370  0.64617  Biso   1.000  H
  H58      1.0000 0.91510  0.46210  0.78787  Biso   1.000  H
  H59      1.0000 0.79110  0.30820  0.79467  Biso   1.000  H
  H60      1.0000 0.71920  0.16850  0.79927  Biso   1.000  H
  H61      1.0000 0.59160  0.77150  0.25773  Biso   1.000  H
  H62      1.0000 0.16480  0.50210  0.25983  Biso   1.000  H
  H63      1.0000 0.01640  0.40430  0.28583  Biso   1.000  H
  H64      1.0000 0.94340  0.35630  0.13813  Biso   1.000  H
  H65      1.0000 0.09720  0.44470  0.11593  Biso   1.000  H
  H66      1.0000 0.73180  0.16440  0.35063  Biso   1.000  H
  H67      1.0000 0.58630  0.03290  0.35383  Biso   1.000  H
  H68      1.0000 0.53790  0.08490  0.21213  Biso   1.000  H
  H69      1.0000 0.69180  0.20890  0.20533  Biso   1.000  H
  H70      1.0000 0.83150  0.28080  0.20073  Biso   1.000  H
  H71      1.0000 0.22850  0.82010  0.92440  Biso   1.000  H
  H72      1.0000 0.49790  0.66270  0.92650  Biso   1.000  H
  H73      1.0000 0.59570  0.61210  0.95250  Biso   1.000  H
  H74      1.0000 0.64370  0.58710  0.80480  Biso   1.000  H
  H75      1.0000 0.55530  0.65250  0.78260  Biso   1.000  H
  H76      1.0000 0.83560  0.56740  0.01730  Biso   1.000  H
  H77      1.0000 0.96710  0.55340  0.02050  Biso   1.000  H
  H78      1.0000 0.91510  0.45300  0.87880  Biso   1.000  H
  H79      1.0000 0.79110  0.48290  0.87200  Biso   1.000  H
  H80      1.0000 0.71920  0.55070  0.86740  Biso   1.000  H
  H81      1.0000 0.17990  0.40840  0.59107  Biso   1.000  H
  H82      1.0000 0.33730  0.83520  0.59317  Biso   1.000  H
  H83      1.0000 0.38790  0.98360  0.61917  Biso   1.000  H
  H84      1.0000 0.41290  0.05660  0.47147  Biso   1.000  H
  H85      1.0000 0.34750  0.90280  0.44927  Biso   1.000  H
  H86      1.0000 0.43260  0.26820  0.68397  Biso   1.000  H
  H87      1.0000 0.44660  0.41370  0.68717  Biso   1.000  H
  H88      1.0000 0.54700  0.46210  0.54547  Biso   1.000  H
  H89      1.0000 0.51710  0.30820  0.53867  Biso   1.000  H
  H90      1.0000 0.44930  0.16850  0.53407  Biso   1.000  H
  H91      1.0000 0.40840  0.22850  0.25773  Biso   1.000  H
  H92      1.0000 0.83520  0.49790  0.25983  Biso   1.000  H
  H93      1.0000 0.98360  0.59570  0.28583  Biso   1.000  H
  H94      1.0000 0.05660  0.64370  0.13813  Biso   1.000  H
  H95      1.0000 0.90280  0.55530  0.11593  Biso   1.000  H
  H96      1.0000 0.26820  0.83560  0.35063  Biso   1.000  H
  H97      1.0000 0.41370  0.96710  0.35383  Biso   1.000  H
  H98      1.0000 0.46210  0.91510  0.21213  Biso   1.000  H
  H99      1.0000 0.30820  0.79110  0.20533  Biso   1.000  H
  H100     1.0000 0.16850  0.71920  0.20073  Biso   1.000  H
  H101     1.0000 0.77150  0.17990  0.92440  Biso   1.000  H
  H102     1.0000 0.50210  0.33730  0.92650  Biso   1.000  H
  H103     1.0000 0.40430  0.38790  0.95250  Biso   1.000  H
  H104     1.0000 0.35630  0.41290  0.80480  Biso   1.000  H
  H105     1.0000 0.44470  0.34750  0.78260  Biso   1.000  H
  H106     1.0000 0.16440  0.43260  0.01730  Biso   1.000  H
  H107     1.0000 0.03290  0.44660  0.02050  Biso   1.000  H
  H108     1.0000 0.08490  0.54700  0.87880  Biso   1.000  H
  H109     1.0000 0.20890  0.51710  0.87200  Biso   1.000  H
  H110     1.0000 0.28080  0.44930  0.86740  Biso   1.000  H
  H111     1.0000 0.82010  0.59160  0.59107  Biso   1.000  H
  H112     1.0000 0.66270  0.16480  0.59317  Biso   1.000  H
  H113     1.0000 0.61210  0.01640  0.61917  Biso   1.000  H
  H114     1.0000 0.58710  0.94340  0.47147  Biso   1.000  H
  H115     1.0000 0.65250  0.09720  0.44927  Biso   1.000  H
  H116     1.0000 0.56740  0.73180  0.68397  Biso   1.000  H
  H117     1.0000 0.55340  0.58630  0.68717  Biso   1.000  H
  H118     1.0000 0.45300  0.53790  0.54547  Biso   1.000  H
  H119     1.0000 0.48290  0.69180  0.53867  Biso   1.000  H
  H120     1.0000 0.55070  0.83150  0.53407  Biso   1.000  H
  H121     1.0000 0.67505  0.32495  0.00000  Biso   1.000  H
  H122     1.0000 0.64990  0.32495  0.33333  Biso   1.000  H
  H123     1.0000 0.67505  0.35010  0.66667  Biso   1.000  H
  H124     1.0000 0.32495  0.67505  0.00000  Biso   1.000  H
  H125     1.0000 0.35010  0.67505  0.33333  Biso   1.000  H
  H126     1.0000 0.32495  0.64990  0.66667  Biso   1.000  H
  C1       1.0000 0.73699  0.32539  0.09654  Biso   1.000  C
  C2       1.0000 0.74540  0.28328  0.04640  Biso   1.000  C
  C3       1.0000 0.79320  0.23560  0.04546  Biso   1.000  C
  C4       1.0000 0.65020  0.53040  0.09884  Biso   1.000  C
  C5       1.0000 0.61870  0.58820  0.08281  Biso   1.000  C
  C6       1.0000 0.59700  0.63545  0.11854  Biso   1.000  C
  C7       1.0000 0.60600  0.61770  0.16915  Biso   1.000  C
  C8       1.0000 0.64250  0.56170  0.18236  Biso   1.000  C
  C9       1.0000 0.56330  0.73320  0.05966  Biso   1.000  C
  C10      1.0000 0.53840  0.80786  0.05777  Biso   1.000  C
  C11      1.0000 0.55070  0.85540  0.01260  Biso   1.000  C
  C12      1.0000 0.53880  0.93260  0.01015  Biso   1.000  C
  C13      1.0000 0.50650  0.95875  0.05118  Biso   1.000  C
  C14      1.0000 0.48210  0.90320  0.09364  Biso   1.000  C
  C15      1.0000 0.49900  0.82700  0.09783  Biso   1.000  C
  C16      1.0000 0.58840  0.26301  0.42987  Biso   1.000  C
  C17      1.0000 0.53788  0.25460  0.37973  Biso   1.000  C
  C18      1.0000 0.44240  0.20680  0.37879  Biso   1.000  C
  C19      1.0000 0.88020  0.34980  0.43217  Biso   1.000  C
  C20      1.0000 0.96950  0.38130  0.41614  Biso   1.000  C
  C21      1.0000 0.03845  0.40300  0.45187  Biso   1.000  C
  C22      1.0000 0.01170  0.39400  0.50248  Biso   1.000  C
  C23      1.0000 0.91920  0.35750  0.51569  Biso   1.000  C
  C24      1.0000 0.16990  0.43670  0.39299  Biso   1.000  C
  C25      1.0000 0.26946  0.46160  0.39110  Biso   1.000  C
  C26      1.0000 0.30470  0.44930  0.34593  Biso   1.000  C
  C27      1.0000 0.39380  0.46120  0.34348  Biso   1.000  C
  C28      1.0000 0.45225  0.49350  0.38451  Biso   1.000  C
  C29      1.0000 0.42110  0.51790  0.42697  Biso   1.000  C
  C30      1.0000 0.32800  0.50100  0.43116  Biso   1.000  C
  C31      1.0000 0.67461  0.41160  0.76321  Biso   1.000  C
  C32      1.0000 0.71672  0.46212  0.71307  Biso   1.000  C
  C33      1.0000 0.76440  0.55760  0.71213  Biso   1.000  C
  C34      1.0000 0.46960  0.11980  0.76551  Biso   1.000  C
  C35      1.0000 0.41180  0.03050  0.74948  Biso   1.000  C
  C36      1.0000 0.36455  0.96155  0.78521  Biso   1.000  C
  C37      1.0000 0.38230  0.98830  0.83582  Biso   1.000  C
  C38      1.0000 0.43830  0.08080  0.84903  Biso   1.000  C
  C39      1.0000 0.26680  0.83010  0.72633  Biso   1.000  C
  C40      1.0000 0.19214  0.73054  0.72444  Biso   1.000  C
  C41      1.0000 0.14460  0.69530  0.67927  Biso   1.000  C
  C42      1.0000 0.06740  0.60620  0.67682  Biso   1.000  C
  C43      1.0000 0.04125  0.54775  0.71785  Biso   1.000  C
  C44      1.0000 0.09680  0.57890  0.76031  Biso   1.000  C
  C45      1.0000 0.17300  0.67200  0.76450  Biso   1.000  C
  C46      1.0000 0.26301  0.67461  0.09654  Biso   1.000  C
  C47      1.0000 0.25460  0.71672  0.04640  Biso   1.000  C
  C48      1.0000 0.20680  0.76440  0.04546  Biso   1.000  C
  C49      1.0000 0.34980  0.46960  0.09884  Biso   1.000  C
  C50      1.0000 0.38130  0.41180  0.08281  Biso   1.000  C
  C51      1.0000 0.40300  0.36455  0.11854  Biso   1.000  C
  C52      1.0000 0.39400  0.38230  0.16915  Biso   1.000  C
  C53      1.0000 0.35750  0.43830  0.18236  Biso   1.000  C
  C54      1.0000 0.43670  0.26680  0.05966  Biso   1.000  C
  C55      1.0000 0.46160  0.19214  0.05777  Biso   1.000  C
  C56      1.0000 0.44930  0.14460  0.01260  Biso   1.000  C
  C57      1.0000 0.46120  0.06740  0.01015  Biso   1.000  C
  C58      1.0000 0.49350  0.04125  0.05118  Biso   1.000  C
  C59      1.0000 0.51790  0.09680  0.09364  Biso   1.000  C
  C60      1.0000 0.50100  0.17300  0.09783  Biso   1.000  C
  C61      1.0000 0.41160  0.73699  0.42987  Biso   1.000  C
  C62      1.0000 0.46212  0.74540  0.37973  Biso   1.000  C
  C63      1.0000 0.55760  0.79320  0.37879  Biso   1.000  C
  C64      1.0000 0.11980  0.65020  0.43217  Biso   1.000  C
  C65      1.0000 0.03050  0.61870  0.41614  Biso   1.000  C
  C66      1.0000 0.96155  0.59700  0.45187  Biso   1.000  C
  C67      1.0000 0.98830  0.60600  0.50248  Biso   1.000  C
  C68      1.0000 0.08080  0.64250  0.51569  Biso   1.000  C
  C69      1.0000 0.83010  0.56330  0.39299  Biso   1.000  C
  C70      1.0000 0.73054  0.53840  0.39110  Biso   1.000  C
  C71      1.0000 0.69530  0.55070  0.34593  Biso   1.000  C
  C72      1.0000 0.60620  0.53880  0.34348  Biso   1.000  C
  C73      1.0000 0.54775  0.50650  0.38451  Biso   1.000  C
  C74      1.0000 0.57890  0.48210  0.42697  Biso   1.000  C
  C75      1.0000 0.67200  0.49900  0.43116  Biso   1.000  C
  C76      1.0000 0.32539  0.58840  0.76321  Biso   1.000  C
  C77      1.0000 0.28328  0.53788  0.71307  Biso   1.000  C
  C78      1.0000 0.23560  0.44240  0.71213  Biso   1.000  C
  C79      1.0000 0.53040  0.88020  0.76551  Biso   1.000  C
  C80      1.0000 0.58820  0.96950  0.74948  Biso   1.000  C
  C81      1.0000 0.63545  0.03845  0.78521  Biso   1.000  C
  C82      1.0000 0.61770  0.01170  0.83582  Biso   1.000  C
  C83      1.0000 0.56170  0.91920  0.84903  Biso   1.000  C
  C84      1.0000 0.73320  0.16990  0.72633  Biso   1.000  C
  C85      1.0000 0.80786  0.26946  0.72444  Biso   1.000  C
  C86      1.0000 0.85540  0.30470  0.67927  Biso   1.000  C
  C87      1.0000 0.93260  0.39380  0.67682  Biso   1.000  C
  C88      1.0000 0.95875  0.45225  0.71785  Biso   1.000  C
  C89      1.0000 0.90320  0.42110  0.76031  Biso   1.000  C
  C90      1.0000 0.82700  0.32800  0.76450  Biso   1.000  C
  C91      1.0000 0.41160  0.67461  0.23679  Biso   1.000  C
  C92      1.0000 0.46212  0.71672  0.28693  Biso   1.000  C
  C93      1.0000 0.55760  0.76440  0.28787  Biso   1.000  C
  C94      1.0000 0.11980  0.46960  0.23449  Biso   1.000  C
  C95      1.0000 0.03050  0.41180  0.25052  Biso   1.000  C
  C96      1.0000 0.96155  0.36455  0.21479  Biso   1.000  C
  C97      1.0000 0.98830  0.38230  0.16418  Biso   1.000  C
  C98      1.0000 0.08080  0.43830  0.15097  Biso   1.000  C
  C99      1.0000 0.83010  0.26680  0.27367  Biso   1.000  C
  C100     1.0000 0.73054  0.19214  0.27556  Biso   1.000  C
  C101     1.0000 0.69530  0.14460  0.32073  Biso   1.000  C
  C102     1.0000 0.60620  0.06740  0.32318  Biso   1.000  C
  C103     1.0000 0.54775  0.04125  0.28215  Biso   1.000  C
  C104     1.0000 0.57890  0.09680  0.23969  Biso   1.000  C
  C105     1.0000 0.67200  0.17300  0.23550  Biso   1.000  C
  C106     1.0000 0.32539  0.73699  0.90346  Biso   1.000  C
  C107     1.0000 0.28328  0.74540  0.95360  Biso   1.000  C
  C108     1.0000 0.23560  0.79320  0.95454  Biso   1.000  C
  C109     1.0000 0.53040  0.65020  0.90116  Biso   1.000  C
  C110     1.0000 0.58820  0.61870  0.91719  Biso   1.000  C
  C111     1.0000 0.63545  0.59700  0.88146  Biso   1.000  C
  C112     1.0000 0.61770  0.60600  0.83085  Biso   1.000  C
  C113     1.0000 0.56170  0.64250  0.81764  Biso   1.000  C
  C114     1.0000 0.73320  0.56330  0.94034  Biso   1.000  C
  C115     1.0000 0.80786  0.53840  0.94223  Biso   1.000  C
  C116     1.0000 0.85540  0.55070  0.98740  Biso   1.000  C
  C117     1.0000 0.93260  0.53880  0.98985  Biso   1.000  C
  C118     1.0000 0.95875  0.50650  0.94882  Biso   1.000  C
  C119     1.0000 0.90320  0.48210  0.90636  Biso   1.000  C
  C120     1.0000 0.82700  0.49900  0.90217  Biso   1.000  C
  C121     1.0000 0.26301  0.58840  0.57013  Biso   1.000  C
  C122     1.0000 0.25460  0.53788  0.62027  Biso   1.000  C
  C123     1.0000 0.20680  0.44240  0.62121  Biso   1.000  C
  C124     1.0000 0.34980  0.88020  0.56783  Biso   1.000  C
  C125     1.0000 0.38130  0.96950  0.58386  Biso   1.000  C
  C126     1.0000 0.40300  0.03845  0.54813  Biso   1.000  C
  C127     1.0000 0.39400  0.01170  0.49752  Biso   1.000  C
  C128     1.0000 0.35750  0.91920  0.48431  Biso   1.000  C
  C129     1.0000 0.43670  0.16990  0.60701  Biso   1.000  C
  C130     1.0000 0.46160  0.26946  0.60890  Biso   1.000  C
  C131     1.0000 0.44930  0.30470  0.65407  Biso   1.000  C
  C132     1.0000 0.46120  0.39380  0.65652  Biso   1.000  C
  C133     1.0000 0.49350  0.45225  0.61549  Biso   1.000  C
  C134     1.0000 0.51790  0.42110  0.57303  Biso   1.000  C
  C135     1.0000 0.50100  0.32800  0.56884  Biso   1.000  C
  C136     1.0000 0.58840  0.32539  0.23679  Biso   1.000  C
  C137     1.0000 0.53788  0.28328  0.28693  Biso   1.000  C
  C138     1.0000 0.44240  0.23560  0.28787  Biso   1.000  C
  C139     1.0000 0.88020  0.53040  0.23449  Biso   1.000  C
  C140     1.0000 0.96950  0.58820  0.25052  Biso   1.000  C
  C141     1.0000 0.03845  0.63545  0.21479  Biso   1.000  C
  C142     1.0000 0.01170  0.61770  0.16418  Biso   1.000  C
  C143     1.0000 0.91920  0.56170  0.15097  Biso   1.000  C
  C144     1.0000 0.16990  0.73320  0.27367  Biso   1.000  C
  C145     1.0000 0.26946  0.80786  0.27556  Biso   1.000  C
  C146     1.0000 0.30470  0.85540  0.32073  Biso   1.000  C
  C147     1.0000 0.39380  0.93260  0.32318  Biso   1.000  C
  C148     1.0000 0.45225  0.95875  0.28215  Biso   1.000  C
  C149     1.0000 0.42110  0.90320  0.23969  Biso   1.000  C
  C150     1.0000 0.32800  0.82700  0.23550  Biso   1.000  C
  C151     1.0000 0.67461  0.26301  0.90346  Biso   1.000  C
  C152     1.0000 0.71672  0.25460  0.95360  Biso   1.000  C
  C153     1.0000 0.76440  0.20680  0.95454  Biso   1.000  C
  C154     1.0000 0.46960  0.34980  0.90116  Biso   1.000  C
  C155     1.0000 0.41180  0.38130  0.91719  Biso   1.000  C
  C156     1.0000 0.36455  0.40300  0.88146  Biso   1.000  C
  C157     1.0000 0.38230  0.39400  0.83085  Biso   1.000  C
  C158     1.0000 0.43830  0.35750  0.81764  Biso   1.000  C
  C159     1.0000 0.26680  0.43670  0.94034  Biso   1.000  C
  C160     1.0000 0.19214  0.46160  0.94223  Biso   1.000  C
  C161     1.0000 0.14460  0.44930  0.98740  Biso   1.000  C
  C162     1.0000 0.06740  0.46120  0.98985  Biso   1.000  C
  C163     1.0000 0.04125  0.49350  0.94882  Biso   1.000  C
  C164     1.0000 0.09680  0.51790  0.90636  Biso   1.000  C
  C165     1.0000 0.17300  0.50100  0.90217  Biso   1.000  C
  C166     1.0000 0.73699  0.41160  0.57013  Biso   1.000  C
  C167     1.0000 0.74540  0.46212  0.62027  Biso   1.000  C
  C168     1.0000 0.79320  0.55760  0.62121  Biso   1.000  C
  C169     1.0000 0.65020  0.11980  0.56783  Biso   1.000  C
  C170     1.0000 0.61870  0.03050  0.58386  Biso   1.000  C
  C171     1.0000 0.59700  0.96155  0.54813  Biso   1.000  C
  C172     1.0000 0.60600  0.98830  0.49752  Biso   1.000  C
  C173     1.0000 0.64250  0.08080  0.48431  Biso   1.000  C
  C174     1.0000 0.56330  0.83010  0.60701  Biso   1.000  C
  C175     1.0000 0.53840  0.73054  0.60890  Biso   1.000  C
  C176     1.0000 0.55070  0.69530  0.65407  Biso   1.000  C
  C177     1.0000 0.53880  0.60620  0.65652  Biso   1.000  C
  C178     1.0000 0.50650  0.54775  0.61549  Biso   1.000  C
  C179     1.0000 0.48210  0.57890  0.57303  Biso   1.000  C
  C180     1.0000 0.49900  0.67200  0.56884  Biso   1.000  C
  C181     1.0000 0.70755  0.29245  0.00000  Biso   1.000  C
  C182     1.0000 0.80090  0.19910  0.00000  Biso   1.000  C
  C183     1.0000 0.58490  0.29245  0.33333  Biso   1.000  C
  C184     1.0000 0.39820  0.19910  0.33333  Biso   1.000  C
  C185     1.0000 0.70755  0.41510  0.66667  Biso   1.000  C
  C186     1.0000 0.80090  0.60180  0.66667  Biso   1.000  C
  C187     1.0000 0.29245  0.70755  0.00000  Biso   1.000  C
  C188     1.0000 0.19910  0.80090  0.00000  Biso   1.000  C
  C189     1.0000 0.41510  0.70755  0.33333  Biso   1.000  C
  C190     1.0000 0.60180  0.80090  0.33333  Biso   1.000  C
  C191     1.0000 0.29245  0.58490  0.66667  Biso   1.000  C
  C192     1.0000 0.19910  0.39820  0.66667  Biso   1.000  C
  N1       1.0000 0.66398  0.51715  0.14780  Biso   1.000  N
  N2       1.0000 0.56805  0.69881  0.10657  Biso   1.000  N
  N3       1.0000 0.85317  0.33602  0.48113  Biso   1.000  N
  N4       1.0000 0.13076  0.43195  0.43990  Biso   1.000  N
  N5       1.0000 0.48285  0.14683  0.81447  Biso   1.000  N
  N6       1.0000 0.30119  0.86924  0.77324  Biso   1.000  N
  N7       1.0000 0.33602  0.48285  0.14780  Biso   1.000  N
  N8       1.0000 0.43195  0.30119  0.10657  Biso   1.000  N
  N9       1.0000 0.14683  0.66398  0.48113  Biso   1.000  N
  N10      1.0000 0.86924  0.56805  0.43990  Biso   1.000  N
  N11      1.0000 0.51715  0.85317  0.81447  Biso   1.000  N
  N12      1.0000 0.69881  0.13076  0.77324  Biso   1.000  N
  N13      1.0000 0.14683  0.48285  0.18553  Biso   1.000  N
  N14      1.0000 0.86924  0.30119  0.22676  Biso   1.000  N
  N15      1.0000 0.51715  0.66398  0.85220  Biso   1.000  N
  N16      1.0000 0.69881  0.56805  0.89343  Biso   1.000  N
  N17      1.0000 0.33602  0.85317  0.51887  Biso   1.000  N
  N18      1.0000 0.43195  0.13076  0.56010  Biso   1.000  N
  N19      1.0000 0.85317  0.51715  0.18553  Biso   1.000  N
  N20      1.0000 0.13076  0.69881  0.22676  Biso   1.000  N
  N21      1.0000 0.48285  0.33602  0.85220  Biso   1.000  N
  N22      1.0000 0.30119  0.43195  0.89343  Biso   1.000  N
  N23      1.0000 0.66398  0.14683  0.51887  Biso   1.000  N
  N24      1.0000 0.56805  0.86924  0.56010  Biso   1.000  N
  N25      1.0000 0.85095  0.14905  0.00000  Biso   1.000  N
  N26      1.0000 0.29810  0.14905  0.33333  Biso   1.000  N
  N27      1.0000 0.85095  0.70190  0.66667  Biso   1.000  N
  N28      1.0000 0.14905  0.85095  0.00000  Biso   1.000  N
  N29      1.0000 0.70190  0.85095  0.33333  Biso   1.000  N
  N30      1.0000 0.14905  0.29810  0.66667  Biso   1.000  N
  O1       1.0000 0.70725  0.38054  0.09543  Biso   1.000  O
  O2       1.0000 0.76347  0.30369  0.13660  Biso   1.000  O
  O3       1.0000 0.83560  0.09040  0.95980  Biso   1.000  O
  O4       1.0000 0.57930  0.70333  0.02043  Biso   1.000  O
  O5       1.0000 0.67329  0.29275  0.42876  Biso   1.000  O
  O6       1.0000 0.54022  0.23653  0.46993  Biso   1.000  O
  O7       1.0000 0.25480  0.16440  0.29313  Biso   1.000  O
  O8       1.0000 0.12403  0.42070  0.35376  Biso   1.000  O
  O9       1.0000 0.61946  0.32671  0.76210  Biso   1.000  O
  O10      1.0000 0.69631  0.45978  0.80327  Biso   1.000  O
  O11      1.0000 0.90960  0.74520  0.62647  Biso   1.000  O
  O12      1.0000 0.29667  0.87597  0.68710  Biso   1.000  O
  O13      1.0000 0.29275  0.61946  0.09543  Biso   1.000  O
  O14      1.0000 0.23653  0.69631  0.13660  Biso   1.000  O
  O15      1.0000 0.16440  0.90960  0.95980  Biso   1.000  O
  O16      1.0000 0.42070  0.29667  0.02043  Biso   1.000  O
  O17      1.0000 0.32671  0.70725  0.42876  Biso   1.000  O
  O18      1.0000 0.45978  0.76347  0.46993  Biso   1.000  O
  O19      1.0000 0.74520  0.83560  0.29313  Biso   1.000  O
  O20      1.0000 0.87597  0.57930  0.35376  Biso   1.000  O
  O21      1.0000 0.38054  0.67329  0.76210  Biso   1.000  O
  O22      1.0000 0.30369  0.54022  0.80327  Biso   1.000  O
  O23      1.0000 0.09040  0.25480  0.62647  Biso   1.000  O
  O24      1.0000 0.70333  0.12403  0.68710  Biso   1.000  O
  O25      1.0000 0.32671  0.61946  0.23790  Biso   1.000  O
  O26      1.0000 0.45978  0.69631  0.19673  Biso   1.000  O
  O27      1.0000 0.74520  0.90960  0.37353  Biso   1.000  O
  O28      1.0000 0.87597  0.29667  0.31290  Biso   1.000  O
  O29      1.0000 0.38054  0.70725  0.90457  Biso   1.000  O
  O30      1.0000 0.30369  0.76347  0.86340  Biso   1.000  O
  O31      1.0000 0.09040  0.83560  0.04020  Biso   1.000  O
  O32      1.0000 0.70333  0.57930  0.97957  Biso   1.000  O
  O33      1.0000 0.29275  0.67329  0.57124  Biso   1.000  O
  O34      1.0000 0.23653  0.54022  0.53007  Biso   1.000  O
  O35      1.0000 0.16440  0.25480  0.70687  Biso   1.000  O
  O36      1.0000 0.42070  0.12403  0.64624  Biso   1.000  O
  O37      1.0000 0.67329  0.38054  0.23790  Biso   1.000  O
  O38      1.0000 0.54022  0.30369  0.19673  Biso   1.000  O
  O39      1.0000 0.25480  0.09040  0.37353  Biso   1.000  O
  O40      1.0000 0.12403  0.70333  0.31290  Biso   1.000  O
  O41      1.0000 0.61946  0.29275  0.90457  Biso   1.000  O
  O42      1.0000 0.69631  0.23653  0.86340  Biso   1.000  O
  O43      1.0000 0.90960  0.16440  0.04020  Biso   1.000  O
  O44      1.0000 0.29667  0.42070  0.97957  Biso   1.000  O
  O45      1.0000 0.70725  0.32671  0.57124  Biso   1.000  O
  O46      1.0000 0.76347  0.45978  0.53007  Biso   1.000  O
  O47      1.0000 0.83560  0.74520  0.70687  Biso   1.000  O
  O48      1.0000 0.57930  0.87597  0.64624  Biso   1.000  O
