data_image0
_cell_length_a       16.5764
_cell_length_b       16.5764
_cell_length_c       25.2504
_cell_angle_alpha    90
_cell_angle_beta     90
_cell_angle_gamma    120

_symmetry_space_group_name_H-M    P 1
_symmetry_int_tables_number       1

loop_
  _symmetry_equiv_pos_as_xyz
  'x, y, z'

loop_
  _atom_site_label
  _atom_site_occupancy
  _atom_site_fract_x
  _atom_site_fract_y
  _atom_site_fract_z
  _atom_site_thermal_displace_type
  _atom_site_B_iso_or_equiv
  _atom_site_type_symbol
  Zn1      1.0000 0.71402  0.28597  0.00000  Biso   1.000  Zn
  Zn2      1.0000 0.57195  0.28597  0.66667  Biso   1.000  Zn
  Zn3      1.0000 0.71402  0.42804  0.33333  Biso   1.000  Zn
  Zn4      1.0000 0.28598  0.71403  0.00000  Biso   1.000  Zn
  Zn5      1.0000 0.42805  0.71403  0.66667  Biso   1.000  Zn
  Zn6      1.0000 0.28598  0.57196  0.33333  Biso   1.000  Zn
  H1       1.0000 0.82040  0.59460  0.91080  Biso   1.000  H
  H2       1.0000 0.64170  0.09910  0.05310  Biso   1.000  H
  H3       1.0000 0.58300  0.94450  0.03150  Biso   1.000  H
  H4       1.0000 0.63670  0.02170  0.87950  Biso   1.000  H
  H5       1.0000 0.68230  0.16980  0.90580  Biso   1.000  H
  H6       1.0000 0.48520  0.69610  0.95820  Biso   1.000  H
  H7       1.0000 0.43950  0.54130  0.95200  Biso   1.000  H
  H8       1.0000 0.57420  0.58730  0.82350  Biso   1.000  H
  H9       1.0000 0.59860  0.73400  0.82350  Biso   1.000  H
  H10      1.0000 0.54520  0.83280  0.96670  Biso   1.000  H
  H11      1.0000 0.86030  0.73830  0.80440  Biso   1.000  H
  H12      1.0000 0.77420  0.17960  0.57747  Biso   1.000  H
  H13      1.0000 0.45740  0.35830  0.71977  Biso   1.000  H
  H14      1.0000 0.36150  0.41700  0.69817  Biso   1.000  H
  H15      1.0000 0.38500  0.36330  0.54617  Biso   1.000  H
  H16      1.0000 0.48750  0.31770  0.57247  Biso   1.000  H
  H17      1.0000 0.21090  0.51480  0.62487  Biso   1.000  H
  H18      1.0000 0.10180  0.56050  0.61867  Biso   1.000  H
  H19      1.0000 0.01310  0.42580  0.49017  Biso   1.000  H
  H20      1.0000 0.13540  0.40140  0.49017  Biso   1.000  H
  H21      1.0000 0.28760  0.45480  0.63337  Biso   1.000  H
  H22      1.0000 0.87800  0.13970  0.47107  Biso   1.000  H
  H23      1.0000 0.40540  0.22580  0.24413  Biso   1.000  H
  H24      1.0000 0.90090  0.54260  0.38643  Biso   1.000  H
  H25      1.0000 0.05550  0.63850  0.36483  Biso   1.000  H
  H26      1.0000 0.97830  0.61500  0.21283  Biso   1.000  H
  H27      1.0000 0.83020  0.51250  0.23913  Biso   1.000  H
  H28      1.0000 0.30390  0.78910  0.29153  Biso   1.000  H
  H29      1.0000 0.45870  0.89820  0.28533  Biso   1.000  H
  H30      1.0000 0.41270  0.98690  0.15683  Biso   1.000  H
  H31      1.0000 0.26600  0.86460  0.15683  Biso   1.000  H
  H32      1.0000 0.16720  0.71240  0.30003  Biso   1.000  H
  H33      1.0000 0.26170  0.12200  0.13773  Biso   1.000  H
  H34      1.0000 0.17960  0.40540  0.91080  Biso   1.000  H
  H35      1.0000 0.35830  0.90090  0.05310  Biso   1.000  H
  H36      1.0000 0.41700  0.05550  0.03150  Biso   1.000  H
  H37      1.0000 0.36330  0.97830  0.87950  Biso   1.000  H
  H38      1.0000 0.31770  0.83020  0.90580  Biso   1.000  H
  H39      1.0000 0.51480  0.30390  0.95820  Biso   1.000  H
  H40      1.0000 0.56050  0.45870  0.95200  Biso   1.000  H
  H41      1.0000 0.42580  0.41270  0.82350  Biso   1.000  H
  H42      1.0000 0.40140  0.26600  0.82350  Biso   1.000  H
  H43      1.0000 0.45480  0.16720  0.96670  Biso   1.000  H
  H44      1.0000 0.13970  0.26170  0.80440  Biso   1.000  H
  H45      1.0000 0.22580  0.82040  0.57747  Biso   1.000  H
  H46      1.0000 0.54260  0.64170  0.71977  Biso   1.000  H
  H47      1.0000 0.63850  0.58300  0.69817  Biso   1.000  H
  H48      1.0000 0.61500  0.63670  0.54617  Biso   1.000  H
  H49      1.0000 0.51250  0.68230  0.57247  Biso   1.000  H
  H50      1.0000 0.78910  0.48520  0.62487  Biso   1.000  H
  H51      1.0000 0.89820  0.43950  0.61867  Biso   1.000  H
  H52      1.0000 0.98690  0.57420  0.49017  Biso   1.000  H
  H53      1.0000 0.86460  0.59860  0.49017  Biso   1.000  H
  H54      1.0000 0.71240  0.54520  0.63337  Biso   1.000  H
  H55      1.0000 0.12200  0.86030  0.47107  Biso   1.000  H
  H56      1.0000 0.59460  0.77420  0.24413  Biso   1.000  H
  H57      1.0000 0.09910  0.45740  0.38643  Biso   1.000  H
  H58      1.0000 0.94450  0.36150  0.36483  Biso   1.000  H
  H59      1.0000 0.02170  0.38500  0.21283  Biso   1.000  H
  H60      1.0000 0.16980  0.48750  0.23913  Biso   1.000  H
  H61      1.0000 0.69610  0.21090  0.29153  Biso   1.000  H
  H62      1.0000 0.54130  0.10180  0.28533  Biso   1.000  H
  H63      1.0000 0.58730  0.01310  0.15683  Biso   1.000  H
  H64      1.0000 0.73400  0.13540  0.15683  Biso   1.000  H
  H65      1.0000 0.83280  0.28760  0.30003  Biso   1.000  H
  H66      1.0000 0.73830  0.87800  0.13773  Biso   1.000  H
  H67      1.0000 0.22580  0.40540  0.75587  Biso   1.000  H
  H68      1.0000 0.54260  0.90090  0.61357  Biso   1.000  H
  H69      1.0000 0.63850  0.05550  0.63517  Biso   1.000  H
  H70      1.0000 0.61500  0.97830  0.78717  Biso   1.000  H
  H71      1.0000 0.51250  0.83020  0.76087  Biso   1.000  H
  H72      1.0000 0.78910  0.30390  0.70847  Biso   1.000  H
  H73      1.0000 0.89820  0.45870  0.71467  Biso   1.000  H
  H74      1.0000 0.98690  0.41270  0.84317  Biso   1.000  H
  H75      1.0000 0.86460  0.26600  0.84317  Biso   1.000  H
  H76      1.0000 0.71240  0.16720  0.69997  Biso   1.000  H
  H77      1.0000 0.12200  0.26170  0.86227  Biso   1.000  H
  H78      1.0000 0.59460  0.82040  0.08920  Biso   1.000  H
  H79      1.0000 0.09910  0.64170  0.94690  Biso   1.000  H
  H80      1.0000 0.94450  0.58300  0.96850  Biso   1.000  H
  H81      1.0000 0.02170  0.63670  0.12050  Biso   1.000  H
  H82      1.0000 0.16980  0.68230  0.09420  Biso   1.000  H
  H83      1.0000 0.69610  0.48520  0.04180  Biso   1.000  H
  H84      1.0000 0.54130  0.43950  0.04800  Biso   1.000  H
  H85      1.0000 0.58730  0.57420  0.17650  Biso   1.000  H
  H86      1.0000 0.73400  0.59860  0.17650  Biso   1.000  H
  H87      1.0000 0.83280  0.54520  0.03330  Biso   1.000  H
  H88      1.0000 0.73830  0.86030  0.19560  Biso   1.000  H
  H89      1.0000 0.17960  0.77420  0.42253  Biso   1.000  H
  H90      1.0000 0.35830  0.45740  0.28023  Biso   1.000  H
  H91      1.0000 0.41700  0.36150  0.30183  Biso   1.000  H
  H92      1.0000 0.36330  0.38500  0.45383  Biso   1.000  H
  H93      1.0000 0.31770  0.48750  0.42753  Biso   1.000  H
  H94      1.0000 0.51480  0.21090  0.37513  Biso   1.000  H
  H95      1.0000 0.56050  0.10180  0.38133  Biso   1.000  H
  H96      1.0000 0.42580  0.01310  0.50983  Biso   1.000  H
  H97      1.0000 0.40140  0.13540  0.50983  Biso   1.000  H
  H98      1.0000 0.45480  0.28760  0.36663  Biso   1.000  H
  H99      1.0000 0.13970  0.87800  0.52893  Biso   1.000  H
  H100     1.0000 0.77420  0.59460  0.75587  Biso   1.000  H
  H101     1.0000 0.45740  0.09910  0.61357  Biso   1.000  H
  H102     1.0000 0.36150  0.94450  0.63517  Biso   1.000  H
  H103     1.0000 0.38500  0.02170  0.78717  Biso   1.000  H
  H104     1.0000 0.48750  0.16980  0.76087  Biso   1.000  H
  H105     1.0000 0.21090  0.69610  0.70847  Biso   1.000  H
  H106     1.0000 0.10180  0.54130  0.71467  Biso   1.000  H
  H107     1.0000 0.01310  0.58730  0.84317  Biso   1.000  H
  H108     1.0000 0.13540  0.73400  0.84317  Biso   1.000  H
  H109     1.0000 0.28760  0.83280  0.69997  Biso   1.000  H
  H110     1.0000 0.87800  0.73830  0.86227  Biso   1.000  H
  H111     1.0000 0.40540  0.17960  0.08920  Biso   1.000  H
  H112     1.0000 0.90090  0.35830  0.94690  Biso   1.000  H
  H113     1.0000 0.05550  0.41700  0.96850  Biso   1.000  H
  H114     1.0000 0.97830  0.36330  0.12050  Biso   1.000  H
  H115     1.0000 0.83020  0.31770  0.09420  Biso   1.000  H
  H116     1.0000 0.30390  0.51480  0.04180  Biso   1.000  H
  H117     1.0000 0.45870  0.56050  0.04800  Biso   1.000  H
  H118     1.0000 0.41270  0.42580  0.17650  Biso   1.000  H
  H119     1.0000 0.26600  0.40140  0.17650  Biso   1.000  H
  H120     1.0000 0.16720  0.45480  0.03330  Biso   1.000  H
  H121     1.0000 0.26170  0.13970  0.19560  Biso   1.000  H
  H122     1.0000 0.82040  0.22580  0.42253  Biso   1.000  H
  H123     1.0000 0.64170  0.54260  0.28023  Biso   1.000  H
  H124     1.0000 0.58300  0.63850  0.30183  Biso   1.000  H
  H125     1.0000 0.63670  0.61500  0.45383  Biso   1.000  H
  H126     1.0000 0.68230  0.51250  0.42753  Biso   1.000  H
  H127     1.0000 0.48520  0.78910  0.37513  Biso   1.000  H
  H128     1.0000 0.43950  0.89820  0.38133  Biso   1.000  H
  H129     1.0000 0.57420  0.98690  0.50983  Biso   1.000  H
  H130     1.0000 0.59860  0.86460  0.50983  Biso   1.000  H
  H131     1.0000 0.54520  0.71240  0.36663  Biso   1.000  H
  H132     1.0000 0.86030  0.12200  0.52893  Biso   1.000  H
  H133     1.0000 0.67640  0.35280  0.83333  Biso   1.000  H
  H134     1.0000 0.67640  0.32360  0.50000  Biso   1.000  H
  H135     1.0000 0.64720  0.32360  0.16667  Biso   1.000  H
  H136     1.0000 0.32360  0.64720  0.83333  Biso   1.000  H
  H137     1.0000 0.32360  0.67640  0.50000  Biso   1.000  H
  H138     1.0000 0.35280  0.67640  0.16667  Biso   1.000  H
  C1       1.0000 0.74150  0.41487  0.93037  Biso   1.000  C
  C2       1.0000 0.74906  0.46504  0.87920  Biso   1.000  C
  C3       1.0000 0.79572  0.56233  0.87940  Biso   1.000  C
  C4       1.0000 0.63841  0.08286  0.01760  Biso   1.000  C
  C5       1.0000 0.60486  0.98924  0.00485  Biso   1.000  C
  C6       1.0000 0.60423  0.96353  0.95325  Biso   1.000  C
  C7       1.0000 0.63526  0.03472  0.91521  Biso   1.000  C
  C8       1.0000 0.66341  0.12381  0.93162  Biso   1.000  C
  C9       1.0000 0.58824  0.83675  0.89703  Biso   1.000  C
  C10      1.0000 0.55586  0.73459  0.89482  Biso   1.000  C
  C11      1.0000 0.50580  0.67587  0.92962  Biso   1.000  C
  C12      1.0000 0.48030  0.58210  0.92674  Biso   1.000  C
  C13      1.0000 0.51162  0.54890  0.88969  Biso   1.000  C
  C14      1.0000 0.55450  0.60720  0.85264  Biso   1.000  C
  C15      1.0000 0.57290  0.69740  0.85353  Biso   1.000  C
  C16      1.0000 0.67337  0.25850  0.59704  Biso   1.000  C
  C17      1.0000 0.71598  0.25094  0.54587  Biso   1.000  C
  C18      1.0000 0.76661  0.20428  0.54607  Biso   1.000  C
  C19      1.0000 0.44445  0.36159  0.68427  Biso   1.000  C
  C20      1.0000 0.38438  0.39514  0.67152  Biso   1.000  C
  C21      1.0000 0.35930  0.39577  0.61992  Biso   1.000  C
  C22      1.0000 0.39946  0.36474  0.58188  Biso   1.000  C
  C23      1.0000 0.46040  0.33659  0.59829  Biso   1.000  C
  C24      1.0000 0.24851  0.41176  0.56370  Biso   1.000  C
  C25      1.0000 0.17873  0.44414  0.56149  Biso   1.000  C
  C26      1.0000 0.17007  0.49420  0.59629  Biso   1.000  C
  C27      1.0000 0.10180  0.51970  0.59341  Biso   1.000  C
  C28      1.0000 0.03728  0.48838  0.55636  Biso   1.000  C
  C29      1.0000 0.05270  0.44550  0.51931  Biso   1.000  C
  C30      1.0000 0.12450  0.42710  0.52020  Biso   1.000  C
  C31      1.0000 0.58513  0.32663  0.26370  Biso   1.000  C
  C32      1.0000 0.53496  0.28402  0.21253  Biso   1.000  C
  C33      1.0000 0.43767  0.23339  0.21273  Biso   1.000  C
  C34      1.0000 0.91714  0.55555  0.35093  Biso   1.000  C
  C35      1.0000 0.01076  0.61562  0.33818  Biso   1.000  C
  C36      1.0000 0.03647  0.64070  0.28658  Biso   1.000  C
  C37      1.0000 0.96528  0.60054  0.24854  Biso   1.000  C
  C38      1.0000 0.87619  0.53960  0.26495  Biso   1.000  C
  C39      1.0000 0.16325  0.75149  0.23036  Biso   1.000  C
  C40      1.0000 0.26541  0.82127  0.22815  Biso   1.000  C
  C41      1.0000 0.32413  0.82993  0.26295  Biso   1.000  C
  C42      1.0000 0.41790  0.89820  0.26007  Biso   1.000  C
  C43      1.0000 0.45110  0.96272  0.22302  Biso   1.000  C
  C44      1.0000 0.39280  0.94730  0.18597  Biso   1.000  C
  C45      1.0000 0.30260  0.87550  0.18686  Biso   1.000  C
  C46      1.0000 0.25850  0.58513  0.93037  Biso   1.000  C
  C47      1.0000 0.25094  0.53496  0.87920  Biso   1.000  C
  C48      1.0000 0.20428  0.43767  0.87940  Biso   1.000  C
  C49      1.0000 0.36159  0.91714  0.01760  Biso   1.000  C
  C50      1.0000 0.39514  0.01076  0.00485  Biso   1.000  C
  C51      1.0000 0.39577  0.03647  0.95325  Biso   1.000  C
  C52      1.0000 0.36474  0.96528  0.91521  Biso   1.000  C
  C53      1.0000 0.33659  0.87619  0.93162  Biso   1.000  C
  C54      1.0000 0.41176  0.16325  0.89703  Biso   1.000  C
  C55      1.0000 0.44414  0.26541  0.89482  Biso   1.000  C
  C56      1.0000 0.49420  0.32413  0.92962  Biso   1.000  C
  C57      1.0000 0.51970  0.41790  0.92674  Biso   1.000  C
  C58      1.0000 0.48838  0.45110  0.88969  Biso   1.000  C
  C59      1.0000 0.44550  0.39280  0.85264  Biso   1.000  C
  C60      1.0000 0.42710  0.30260  0.85353  Biso   1.000  C
  C61      1.0000 0.32663  0.74150  0.59704  Biso   1.000  C
  C62      1.0000 0.28402  0.74906  0.54587  Biso   1.000  C
  C63      1.0000 0.23339  0.79572  0.54607  Biso   1.000  C
  C64      1.0000 0.55555  0.63841  0.68427  Biso   1.000  C
  C65      1.0000 0.61562  0.60486  0.67152  Biso   1.000  C
  C66      1.0000 0.64070  0.60423  0.61992  Biso   1.000  C
  C67      1.0000 0.60054  0.63526  0.58188  Biso   1.000  C
  C68      1.0000 0.53960  0.66341  0.59829  Biso   1.000  C
  C69      1.0000 0.75149  0.58824  0.56370  Biso   1.000  C
  C70      1.0000 0.82127  0.55586  0.56149  Biso   1.000  C
  C71      1.0000 0.82993  0.50580  0.59629  Biso   1.000  C
  C72      1.0000 0.89820  0.48030  0.59341  Biso   1.000  C
  C73      1.0000 0.96272  0.51162  0.55636  Biso   1.000  C
  C74      1.0000 0.94730  0.55450  0.51931  Biso   1.000  C
  C75      1.0000 0.87550  0.57290  0.52020  Biso   1.000  C
  C76      1.0000 0.41487  0.67337  0.26370  Biso   1.000  C
  C77      1.0000 0.46504  0.71598  0.21253  Biso   1.000  C
  C78      1.0000 0.56233  0.76661  0.21273  Biso   1.000  C
  C79      1.0000 0.08286  0.44445  0.35093  Biso   1.000  C
  C80      1.0000 0.98924  0.38438  0.33818  Biso   1.000  C
  C81      1.0000 0.96353  0.35930  0.28658  Biso   1.000  C
  C82      1.0000 0.03472  0.39946  0.24854  Biso   1.000  C
  C83      1.0000 0.12381  0.46040  0.26495  Biso   1.000  C
  C84      1.0000 0.83675  0.24851  0.23036  Biso   1.000  C
  C85      1.0000 0.73459  0.17873  0.22815  Biso   1.000  C
  C86      1.0000 0.67587  0.17007  0.26295  Biso   1.000  C
  C87      1.0000 0.58210  0.10180  0.26007  Biso   1.000  C
  C88      1.0000 0.54890  0.03728  0.22302  Biso   1.000  C
  C89      1.0000 0.60720  0.05270  0.18597  Biso   1.000  C
  C90      1.0000 0.69740  0.12450  0.18686  Biso   1.000  C
  C91      1.0000 0.32663  0.58513  0.73630  Biso   1.000  C
  C92      1.0000 0.28402  0.53496  0.78747  Biso   1.000  C
  C93      1.0000 0.23339  0.43767  0.78727  Biso   1.000  C
  C94      1.0000 0.55555  0.91714  0.64907  Biso   1.000  C
  C95      1.0000 0.61562  0.01076  0.66182  Biso   1.000  C
  C96      1.0000 0.64070  0.03647  0.71342  Biso   1.000  C
  C97      1.0000 0.60054  0.96528  0.75146  Biso   1.000  C
  C98      1.0000 0.53960  0.87619  0.73505  Biso   1.000  C
  C99      1.0000 0.75149  0.16325  0.76964  Biso   1.000  C
  C100     1.0000 0.82127  0.26541  0.77185  Biso   1.000  C
  C101     1.0000 0.82993  0.32413  0.73705  Biso   1.000  C
  C102     1.0000 0.89820  0.41790  0.73993  Biso   1.000  C
  C103     1.0000 0.96272  0.45110  0.77698  Biso   1.000  C
  C104     1.0000 0.94730  0.39280  0.81403  Biso   1.000  C
  C105     1.0000 0.87550  0.30260  0.81314  Biso   1.000  C
  C106     1.0000 0.41487  0.74150  0.06963  Biso   1.000  C
  C107     1.0000 0.46504  0.74906  0.12080  Biso   1.000  C
  C108     1.0000 0.56233  0.79572  0.12060  Biso   1.000  C
  C109     1.0000 0.08286  0.63841  0.98240  Biso   1.000  C
  C110     1.0000 0.98924  0.60486  0.99515  Biso   1.000  C
  C111     1.0000 0.96353  0.60423  0.04675  Biso   1.000  C
  C112     1.0000 0.03472  0.63526  0.08479  Biso   1.000  C
  C113     1.0000 0.12381  0.66341  0.06838  Biso   1.000  C
  C114     1.0000 0.83675  0.58824  0.10297  Biso   1.000  C
  C115     1.0000 0.73459  0.55586  0.10518  Biso   1.000  C
  C116     1.0000 0.67587  0.50580  0.07038  Biso   1.000  C
  C117     1.0000 0.58210  0.48030  0.07326  Biso   1.000  C
  C118     1.0000 0.54890  0.51162  0.11031  Biso   1.000  C
  C119     1.0000 0.60720  0.55450  0.14736  Biso   1.000  C
  C120     1.0000 0.69740  0.57290  0.14647  Biso   1.000  C
  C121     1.0000 0.25850  0.67337  0.40296  Biso   1.000  C
  C122     1.0000 0.25094  0.71598  0.45413  Biso   1.000  C
  C123     1.0000 0.20428  0.76661  0.45393  Biso   1.000  C
  C124     1.0000 0.36159  0.44445  0.31573  Biso   1.000  C
  C125     1.0000 0.39514  0.38438  0.32848  Biso   1.000  C
  C126     1.0000 0.39577  0.35930  0.38008  Biso   1.000  C
  C127     1.0000 0.36474  0.39946  0.41812  Biso   1.000  C
  C128     1.0000 0.33659  0.46040  0.40171  Biso   1.000  C
  C129     1.0000 0.41176  0.24851  0.43630  Biso   1.000  C
  C130     1.0000 0.44414  0.17873  0.43851  Biso   1.000  C
  C131     1.0000 0.49420  0.17007  0.40371  Biso   1.000  C
  C132     1.0000 0.51970  0.10180  0.40659  Biso   1.000  C
  C133     1.0000 0.48838  0.03728  0.44364  Biso   1.000  C
  C134     1.0000 0.44550  0.05270  0.48069  Biso   1.000  C
  C135     1.0000 0.42710  0.12450  0.47980  Biso   1.000  C
  C136     1.0000 0.67337  0.41487  0.73630  Biso   1.000  C
  C137     1.0000 0.71598  0.46504  0.78747  Biso   1.000  C
  C138     1.0000 0.76661  0.56233  0.78727  Biso   1.000  C
  C139     1.0000 0.44445  0.08286  0.64907  Biso   1.000  C
  C140     1.0000 0.38438  0.98924  0.66182  Biso   1.000  C
  C141     1.0000 0.35930  0.96353  0.71342  Biso   1.000  C
  C142     1.0000 0.39946  0.03472  0.75146  Biso   1.000  C
  C143     1.0000 0.46040  0.12381  0.73505  Biso   1.000  C
  C144     1.0000 0.24851  0.83675  0.76964  Biso   1.000  C
  C145     1.0000 0.17873  0.73459  0.77185  Biso   1.000  C
  C146     1.0000 0.17007  0.67587  0.73705  Biso   1.000  C
  C147     1.0000 0.10180  0.58210  0.73993  Biso   1.000  C
  C148     1.0000 0.03728  0.54890  0.77698  Biso   1.000  C
  C149     1.0000 0.05270  0.60720  0.81403  Biso   1.000  C
  C150     1.0000 0.12450  0.69740  0.81314  Biso   1.000  C
  C151     1.0000 0.58513  0.25850  0.06963  Biso   1.000  C
  C152     1.0000 0.53496  0.25094  0.12080  Biso   1.000  C
  C153     1.0000 0.43767  0.20428  0.12060  Biso   1.000  C
  C154     1.0000 0.91714  0.36159  0.98240  Biso   1.000  C
  C155     1.0000 0.01076  0.39514  0.99515  Biso   1.000  C
  C156     1.0000 0.03647  0.39577  0.04675  Biso   1.000  C
  C157     1.0000 0.96528  0.36474  0.08479  Biso   1.000  C
  C158     1.0000 0.87619  0.33659  0.06838  Biso   1.000  C
  C159     1.0000 0.16325  0.41176  0.10297  Biso   1.000  C
  C160     1.0000 0.26541  0.44414  0.10518  Biso   1.000  C
  C161     1.0000 0.32413  0.49420  0.07038  Biso   1.000  C
  C162     1.0000 0.41790  0.51970  0.07326  Biso   1.000  C
  C163     1.0000 0.45110  0.48838  0.11031  Biso   1.000  C
  C164     1.0000 0.39280  0.44550  0.14736  Biso   1.000  C
  C165     1.0000 0.30260  0.42710  0.14647  Biso   1.000  C
  C166     1.0000 0.74150  0.32663  0.40296  Biso   1.000  C
  C167     1.0000 0.74906  0.28402  0.45413  Biso   1.000  C
  C168     1.0000 0.79572  0.23339  0.45393  Biso   1.000  C
  C169     1.0000 0.63841  0.55555  0.31573  Biso   1.000  C
  C170     1.0000 0.60486  0.61562  0.32848  Biso   1.000  C
  C171     1.0000 0.60423  0.64070  0.38008  Biso   1.000  C
  C172     1.0000 0.63526  0.60054  0.41812  Biso   1.000  C
  C173     1.0000 0.66341  0.53960  0.40171  Biso   1.000  C
  C174     1.0000 0.58824  0.75149  0.43630  Biso   1.000  C
  C175     1.0000 0.55586  0.82127  0.43851  Biso   1.000  C
  C176     1.0000 0.50580  0.82993  0.40371  Biso   1.000  C
  C177     1.0000 0.48030  0.89820  0.40659  Biso   1.000  C
  C178     1.0000 0.51162  0.96272  0.44364  Biso   1.000  C
  C179     1.0000 0.55450  0.94730  0.48069  Biso   1.000  C
  C180     1.0000 0.57290  0.87550  0.47980  Biso   1.000  C
  C181     1.0000 0.70884  0.41768  0.83333  Biso   1.000  C
  C182     1.0000 0.80536  0.61072  0.83333  Biso   1.000  C
  C183     1.0000 0.70884  0.29116  0.50000  Biso   1.000  C
  C184     1.0000 0.80536  0.19464  0.50000  Biso   1.000  C
  C185     1.0000 0.58232  0.29116  0.16667  Biso   1.000  C
  C186     1.0000 0.38928  0.19464  0.16667  Biso   1.000  C
  C187     1.0000 0.29116  0.58232  0.83333  Biso   1.000  C
  C188     1.0000 0.19464  0.38928  0.83333  Biso   1.000  C
  C189     1.0000 0.29116  0.70884  0.50000  Biso   1.000  C
  C190     1.0000 0.19464  0.80536  0.50000  Biso   1.000  C
  C191     1.0000 0.41768  0.70884  0.16667  Biso   1.000  C
  C192     1.0000 0.61072  0.80536  0.16667  Biso   1.000  C
  N1       1.0000 0.66555  0.14901  0.98188  Biso   1.000  N
  N2       1.0000 0.57531  0.87226  0.94197  Biso   1.000  N
  N3       1.0000 0.48346  0.33445  0.64855  Biso   1.000  N
  N4       1.0000 0.29695  0.42469  0.60864  Biso   1.000  N
  N5       1.0000 0.85099  0.51654  0.31521  Biso   1.000  N
  N6       1.0000 0.12774  0.70305  0.27530  Biso   1.000  N
  N7       1.0000 0.33445  0.85099  0.98188  Biso   1.000  N
  N8       1.0000 0.42469  0.12774  0.94197  Biso   1.000  N
  N9       1.0000 0.51654  0.66555  0.64855  Biso   1.000  N
  N10      1.0000 0.70305  0.57531  0.60864  Biso   1.000  N
  N11      1.0000 0.14901  0.48346  0.31521  Biso   1.000  N
  N12      1.0000 0.87226  0.29695  0.27530  Biso   1.000  N
  N13      1.0000 0.51654  0.85099  0.68479  Biso   1.000  N
  N14      1.0000 0.70305  0.12774  0.72470  Biso   1.000  N
  N15      1.0000 0.14901  0.66555  0.01812  Biso   1.000  N
  N16      1.0000 0.87226  0.57531  0.05803  Biso   1.000  N
  N17      1.0000 0.33445  0.48346  0.35145  Biso   1.000  N
  N18      1.0000 0.42469  0.29695  0.39136  Biso   1.000  N
  N19      1.0000 0.48346  0.14901  0.68479  Biso   1.000  N
  N20      1.0000 0.29695  0.87226  0.72470  Biso   1.000  N
  N21      1.0000 0.85099  0.33445  0.01812  Biso   1.000  N
  N22      1.0000 0.12774  0.42469  0.05803  Biso   1.000  N
  N23      1.0000 0.66555  0.51654  0.35145  Biso   1.000  N
  N24      1.0000 0.57531  0.70305  0.39136  Biso   1.000  N
  N25      1.0000 0.85413  0.70826  0.83333  Biso   1.000  N
  N26      1.0000 0.85413  0.14588  0.50000  Biso   1.000  N
  N27      1.0000 0.29175  0.14588  0.16667  Biso   1.000  N
  N28      1.0000 0.14587  0.29174  0.83333  Biso   1.000  N
  N29      1.0000 0.14587  0.85412  0.50000  Biso   1.000  N
  N30      1.0000 0.70825  0.85412  0.16667  Biso   1.000  N
  O1       1.0000 0.70929  0.32993  0.92827  Biso   1.000  O
  O2       1.0000 0.76761  0.45995  0.97240  Biso   1.000  O
  O3       1.0000 0.62125  0.88483  0.85843  Biso   1.000  O
  O4       1.0000 0.62064  0.29071  0.59494  Biso   1.000  O
  O5       1.0000 0.69234  0.23239  0.63907  Biso   1.000  O
  O6       1.0000 0.26358  0.37875  0.52510  Biso   1.000  O
  O7       1.0000 0.67007  0.37936  0.26160  Biso   1.000  O
  O8       1.0000 0.54005  0.30766  0.30573  Biso   1.000  O
  O9       1.0000 0.11517  0.73642  0.19176  Biso   1.000  O
  O10      1.0000 0.29071  0.67007  0.92827  Biso   1.000  O
  O11      1.0000 0.23239  0.54005  0.97240  Biso   1.000  O
  O12      1.0000 0.37875  0.11517  0.85843  Biso   1.000  O
  O13      1.0000 0.37936  0.70929  0.59494  Biso   1.000  O
  O14      1.0000 0.30766  0.76761  0.63907  Biso   1.000  O
  O15      1.0000 0.73642  0.62125  0.52510  Biso   1.000  O
  O16      1.0000 0.32993  0.62064  0.26160  Biso   1.000  O
  O17      1.0000 0.45995  0.69234  0.30573  Biso   1.000  O
  O18      1.0000 0.88483  0.26358  0.19176  Biso   1.000  O
  O19      1.0000 0.37936  0.67007  0.73840  Biso   1.000  O
  O20      1.0000 0.30766  0.54005  0.69427  Biso   1.000  O
  O21      1.0000 0.73642  0.11517  0.80824  Biso   1.000  O
  O22      1.0000 0.32993  0.70929  0.07173  Biso   1.000  O
  O23      1.0000 0.45995  0.76761  0.02760  Biso   1.000  O
  O24      1.0000 0.88483  0.62125  0.14157  Biso   1.000  O
  O25      1.0000 0.29071  0.62064  0.40506  Biso   1.000  O
  O26      1.0000 0.23239  0.69234  0.36093  Biso   1.000  O
  O27      1.0000 0.37875  0.26358  0.47490  Biso   1.000  O
  O28      1.0000 0.62064  0.32993  0.73840  Biso   1.000  O
  O29      1.0000 0.69234  0.45995  0.69427  Biso   1.000  O
  O30      1.0000 0.26358  0.88483  0.80824  Biso   1.000  O
  O31      1.0000 0.67007  0.29071  0.07173  Biso   1.000  O
  O32      1.0000 0.54005  0.23239  0.02760  Biso   1.000  O
  O33      1.0000 0.11517  0.37875  0.14157  Biso   1.000  O
  O34      1.0000 0.70929  0.37936  0.40506  Biso   1.000  O
  O35      1.0000 0.76761  0.30766  0.36093  Biso   1.000  O
  O36      1.0000 0.62125  0.73642  0.47490  Biso   1.000  O
