data_image0
_cell_length_a       10.0196
_cell_length_b       13.5634
_cell_length_c       17.5811
_cell_angle_alpha    71.968
_cell_angle_beta     83.625
_cell_angle_gamma    78.833

_symmetry_space_group_name_H-M    P 1
_symmetry_int_tables_number       1

loop_
  _symmetry_equiv_pos_as_xyz
  'x, y, z'

loop_
  _atom_site_label
  _atom_site_occupancy
  _atom_site_fract_x
  _atom_site_fract_y
  _atom_site_fract_z
  _atom_site_thermal_displace_type
  _atom_site_B_iso_or_equiv
  _atom_site_type_symbol
  Co1      1.0000 0.80028  0.50820  0.57022  Biso   1.000  Co
  Co2      1.0000 0.19972  0.49180  0.42978  Biso   1.000  Co
  Co3      1.0000 0.00000  0.50000  0.00000  Biso   1.000  Co
  H1       1.0000 0.34810  0.48760  0.57450  Biso   1.000  H
  H2       1.0000 0.06820  0.49240  0.75510  Biso   1.000  H
  H3       1.0000 0.45500  0.51440  0.77920  Biso   1.000  H
  H4       1.0000 0.60760  0.35910  0.55970  Biso   1.000  H
  H5       1.0000 0.61090  0.19540  0.54880  Biso   1.000  H
  H6       1.0000 0.01490  0.14540  0.55260  Biso   1.000  H
  H7       1.0000 0.00100  0.31060  0.56300  Biso   1.000  H
  H8       1.0000 0.85490  0.03950  0.49050  Biso   1.000  H
  H9       1.0000 0.89270  0.99280  0.58010  Biso   1.000  H
  H10      1.0000 0.62670  0.03370  0.52650  Biso   1.000  H
  H11      1.0000 0.65560  0.99920  0.61780  Biso   1.000  H
  H12      1.0000 0.85930  0.64790  0.66880  Biso   1.000  H
  H13      1.0000 0.81000  0.81900  0.67200  Biso   1.000  H
  H14      1.0000 0.64060  0.89900  0.46240  Biso   1.000  H
  H15      1.0000 0.68910  0.72590  0.46570  Biso   1.000  H
  H16      1.0000 0.17050  0.67740  0.93630  Biso   1.000  H
  H17      1.0000 0.15990  0.85180  0.92190  Biso   1.000  H
  H18      1.0000 0.79050  0.86010  0.02970  Biso   1.000  H
  H19      1.0000 0.80770  0.68610  0.04200  Biso   1.000  H
  H20      1.0000 0.87350  0.02400  0.97480  Biso   1.000  H
  H21      1.0000 0.00780  0.02640  0.92010  Biso   1.000  H
  H22      1.0000 0.73860  0.67470  0.88840  Biso   1.000  H
  H23      1.0000 0.83690  0.61130  0.83840  Biso   1.000  H
  H24      1.0000 0.76250  0.52030  0.00300  Biso   1.000  H
  H25      1.0000 0.45540  0.56270  0.90560  Biso   1.000  H
  H26      1.0000 0.65190  0.51240  0.42550  Biso   1.000  H
  H27      1.0000 0.93180  0.50760  0.24490  Biso   1.000  H
  H28      1.0000 0.54500  0.48560  0.22080  Biso   1.000  H
  H29      1.0000 0.39240  0.64090  0.44030  Biso   1.000  H
  H30      1.0000 0.38910  0.80460  0.45120  Biso   1.000  H
  H31      1.0000 0.98510  0.85460  0.44740  Biso   1.000  H
  H32      1.0000 0.99900  0.68940  0.43700  Biso   1.000  H
  H33      1.0000 0.14510  0.96050  0.50950  Biso   1.000  H
  H34      1.0000 0.10730  0.00720  0.41990  Biso   1.000  H
  H35      1.0000 0.37330  0.96630  0.47350  Biso   1.000  H
  H36      1.0000 0.34440  0.00080  0.38220  Biso   1.000  H
  H37      1.0000 0.14070  0.35210  0.33120  Biso   1.000  H
  H38      1.0000 0.19000  0.18100  0.32800  Biso   1.000  H
  H39      1.0000 0.35940  0.10100  0.53760  Biso   1.000  H
  H40      1.0000 0.31090  0.27410  0.53430  Biso   1.000  H
  H41      1.0000 0.82950  0.32260  0.06370  Biso   1.000  H
  H42      1.0000 0.84010  0.14820  0.07810  Biso   1.000  H
  H43      1.0000 0.20950  0.13990  0.97030  Biso   1.000  H
  H44      1.0000 0.19230  0.31390  0.95800  Biso   1.000  H
  H45      1.0000 0.12650  0.97600  0.02520  Biso   1.000  H
  H46      1.0000 0.99220  0.97360  0.07990  Biso   1.000  H
  H47      1.0000 0.26140  0.32530  0.11160  Biso   1.000  H
  H48      1.0000 0.16310  0.38870  0.16160  Biso   1.000  H
  H49      1.0000 0.23750  0.47970  0.99700  Biso   1.000  H
  H50      1.0000 0.54460  0.43730  0.09440  Biso   1.000  H
  C1       1.0000 0.42310  0.50410  0.67091  Biso   1.000  C
  C2       1.0000 0.32500  0.49163  0.62628  Biso   1.000  C
  C3       1.0000 0.19320  0.48515  0.65806  Biso   1.000  C
  C4       1.0000 0.15760  0.49389  0.73444  Biso   1.000  C
  C5       1.0000 0.25590  0.50490  0.78058  Biso   1.000  C
  C6       1.0000 0.38880  0.50870  0.74843  Biso   1.000  C
  C7       1.0000 0.56470  0.50973  0.63488  Biso   1.000  C
  C8       1.0000 0.21860  0.51160  0.86421  Biso   1.000  C
  C9       1.0000 0.69120  0.31530  0.55878  Biso   1.000  C
  C10      1.0000 0.69250  0.21640  0.55230  Biso   1.000  C
  C11      1.0000 0.81380  0.14840  0.55091  Biso   1.000  C
  C12      1.0000 0.92990  0.18710  0.55440  Biso   1.000  C
  C13      1.0000 0.92080  0.28700  0.56073  Biso   1.000  C
  C14      1.0000 0.82380  0.03910  0.54480  Biso   1.000  C
  C15      1.0000 0.69300  0.99370  0.56570  Biso   1.000  C
  C16      1.0000 0.81310  0.69880  0.62717  Biso   1.000  C
  C17      1.0000 0.78490  0.80190  0.62890  Biso   1.000  C
  C18      1.0000 0.71930  0.87950  0.56700  Biso   1.000  C
  C19      1.0000 0.68430  0.84930  0.50560  Biso   1.000  C
  C20      1.0000 0.71410  0.74470  0.50804  Biso   1.000  C
  C21      1.0000 0.09270  0.71370  0.95590  Biso   1.000  C
  C22      1.0000 0.08760  0.81860  0.94800  Biso   1.000  C
  C23      1.0000 0.87020  0.82440  0.01140  Biso   1.000  C
  C24      1.0000 0.88080  0.71970  0.01760  Biso   1.000  C
  C25      1.0000 0.97530  0.87530  0.97880  Biso   1.000  C
  C26      1.0000 0.96840  0.99170  0.97210  Biso   1.000  C
  C27      1.0000 0.76220  0.60670  0.87870  Biso   1.000  C
  C28      1.0000 0.64940  0.59030  0.84550  Biso   1.000  C
  C29      1.0000 0.08960  0.46901  0.60888  Biso   1.000  C
  C30      1.0000 0.57690  0.49590  0.32909  Biso   1.000  C
  C31      1.0000 0.67500  0.50837  0.37372  Biso   1.000  C
  C32      1.0000 0.80680  0.51485  0.34194  Biso   1.000  C
  C33      1.0000 0.84240  0.50611  0.26556  Biso   1.000  C
  C34      1.0000 0.74410  0.49510  0.21942  Biso   1.000  C
  C35      1.0000 0.61120  0.49130  0.25157  Biso   1.000  C
  C36      1.0000 0.43530  0.49027  0.36512  Biso   1.000  C
  C37      1.0000 0.78140  0.48840  0.13579  Biso   1.000  C
  C38      1.0000 0.30880  0.68470  0.44122  Biso   1.000  C
  C39      1.0000 0.30750  0.78360  0.44770  Biso   1.000  C
  C40      1.0000 0.18620  0.85160  0.44909  Biso   1.000  C
  C41      1.0000 0.07010  0.81290  0.44560  Biso   1.000  C
  C42      1.0000 0.07920  0.71300  0.43927  Biso   1.000  C
  C43      1.0000 0.17620  0.96090  0.45520  Biso   1.000  C
  C44      1.0000 0.30700  0.00630  0.43430  Biso   1.000  C
  C45      1.0000 0.18690  0.30120  0.37283  Biso   1.000  C
  C46      1.0000 0.21510  0.19810  0.37110  Biso   1.000  C
  C47      1.0000 0.28070  0.12050  0.43300  Biso   1.000  C
  C48      1.0000 0.31570  0.15070  0.49440  Biso   1.000  C
  C49      1.0000 0.28590  0.25530  0.49196  Biso   1.000  C
  C50      1.0000 0.90730  0.28630  0.04410  Biso   1.000  C
  C51      1.0000 0.91240  0.18140  0.05200  Biso   1.000  C
  C52      1.0000 0.12980  0.17560  0.98860  Biso   1.000  C
  C53      1.0000 0.11920  0.28030  0.98240  Biso   1.000  C
  C54      1.0000 0.02470  0.12470  0.02120  Biso   1.000  C
  C55      1.0000 0.03160  0.00830  0.02790  Biso   1.000  C
  C56      1.0000 0.23780  0.39330  0.12130  Biso   1.000  C
  C57      1.0000 0.35060  0.40970  0.15450  Biso   1.000  C
  C58      1.0000 0.91040  0.53099  0.39112  Biso   1.000  C
  N1       1.0000 0.80356  0.35154  0.56379  Biso   1.000  N
  N2       1.0000 0.77649  0.66954  0.56771  Biso   1.000  N
  N3       1.0000 0.99090  0.66226  0.99031  Biso   1.000  N
  N4       1.0000 0.19644  0.64846  0.43621  Biso   1.000  N
  N5       1.0000 0.22351  0.33046  0.43229  Biso   1.000  N
  N6       1.0000 0.00910  0.33774  0.00969  Biso   1.000  N
  O1       1.0000 0.66403  0.48087  0.67975  Biso   1.000  O
  O2       1.0000 0.58339  0.54037  0.56035  Biso   1.000  O
  O3       1.0000 0.09486  0.52133  0.88627  Biso   1.000  O
  O4       1.0000 0.31501  0.50250  0.90808  Biso   1.000  O
  O5       1.0000 0.81007  0.53410  0.94855  Biso   1.000  O
  O6       1.0000 0.53550  0.59740  0.90400  Biso   1.000  O
  O7       1.0000 0.96761  0.47614  0.63542  Biso   1.000  O
  O8       1.0000 0.13217  0.44611  0.54578  Biso   1.000  O
  O9       1.0000 0.33597  0.51913  0.32025  Biso   1.000  O
  O10      1.0000 0.41661  0.45963  0.43965  Biso   1.000  O
  O11      1.0000 0.90514  0.47867  0.11373  Biso   1.000  O
  O12      1.0000 0.68499  0.49750  0.09192  Biso   1.000  O
  O13      1.0000 0.18993  0.46590  0.05145  Biso   1.000  O
  O14      1.0000 0.46450  0.40260  0.09600  Biso   1.000  O
  O15      1.0000 0.03239  0.52386  0.36458  Biso   1.000  O
  O16      1.0000 0.86783  0.55389  0.45422  Biso   1.000  O
