data_image0
_cell_length_a       4.76111
_cell_length_b       17.6665
_cell_length_c       17.6665
_cell_angle_alpha    88.9596
_cell_angle_beta     82.2559
_cell_angle_gamma    82.2558

_symmetry_space_group_name_H-M    P 1
_symmetry_int_tables_number       1

loop_
  _symmetry_equiv_pos_as_xyz
  'x, y, z'

loop_
  _atom_site_label
  _atom_site_occupancy
  _atom_site_fract_x
  _atom_site_fract_y
  _atom_site_fract_z
  _atom_site_thermal_displace_type
  _atom_site_B_iso_or_equiv
  _atom_site_type_symbol
  Cu1      1.0000 0.97273  0.96421  0.73265  Biso   1.000  Cu
  Cu2      1.0000 0.16959  0.53579  0.76735  Biso   1.000  Cu
  Cu3      1.0000 0.70539  0.26734  0.46421  Biso   1.000  Cu
  Cu4      1.0000 0.93693  0.23266  0.03579  Biso   1.000  Cu
  Cu5      1.0000 0.02727  0.03579  0.26735  Biso   1.000  Cu
  Cu6      1.0000 0.83041  0.46421  0.23265  Biso   1.000  Cu
  Cu7      1.0000 0.29461  0.73266  0.53579  Biso   1.000  Cu
  Cu8      1.0000 0.06307  0.76734  0.96421  Biso   1.000  Cu
  H1       1.0000 0.35300  0.06300  0.92860  Biso   1.000  H
  H2       1.0000 0.80160  0.04700  0.02660  Biso   1.000  H
  H3       1.0000 0.81240  0.07740  0.65320  Biso   1.000  H
  H4       1.0000 0.63240  0.08180  0.72180  Biso   1.000  H
  H5       1.0000 0.23940  0.86820  0.81400  Biso   1.000  H
  H6       1.0000 0.39300  0.87960  0.74220  Biso   1.000  H
  H7       1.0000 0.84460  0.43700  0.57140  Biso   1.000  H
  H8       1.0000 0.37520  0.45300  0.47340  Biso   1.000  H
  H9       1.0000 0.04300  0.42260  0.84680  Biso   1.000  H
  H10      1.0000 0.93600  0.41820  0.77820  Biso   1.000  H
  H11      1.0000 0.42160  0.63180  0.68600  Biso   1.000  H
  H12      1.0000 0.51480  0.62040  0.75780  Biso   1.000  H
  H13      1.0000 0.28160  0.07140  0.56300  Biso   1.000  H
  H14      1.0000 0.82820  0.97340  0.54700  Biso   1.000  H
  H15      1.0000 0.46560  0.34680  0.57740  Biso   1.000  H
  H16      1.0000 0.35420  0.27820  0.58180  Biso   1.000  H
  H17      1.0000 0.05340  0.18600  0.36820  Biso   1.000  H
  H18      1.0000 0.13520  0.25780  0.37960  Biso   1.000  H
  H19      1.0000 0.41600  0.42860  0.93700  Biso   1.000  H
  H20      1.0000 0.84860  0.52660  0.95300  Biso   1.000  H
  H21      1.0000 0.88980  0.15320  0.92260  Biso   1.000  H
  H22      1.0000 0.71420  0.22180  0.91820  Biso   1.000  H
  H23      1.0000 0.10760  0.31400  0.13180  Biso   1.000  H
  H24      1.0000 0.27260  0.24220  0.12040  Biso   1.000  H
  H25      1.0000 0.64700  0.93700  0.07140  Biso   1.000  H
  H26      1.0000 0.19840  0.95300  0.97340  Biso   1.000  H
  H27      1.0000 0.18760  0.92260  0.34680  Biso   1.000  H
  H28      1.0000 0.36760  0.91820  0.27820  Biso   1.000  H
  H29      1.0000 0.76060  0.13180  0.18600  Biso   1.000  H
  H30      1.0000 0.60700  0.12040  0.25780  Biso   1.000  H
  H31      1.0000 0.15540  0.56300  0.42860  Biso   1.000  H
  H32      1.0000 0.62480  0.54700  0.52660  Biso   1.000  H
  H33      1.0000 0.95700  0.57740  0.15320  Biso   1.000  H
  H34      1.0000 0.06400  0.58180  0.22180  Biso   1.000  H
  H35      1.0000 0.57840  0.36820  0.31400  Biso   1.000  H
  H36      1.0000 0.48520  0.37960  0.24220  Biso   1.000  H
  H37      1.0000 0.71840  0.92860  0.43700  Biso   1.000  H
  H38      1.0000 0.17180  0.02660  0.45300  Biso   1.000  H
  H39      1.0000 0.53440  0.65320  0.42260  Biso   1.000  H
  H40      1.0000 0.64580  0.72180  0.41820  Biso   1.000  H
  H41      1.0000 0.94660  0.81400  0.63180  Biso   1.000  H
  H42      1.0000 0.86480  0.74220  0.62040  Biso   1.000  H
  H43      1.0000 0.58400  0.57140  0.06300  Biso   1.000  H
  H44      1.0000 0.15140  0.47340  0.04700  Biso   1.000  H
  H45      1.0000 0.11020  0.84680  0.07740  Biso   1.000  H
  H46      1.0000 0.28580  0.77820  0.08180  Biso   1.000  H
  H47      1.0000 0.89240  0.68600  0.86820  Biso   1.000  H
  H48      1.0000 0.72740  0.75780  0.87960  Biso   1.000  H
  C1       1.0000 0.74303  0.01888  0.87506  Biso   1.000  C
  C2       1.0000 0.51710  0.02544  0.94356  Biso   1.000  C
  C3       1.0000 0.59950  0.04817  0.02183  Biso   1.000  C
  C4       1.0000 0.43975  0.12333  0.05317  Biso   1.000  C
  C5       1.0000 0.13697  0.48112  0.62494  Biso   1.000  C
  C6       1.0000 0.98610  0.47456  0.55644  Biso   1.000  C
  C7       1.0000 0.16950  0.45183  0.47817  Biso   1.000  C
  C8       1.0000 0.11625  0.37667  0.44683  Biso   1.000  C
  C9       1.0000 0.61809  0.12494  0.51888  Biso   1.000  C
  C10      1.0000 0.46066  0.05644  0.52544  Biso   1.000  C
  C11      1.0000 0.62133  0.97817  0.54817  Biso   1.000  C
  C12      1.0000 0.49292  0.94683  0.62333  Biso   1.000  C
  C13      1.0000 0.76191  0.37506  0.98112  Biso   1.000  C
  C14      1.0000 0.54254  0.44356  0.97456  Biso   1.000  C
  C15      1.0000 0.64767  0.52183  0.95183  Biso   1.000  C
  C16      1.0000 0.56308  0.55317  0.87667  Biso   1.000  C
  C17      1.0000 0.25697  0.98112  0.12494  Biso   1.000  C
  C18      1.0000 0.48290  0.97456  0.05644  Biso   1.000  C
  C19      1.0000 0.40050  0.95183  0.97817  Biso   1.000  C
  C20      1.0000 0.56025  0.87667  0.94683  Biso   1.000  C
  C21      1.0000 0.86303  0.51888  0.37506  Biso   1.000  C
  C22      1.0000 0.01390  0.52544  0.44356  Biso   1.000  C
  C23      1.0000 0.83050  0.54817  0.52183  Biso   1.000  C
  C24      1.0000 0.88375  0.62333  0.55317  Biso   1.000  C
  C25      1.0000 0.38191  0.87506  0.48112  Biso   1.000  C
  C26      1.0000 0.53934  0.94356  0.47456  Biso   1.000  C
  C27      1.0000 0.37867  0.02183  0.45183  Biso   1.000  C
  C28      1.0000 0.50708  0.05317  0.37667  Biso   1.000  C
  C29      1.0000 0.23809  0.62494  0.01888  Biso   1.000  C
  C30      1.0000 0.45746  0.55644  0.02544  Biso   1.000  C
  C31      1.0000 0.35233  0.47817  0.04817  Biso   1.000  C
  C32      1.0000 0.43692  0.44683  0.12333  Biso   1.000  C
  O1       1.0000 0.93080  0.06256  0.86784  Biso   1.000  O
  O2       1.0000 0.71480  0.96983  0.82557  Biso   1.000  O
  O3       1.0000 0.55597  0.16572  0.09274  Biso   1.000  O
  O4       1.0000 0.18874  0.13859  0.03533  Biso   1.000  O
  O5       1.0000 0.79349  0.06614  0.70148  Biso   1.000  O
  O6       1.0000 0.21632  0.87687  0.76969  Biso   1.000  O
  O7       1.0000 0.36120  0.43744  0.63216  Biso   1.000  O
  O8       1.0000 0.01020  0.53017  0.67443  Biso   1.000  O
  O9       1.0000 0.31443  0.33428  0.40726  Biso   1.000  O
  O10      1.0000 0.86266  0.36141  0.46467  Biso   1.000  O
  O11      1.0000 0.06111  0.43386  0.79852  Biso   1.000  O
  O12      1.0000 0.36288  0.62313  0.73031  Biso   1.000  O
  O13      1.0000 0.79864  0.13216  0.56256  Biso   1.000  O
  O14      1.0000 0.54037  0.17443  0.46983  Biso   1.000  O
  O15      1.0000 0.64871  0.90726  0.66572  Biso   1.000  O
  O16      1.0000 0.22407  0.96467  0.63859  Biso   1.000  O
  O17      1.0000 0.49497  0.29852  0.56614  Biso   1.000  O
  O18      1.0000 0.98601  0.23031  0.37687  Biso   1.000  O
  O19      1.0000 0.99336  0.36784  0.93744  Biso   1.000  O
  O20      1.0000 0.68463  0.32557  0.03017  Biso   1.000  O
  O21      1.0000 0.72169  0.59274  0.83428  Biso   1.000  O
  O22      1.0000 0.32733  0.53533  0.86141  Biso   1.000  O
  O23      1.0000 0.85963  0.20148  0.93386  Biso   1.000  O
  O24      1.0000 0.09319  0.26969  0.12313  Biso   1.000  O
  O25      1.0000 0.06920  0.93744  0.13216  Biso   1.000  O
  O26      1.0000 0.28520  0.03017  0.17443  Biso   1.000  O
  O27      1.0000 0.44403  0.83428  0.90726  Biso   1.000  O
  O28      1.0000 0.81126  0.86141  0.96467  Biso   1.000  O
  O29      1.0000 0.20651  0.93386  0.29852  Biso   1.000  O
  O30      1.0000 0.78368  0.12313  0.23031  Biso   1.000  O
  O31      1.0000 0.63880  0.56256  0.36784  Biso   1.000  O
  O32      1.0000 0.98980  0.46983  0.32557  Biso   1.000  O
  O33      1.0000 0.68557  0.66572  0.59274  Biso   1.000  O
  O34      1.0000 0.13734  0.63859  0.53533  Biso   1.000  O
  O35      1.0000 0.93889  0.56614  0.20148  Biso   1.000  O
  O36      1.0000 0.63712  0.37687  0.26969  Biso   1.000  O
  O37      1.0000 0.20136  0.86784  0.43744  Biso   1.000  O
  O38      1.0000 0.45963  0.82557  0.53017  Biso   1.000  O
  O39      1.0000 0.35129  0.09274  0.33428  Biso   1.000  O
  O40      1.0000 0.77593  0.03533  0.36141  Biso   1.000  O
  O41      1.0000 0.50503  0.70148  0.43386  Biso   1.000  O
  O42      1.0000 0.01399  0.76969  0.62313  Biso   1.000  O
  O43      1.0000 0.00664  0.63216  0.06256  Biso   1.000  O
  O44      1.0000 0.31537  0.67443  0.96983  Biso   1.000  O
  O45      1.0000 0.27831  0.40726  0.16572  Biso   1.000  O
  O46      1.0000 0.67267  0.46467  0.13859  Biso   1.000  O
  O47      1.0000 0.14037  0.79852  0.06614  Biso   1.000  O
  O48      1.0000 0.90681  0.73031  0.87687  Biso   1.000  O
