data_image0
_cell_length_a       12.9064
_cell_length_b       12.9064
_cell_length_c       17.6614
_cell_angle_alpha    111.431
_cell_angle_beta     111.431
_cell_angle_gamma    90

_symmetry_space_group_name_H-M    P 1
_symmetry_int_tables_number       1

loop_
  _symmetry_equiv_pos_as_xyz
  'x, y, z'

loop_
  _atom_site_label
  _atom_site_occupancy
  _atom_site_fract_x
  _atom_site_fract_y
  _atom_site_fract_z
  _atom_site_thermal_displace_type
  _atom_site_B_iso_or_equiv
  _atom_site_type_symbol
  K1       1.0000 0.62500  0.71041  0.75000  Biso   1.000  K
  K2       1.0000 0.12500  0.03959  0.75000  Biso   1.000  K
  K3       1.0000 0.28959  0.87500  0.25000  Biso   1.000  K
  K4       1.0000 0.96041  0.37500  0.25000  Biso   1.000  K
  Co1      1.0000 0.85501  0.91019  0.91934  Biso   1.000  Co
  Co2      1.0000 0.06433  0.00915  0.91934  Biso   1.000  Co
  Co3      1.0000 0.08981  0.93567  0.08066  Biso   1.000  Co
  Co4      1.0000 0.99085  0.14499  0.08066  Biso   1.000  Co
  Co5      1.0000 0.18567  0.83981  0.58066  Biso   1.000  Co
  Co6      1.0000 0.39499  0.74085  0.58066  Biso   1.000  Co
  Co7      1.0000 0.25915  0.81433  0.41934  Biso   1.000  Co
  Co8      1.0000 0.16019  0.60501  0.41934  Biso   1.000  Co
  Co9      1.0000 0.44213  0.94213  0.88426  Biso   1.000  Co
  Co10     1.0000 0.05787  0.55787  0.11574  Biso   1.000  Co
  Co11     1.0000 0.80787  0.80787  0.61574  Biso   1.000  Co
  Co12     1.0000 0.19213  0.19213  0.38426  Biso   1.000  Co
  H1       1.0000 0.71910  0.87090  0.08420  Biso   1.000  H
  H2       1.0000 0.77850  0.80820  0.02100  Biso   1.000  H
  H3       1.0000 0.93680  0.86410  0.16260  Biso   1.000  H
  H4       1.0000 0.88020  0.94920  0.21860  Biso   1.000  H
  H5       1.0000 0.36510  0.21330  0.08420  Biso   1.000  H
  H6       1.0000 0.24250  0.21280  0.02100  Biso   1.000  H
  H7       1.0000 0.22580  0.29850  0.16260  Biso   1.000  H
  H8       1.0000 0.33840  0.26940  0.21860  Biso   1.000  H
  H9       1.0000 0.12910  0.63490  0.91580  Biso   1.000  H
  H10      1.0000 0.19180  0.75750  0.97900  Biso   1.000  H
  H11      1.0000 0.13590  0.77420  0.83740  Biso   1.000  H
  H12      1.0000 0.05080  0.66160  0.78140  Biso   1.000  H
  H13      1.0000 0.78670  0.28090  0.91580  Biso   1.000  H
  H14      1.0000 0.78720  0.22150  0.97900  Biso   1.000  H
  H15      1.0000 0.70150  0.06320  0.83740  Biso   1.000  H
  H16      1.0000 0.73060  0.11980  0.78140  Biso   1.000  H
  H17      1.0000 0.88490  0.87910  0.41580  Biso   1.000  H
  H18      1.0000 0.00750  0.94180  0.47900  Biso   1.000  H
  H19      1.0000 0.02420  0.88590  0.33740  Biso   1.000  H
  H20      1.0000 0.91160  0.80080  0.28140  Biso   1.000  H
  H21      1.0000 0.53090  0.53670  0.41580  Biso   1.000  H
  H22      1.0000 0.47150  0.53720  0.47900  Biso   1.000  H
  H23      1.0000 0.31320  0.45150  0.33740  Biso   1.000  H
  H24      1.0000 0.36980  0.48060  0.28140  Biso   1.000  H
  H25      1.0000 0.46330  0.11510  0.58420  Biso   1.000  H
  H26      1.0000 0.46280  0.99250  0.52100  Biso   1.000  H
  H27      1.0000 0.54850  0.97580  0.66260  Biso   1.000  H
  H28      1.0000 0.51940  0.08840  0.71860  Biso   1.000  H
  H29      1.0000 0.12090  0.46910  0.58420  Biso   1.000  H
  H30      1.0000 0.05820  0.52850  0.52100  Biso   1.000  H
  H31      1.0000 0.11410  0.68680  0.66260  Biso   1.000  H
  H32      1.0000 0.19920  0.63020  0.71860  Biso   1.000  H
  C1       1.0000 0.66914  0.90376  0.97330  Biso   1.000  C
  C2       1.0000 0.75451  0.87938  0.04648  Biso   1.000  C
  C3       1.0000 0.85970  0.97169  0.10402  Biso   1.000  C
  C4       1.0000 0.92563  0.94220  0.18420  Biso   1.000  C
  C5       1.0000 0.03824  0.01433  0.24384  Biso   1.000  C
  C6       1.0000 0.82318  0.08701  0.13594  Biso   1.000  C
  C7       1.0000 0.30416  0.06954  0.97330  Biso   1.000  C
  C8       1.0000 0.29197  0.16710  0.04648  Biso   1.000  C
  C9       1.0000 0.24432  0.13233  0.10402  Biso   1.000  C
  C10      1.0000 0.25857  0.24200  0.18420  Biso   1.000  C
  C11      1.0000 0.20560  0.22951  0.24384  Biso   1.000  C
  C12      1.0000 0.31276  0.04893  0.13594  Biso   1.000  C
  C13      1.0000 0.09624  0.69584  0.02670  Biso   1.000  C
  C14      1.0000 0.12062  0.70803  0.95352  Biso   1.000  C
  C15      1.0000 0.02831  0.75568  0.89598  Biso   1.000  C
  C16      1.0000 0.05780  0.74143  0.81580  Biso   1.000  C
  C17      1.0000 0.98567  0.79440  0.75616  Biso   1.000  C
  C18      1.0000 0.91299  0.68724  0.86406  Biso   1.000  C
  C19      1.0000 0.93046  0.33086  0.02670  Biso   1.000  C
  C20      1.0000 0.83290  0.24549  0.95352  Biso   1.000  C
  C21      1.0000 0.86767  0.14030  0.89598  Biso   1.000  C
  C22      1.0000 0.75800  0.07437  0.81580  Biso   1.000  C
  C23      1.0000 0.77049  0.96176  0.75616  Biso   1.000  C
  C24      1.0000 0.95107  0.17682  0.86406  Biso   1.000  C
  C25      1.0000 0.94584  0.84624  0.52670  Biso   1.000  C
  C26      1.0000 0.95803  0.87062  0.45352  Biso   1.000  C
  C27      1.0000 0.00568  0.77831  0.39598  Biso   1.000  C
  C28      1.0000 0.99143  0.80780  0.31580  Biso   1.000  C
  C29      1.0000 0.04440  0.73567  0.25616  Biso   1.000  C
  C30      1.0000 0.93724  0.66299  0.36406  Biso   1.000  C
  C31      1.0000 0.58086  0.68046  0.52670  Biso   1.000  C
  C32      1.0000 0.49549  0.58290  0.45352  Biso   1.000  C
  C33      1.0000 0.39030  0.61767  0.39598  Biso   1.000  C
  C34      1.0000 0.32437  0.50800  0.31580  Biso   1.000  C
  C35      1.0000 0.21176  0.52049  0.25616  Biso   1.000  C
  C36      1.0000 0.42682  0.70107  0.36406  Biso   1.000  C
  C37      1.0000 0.31954  0.05416  0.47330  Biso   1.000  C
  C38      1.0000 0.41710  0.04197  0.54648  Biso   1.000  C
  C39      1.0000 0.38233  0.99432  0.60402  Biso   1.000  C
  C40      1.0000 0.49200  0.00857  0.68420  Biso   1.000  C
  C41      1.0000 0.47951  0.95560  0.74384  Biso   1.000  C
  C42      1.0000 0.29893  0.06276  0.63594  Biso   1.000  C
  C43      1.0000 0.15376  0.41914  0.47330  Biso   1.000  C
  C44      1.0000 0.12938  0.50451  0.54648  Biso   1.000  C
  C45      1.0000 0.22169  0.60970  0.60402  Biso   1.000  C
  C46      1.0000 0.19220  0.67563  0.68420  Biso   1.000  C
  C47      1.0000 0.26433  0.78824  0.74384  Biso   1.000  C
  C48      1.0000 0.33701  0.57318  0.63594  Biso   1.000  C
  O1       1.0000 0.69431  0.91855  0.91524  Biso   1.000  O
  O2       1.0000 0.56860  0.90487  0.97080  Biso   1.000  O
  O3       1.0000 0.54796  0.60525  0.83356  Biso   1.000  O
  O4       1.0000 0.11830  0.99939  0.21804  Biso   1.000  O
  O5       1.0000 0.04836  0.08785  0.31778  Biso   1.000  O
  O6       1.0000 0.86224  0.16703  0.12332  Biso   1.000  O
  O7       1.0000 0.75153  0.09633  0.17022  Biso   1.000  O
  O8       1.0000 0.92894  0.97387  0.05734  Biso   1.000  O
  O9       1.0000 0.22093  0.99669  0.91524  Biso   1.000  O
  O10      1.0000 0.40220  0.06593  0.97080  Biso   1.000  O
  O11      1.0000 0.28560  0.22831  0.83356  Biso   1.000  O
  O12      1.0000 0.09974  0.21865  0.21804  Biso   1.000  O
  O13      1.0000 0.26942  0.22993  0.31778  Biso   1.000  O
  O14      1.0000 0.26108  0.95629  0.12332  Biso   1.000  O
  O15      1.0000 0.41869  0.07389  0.17022  Biso   1.000  O
  O16      1.0000 0.12840  0.08347  0.05734  Biso   1.000  O
  O17      1.0000 0.08145  0.77907  0.08476  Biso   1.000  O
  O18      1.0000 0.09513  0.59780  0.02920  Biso   1.000  O
  O19      1.0000 0.39475  0.71440  0.16644  Biso   1.000  O
  O20      1.0000 0.00061  0.90026  0.78196  Biso   1.000  O
  O21      1.0000 0.91215  0.73058  0.68222  Biso   1.000  O
  O22      1.0000 0.83297  0.73892  0.87668  Biso   1.000  O
  O23      1.0000 0.90367  0.58131  0.82978  Biso   1.000  O
  O24      1.0000 0.02613  0.87160  0.94266  Biso   1.000  O
  O25      1.0000 0.00331  0.30569  0.08476  Biso   1.000  O
  O26      1.0000 0.93407  0.43140  0.02920  Biso   1.000  O
  O27      1.0000 0.77169  0.45204  0.16644  Biso   1.000  O
  O28      1.0000 0.78135  0.88170  0.78196  Biso   1.000  O
  O29      1.0000 0.77007  0.95164  0.68222  Biso   1.000  O
  O30      1.0000 0.04371  0.13776  0.87668  Biso   1.000  O
  O31      1.0000 0.92611  0.24847  0.82978  Biso   1.000  O
  O32      1.0000 0.91653  0.07106  0.94266  Biso   1.000  O
  O33      1.0000 0.02907  0.83145  0.58476  Biso   1.000  O
  O34      1.0000 0.84780  0.84513  0.52920  Biso   1.000  O
  O35      1.0000 0.96440  0.14475  0.66644  Biso   1.000  O
  O36      1.0000 0.15026  0.75061  0.28196  Biso   1.000  O
  O37      1.0000 0.98058  0.66215  0.18222  Biso   1.000  O
  O38      1.0000 0.98892  0.58297  0.37668  Biso   1.000  O
  O39      1.0000 0.83131  0.65367  0.32978  Biso   1.000  O
  O40      1.0000 0.12160  0.77613  0.44266  Biso   1.000  O
  O41      1.0000 0.55569  0.75331  0.58476  Biso   1.000  O
  O42      1.0000 0.68140  0.68407  0.52920  Biso   1.000  O
  O43      1.0000 0.70204  0.52169  0.66644  Biso   1.000  O
  O44      1.0000 0.13170  0.53135  0.28196  Biso   1.000  O
  O45      1.0000 0.20164  0.52007  0.18222  Biso   1.000  O
  O46      1.0000 0.38776  0.79371  0.37668  Biso   1.000  O
  O47      1.0000 0.49847  0.67611  0.32978  Biso   1.000  O
  O48      1.0000 0.32106  0.66653  0.44266  Biso   1.000  O
  O49      1.0000 0.24669  0.97093  0.41524  Biso   1.000  O
  O50      1.0000 0.31593  0.15220  0.47080  Biso   1.000  O
  O51      1.0000 0.47831  0.03560  0.33356  Biso   1.000  O
  O52      1.0000 0.46865  0.84974  0.71804  Biso   1.000  O
  O53      1.0000 0.47993  0.01942  0.81778  Biso   1.000  O
  O54      1.0000 0.20629  0.01108  0.62332  Biso   1.000  O
  O55      1.0000 0.32389  0.16869  0.67022  Biso   1.000  O
  O56      1.0000 0.33347  0.87840  0.55734  Biso   1.000  O
  O57      1.0000 0.16855  0.44431  0.41524  Biso   1.000  O
  O58      1.0000 0.15487  0.31860  0.47080  Biso   1.000  O
  O59      1.0000 0.85525  0.29796  0.33356  Biso   1.000  O
  O60      1.0000 0.24939  0.86830  0.71804  Biso   1.000  O
  O61      1.0000 0.33785  0.79836  0.81778  Biso   1.000  O
  O62      1.0000 0.41703  0.61224  0.62332  Biso   1.000  O
  O63      1.0000 0.34633  0.50153  0.67022  Biso   1.000  O
  O64      1.0000 0.22387  0.67894  0.55734  Biso   1.000  O
