data_image0
_cell_length_a       13.1261
_cell_length_b       17.1315
_cell_length_c       17.1315
_cell_angle_alpha    81.5605
_cell_angle_beta     67.4742
_cell_angle_gamma    67.4743

_symmetry_space_group_name_H-M    P 1
_symmetry_int_tables_number       1

loop_
  _symmetry_equiv_pos_as_xyz
  'x, y, z'

loop_
  _atom_site_label
  _atom_site_occupancy
  _atom_site_fract_x
  _atom_site_fract_y
  _atom_site_fract_z
  _atom_site_thermal_displace_type
  _atom_site_B_iso_or_equiv
  _atom_site_type_symbol
  Cu1      1.0000 0.36695  0.25000  0.76610  Biso   1.000  Cu
  Cu2      1.0000 0.88305  0.25000  0.73390  Biso   1.000  Cu
  Cu3      1.0000 0.63305  0.23390  0.75000  Biso   1.000  Cu
  Cu4      1.0000 0.11695  0.26610  0.75000  Biso   1.000  Cu
  Cu5      1.0000 0.63305  0.75000  0.23390  Biso   1.000  Cu
  Cu6      1.0000 0.11695  0.75000  0.26610  Biso   1.000  Cu
  Cu7      1.0000 0.36695  0.76610  0.25000  Biso   1.000  Cu
  Cu8      1.0000 0.88305  0.73390  0.25000  Biso   1.000  Cu
  H1       1.0000 0.21020  0.18250  0.94570  Biso   1.000  H
  H2       1.0000 0.25730  0.14590  0.85650  Biso   1.000  H
  H3       1.0000 0.26750  0.01600  0.90240  Biso   1.000  H
  H4       1.0000 0.14620  0.07500  0.95860  Biso   1.000  H
  H5       1.0000 0.83840  0.31750  0.55430  Biso   1.000  H
  H6       1.0000 0.75970  0.35410  0.64350  Biso   1.000  H
  H7       1.0000 0.68590  0.48400  0.59760  Biso   1.000  H
  H8       1.0000 0.67980  0.42500  0.54140  Biso   1.000  H
  H9       1.0000 0.65590  0.05430  0.68250  Biso   1.000  H
  H10      1.0000 0.61380  0.14350  0.64590  Biso   1.000  H
  H11      1.0000 0.66990  0.09760  0.51600  Biso   1.000  H
  H12      1.0000 0.60480  0.04140  0.57500  Biso   1.000  H
  H13      1.0000 0.89270  0.44570  0.81750  Biso   1.000  H
  H14      1.0000 0.90320  0.35650  0.85410  Biso   1.000  H
  H15      1.0000 0.78350  0.40240  0.98400  Biso   1.000  H
  H16      1.0000 0.72120  0.45860  0.92500  Biso   1.000  H
  H17      1.0000 0.16160  0.44570  0.68250  Biso   1.000  H
  H18      1.0000 0.24030  0.35650  0.64590  Biso   1.000  H
  H19      1.0000 0.31410  0.40240  0.51600  Biso   1.000  H
  H20      1.0000 0.32020  0.45860  0.57500  Biso   1.000  H
  H21      1.0000 0.78980  0.05430  0.81750  Biso   1.000  H
  H22      1.0000 0.74270  0.14350  0.85410  Biso   1.000  H
  H23      1.0000 0.73250  0.09760  0.98400  Biso   1.000  H
  H24      1.0000 0.85380  0.04140  0.92500  Biso   1.000  H
  H25      1.0000 0.10730  0.18250  0.55430  Biso   1.000  H
  H26      1.0000 0.09680  0.14590  0.64350  Biso   1.000  H
  H27      1.0000 0.21650  0.01600  0.59760  Biso   1.000  H
  H28      1.0000 0.27880  0.07500  0.54140  Biso   1.000  H
  H29      1.0000 0.34410  0.31750  0.94570  Biso   1.000  H
  H30      1.0000 0.38620  0.35410  0.85650  Biso   1.000  H
  H31      1.0000 0.33010  0.48400  0.90240  Biso   1.000  H
  H32      1.0000 0.39520  0.42500  0.95860  Biso   1.000  H
  H33      1.0000 0.78980  0.81750  0.05430  Biso   1.000  H
  H34      1.0000 0.74270  0.85410  0.14350  Biso   1.000  H
  H35      1.0000 0.73250  0.98400  0.09760  Biso   1.000  H
  H36      1.0000 0.85380  0.92500  0.04140  Biso   1.000  H
  H37      1.0000 0.16160  0.68250  0.44570  Biso   1.000  H
  H38      1.0000 0.24030  0.64590  0.35650  Biso   1.000  H
  H39      1.0000 0.31410  0.51600  0.40240  Biso   1.000  H
  H40      1.0000 0.32020  0.57500  0.45860  Biso   1.000  H
  H41      1.0000 0.34410  0.94570  0.31750  Biso   1.000  H
  H42      1.0000 0.38620  0.85650  0.35410  Biso   1.000  H
  H43      1.0000 0.33010  0.90240  0.48400  Biso   1.000  H
  H44      1.0000 0.39520  0.95860  0.42500  Biso   1.000  H
  H45      1.0000 0.10730  0.55430  0.18250  Biso   1.000  H
  H46      1.0000 0.09680  0.64350  0.14590  Biso   1.000  H
  H47      1.0000 0.21650  0.59760  0.01600  Biso   1.000  H
  H48      1.0000 0.27880  0.54140  0.07500  Biso   1.000  H
  H49      1.0000 0.83840  0.55430  0.31750  Biso   1.000  H
  H50      1.0000 0.75970  0.64350  0.35410  Biso   1.000  H
  H51      1.0000 0.68590  0.59760  0.48400  Biso   1.000  H
  H52      1.0000 0.67980  0.54140  0.42500  Biso   1.000  H
  H53      1.0000 0.21020  0.94570  0.18250  Biso   1.000  H
  H54      1.0000 0.25730  0.85650  0.14590  Biso   1.000  H
  H55      1.0000 0.26750  0.90240  0.01600  Biso   1.000  H
  H56      1.0000 0.14620  0.95860  0.07500  Biso   1.000  H
  H57      1.0000 0.89270  0.81750  0.44570  Biso   1.000  H
  H58      1.0000 0.90320  0.85410  0.35650  Biso   1.000  H
  H59      1.0000 0.78350  0.98400  0.40240  Biso   1.000  H
  H60      1.0000 0.72120  0.92500  0.45860  Biso   1.000  H
  H61      1.0000 0.65590  0.68250  0.05430  Biso   1.000  H
  H62      1.0000 0.61380  0.64590  0.14350  Biso   1.000  H
  H63      1.0000 0.66990  0.51600  0.09760  Biso   1.000  H
  H64      1.0000 0.60480  0.57500  0.04140  Biso   1.000  H
  H65      1.0000 0.20780  0.06510  0.06510  Biso   1.000  H
  H66      1.0000 0.83800  0.43490  0.43490  Biso   1.000  H
  H67      1.0000 0.77290  0.93490  0.56510  Biso   1.000  H
  H68      1.0000 0.77290  0.56510  0.93490  Biso   1.000  H
  H69      1.0000 0.16200  0.56510  0.56510  Biso   1.000  H
  H70      1.0000 0.79220  0.93490  0.93490  Biso   1.000  H
  H71      1.0000 0.22710  0.06510  0.43490  Biso   1.000  H
  H72      1.0000 0.22710  0.43490  0.06510  Biso   1.000  H
  C1       1.0000 0.38670  0.11950  0.90170  Biso   1.000  C
  C2       1.0000 0.44130  0.05910  0.95270  Biso   1.000  C
  C3       1.0000 0.26320  0.13430  0.91110  Biso   1.000  C
  C4       1.0000 0.22980  0.05850  0.94470  Biso   1.000  C
  C5       1.0000 0.90790  0.38050  0.59830  Biso   1.000  C
  C6       1.0000 0.95310  0.44090  0.54730  Biso   1.000  C
  C7       1.0000 0.80860  0.36570  0.58890  Biso   1.000  C
  C8       1.0000 0.73300  0.44150  0.55530  Biso   1.000  C
  C9       1.0000 0.78840  0.09830  0.61950  Biso   1.000  C
  C10      1.0000 0.89400  0.04730  0.55910  Biso   1.000  C
  C11      1.0000 0.67430  0.08890  0.63430  Biso   1.000  C
  C12      1.0000 0.67450  0.05530  0.55850  Biso   1.000  C
  C13      1.0000 0.00620  0.40170  0.88050  Biso   1.000  C
  C14      1.0000 0.00040  0.45270  0.94090  Biso   1.000  C
  C15      1.0000 0.89750  0.41110  0.86570  Biso   1.000  C
  C16      1.0000 0.78830  0.44470  0.94150  Biso   1.000  C
  C17      1.0000 0.09210  0.40170  0.61950  Biso   1.000  C
  C18      1.0000 0.04690  0.45270  0.55910  Biso   1.000  C
  C19      1.0000 0.19140  0.41110  0.63430  Biso   1.000  C
  C20      1.0000 0.26700  0.44470  0.55850  Biso   1.000  C
  C21      1.0000 0.61330  0.09830  0.88050  Biso   1.000  C
  C22      1.0000 0.55870  0.04730  0.94090  Biso   1.000  C
  C23      1.0000 0.73680  0.08890  0.86570  Biso   1.000  C
  C24      1.0000 0.77020  0.05530  0.94150  Biso   1.000  C
  C25      1.0000 0.99380  0.11950  0.59830  Biso   1.000  C
  C26      1.0000 0.99960  0.05910  0.54730  Biso   1.000  C
  C27      1.0000 0.10250  0.13430  0.58890  Biso   1.000  C
  C28      1.0000 0.21170  0.05850  0.55530  Biso   1.000  C
  C29      1.0000 0.21160  0.38050  0.90170  Biso   1.000  C
  C30      1.0000 0.10600  0.44090  0.95270  Biso   1.000  C
  C31      1.0000 0.32570  0.36570  0.91110  Biso   1.000  C
  C32      1.0000 0.32550  0.44150  0.94470  Biso   1.000  C
  C33      1.0000 0.61330  0.88050  0.09830  Biso   1.000  C
  C34      1.0000 0.55870  0.94090  0.04730  Biso   1.000  C
  C35      1.0000 0.73680  0.86570  0.08890  Biso   1.000  C
  C36      1.0000 0.77020  0.94150  0.05530  Biso   1.000  C
  C37      1.0000 0.09210  0.61950  0.40170  Biso   1.000  C
  C38      1.0000 0.04690  0.55910  0.45270  Biso   1.000  C
  C39      1.0000 0.19140  0.63430  0.41110  Biso   1.000  C
  C40      1.0000 0.26700  0.55850  0.44470  Biso   1.000  C
  C41      1.0000 0.21160  0.90170  0.38050  Biso   1.000  C
  C42      1.0000 0.10600  0.95270  0.44090  Biso   1.000  C
  C43      1.0000 0.32570  0.91110  0.36570  Biso   1.000  C
  C44      1.0000 0.32550  0.94470  0.44150  Biso   1.000  C
  C45      1.0000 0.99380  0.59830  0.11950  Biso   1.000  C
  C46      1.0000 0.99960  0.54730  0.05910  Biso   1.000  C
  C47      1.0000 0.10250  0.58890  0.13430  Biso   1.000  C
  C48      1.0000 0.21170  0.55530  0.05850  Biso   1.000  C
  C49      1.0000 0.90790  0.59830  0.38050  Biso   1.000  C
  C50      1.0000 0.95310  0.54730  0.44090  Biso   1.000  C
  C51      1.0000 0.80860  0.58890  0.36570  Biso   1.000  C
  C52      1.0000 0.73300  0.55530  0.44150  Biso   1.000  C
  C53      1.0000 0.38670  0.90170  0.11950  Biso   1.000  C
  C54      1.0000 0.44130  0.95270  0.05910  Biso   1.000  C
  C55      1.0000 0.26320  0.91110  0.13430  Biso   1.000  C
  C56      1.0000 0.22980  0.94470  0.05850  Biso   1.000  C
  C57      1.0000 0.00620  0.88050  0.40170  Biso   1.000  C
  C58      1.0000 0.00040  0.94090  0.45270  Biso   1.000  C
  C59      1.0000 0.89750  0.86570  0.41110  Biso   1.000  C
  C60      1.0000 0.78830  0.94150  0.44470  Biso   1.000  C
  C61      1.0000 0.78840  0.61950  0.09830  Biso   1.000  C
  C62      1.0000 0.89400  0.55910  0.04730  Biso   1.000  C
  C63      1.0000 0.67430  0.63430  0.08890  Biso   1.000  C
  C64      1.0000 0.67450  0.55850  0.05530  Biso   1.000  C
  C65      1.0000 0.38070  0.01150  0.01150  Biso   1.000  C
  C66      1.0000 0.25670  0.02280  0.02280  Biso   1.000  C
  C67      1.0000 0.90370  0.48850  0.48850  Biso   1.000  C
  C68      1.0000 0.80230  0.47720  0.47720  Biso   1.000  C
  C69      1.0000 0.89220  0.98850  0.51150  Biso   1.000  C
  C70      1.0000 0.77950  0.97720  0.52280  Biso   1.000  C
  C71      1.0000 0.89220  0.51150  0.98850  Biso   1.000  C
  C72      1.0000 0.77950  0.52280  0.97720  Biso   1.000  C
  C73      1.0000 0.09630  0.51150  0.51150  Biso   1.000  C
  C74      1.0000 0.19770  0.52280  0.52280  Biso   1.000  C
  C75      1.0000 0.61930  0.98850  0.98850  Biso   1.000  C
  C76      1.0000 0.74330  0.97720  0.97720  Biso   1.000  C
  C77      1.0000 0.10780  0.01150  0.48850  Biso   1.000  C
  C78      1.0000 0.22050  0.02280  0.47720  Biso   1.000  C
  C79      1.0000 0.10780  0.48850  0.01150  Biso   1.000  C
  C80      1.0000 0.22050  0.47720  0.02280  Biso   1.000  C
  I1       1.0000 0.50000  0.33278  0.66722  Biso   1.000  I
  I2       1.0000 0.00000  0.16722  0.83278  Biso   1.000  I
  I3       1.0000 0.66722  0.33278  0.83278  Biso   1.000  I
  I4       1.0000 0.33278  0.16722  0.66722  Biso   1.000  I
  I5       1.0000 0.50000  0.66722  0.33278  Biso   1.000  I
  I6       1.0000 0.00000  0.83278  0.16722  Biso   1.000  I
  I7       1.0000 0.33278  0.66722  0.16722  Biso   1.000  I
  I8       1.0000 0.66722  0.83278  0.33278  Biso   1.000  I
  N1       1.0000 0.44160  0.16510  0.84570  Biso   1.000  N
  N2       1.0000 0.95240  0.33490  0.65430  Biso   1.000  N
  N3       1.0000 0.78730  0.15430  0.66510  Biso   1.000  N
  N4       1.0000 0.10670  0.34570  0.83490  Biso   1.000  N
  N5       1.0000 0.04760  0.34570  0.66510  Biso   1.000  N
  N6       1.0000 0.55840  0.15430  0.83490  Biso   1.000  N
  N7       1.0000 0.89330  0.16510  0.65430  Biso   1.000  N
  N8       1.0000 0.21270  0.33490  0.84570  Biso   1.000  N
  N9       1.0000 0.55840  0.83490  0.15430  Biso   1.000  N
  N10      1.0000 0.04760  0.66510  0.34570  Biso   1.000  N
  N11      1.0000 0.21270  0.84570  0.33490  Biso   1.000  N
  N12      1.0000 0.89330  0.65430  0.16510  Biso   1.000  N
  N13      1.0000 0.95240  0.65430  0.33490  Biso   1.000  N
  N14      1.0000 0.44160  0.84570  0.16510  Biso   1.000  N
  N15      1.0000 0.10670  0.83490  0.34570  Biso   1.000  N
  N16      1.0000 0.78730  0.66510  0.15430  Biso   1.000  N
