data_image0
_cell_length_a       12.4522
_cell_length_b       15.9327
_cell_length_c       15.9327
_cell_angle_alpha    90
_cell_angle_beta     90
_cell_angle_gamma    90

_symmetry_space_group_name_H-M    P 1
_symmetry_int_tables_number       1

loop_
  _symmetry_equiv_pos_as_xyz
  'x, y, z'

loop_
  _atom_site_label
  _atom_site_occupancy
  _atom_site_fract_x
  _atom_site_fract_y
  _atom_site_fract_z
  _atom_site_thermal_displace_type
  _atom_site_B_iso_or_equiv
  _atom_site_type_symbol
  Cu1      1.0000 0.62376  0.51565  0.00211  Biso   1.000  Cu
  Cu2      1.0000 0.12376  0.48435  0.99789  Biso   1.000  Cu
  Cu3      1.0000 0.87376  0.49789  0.01565  Biso   1.000  Cu
  Cu4      1.0000 0.37376  0.50211  0.98435  Biso   1.000  Cu
  Cu5      1.0000 0.62624  0.98435  0.50211  Biso   1.000  Cu
  Cu6      1.0000 0.12624  0.01565  0.49789  Biso   1.000  Cu
  Cu7      1.0000 0.37624  0.00211  0.51565  Biso   1.000  Cu
  Cu8      1.0000 0.87624  0.99789  0.48435  Biso   1.000  Cu
  H1       1.0000 0.24740  0.60290  0.82880  Biso   1.000  H
  H2       1.0000 0.24580  0.62990  0.92260  Biso   1.000  H
  H3       1.0000 0.75950  0.71900  0.72300  Biso   1.000  H
  H4       1.0000 0.75060  0.64950  0.94010  Biso   1.000  H
  H5       1.0000 0.75980  0.60950  0.85150  Biso   1.000  H
  H6       1.0000 0.14320  0.72150  0.83870  Biso   1.000  H
  H7       1.0000 0.23790  0.76580  0.88350  Biso   1.000  H
  H8       1.0000 0.85440  0.72880  0.84370  Biso   1.000  H
  H9       1.0000 0.76020  0.77810  0.88360  Biso   1.000  H
  H10      1.0000 0.74740  0.39710  0.17120  Biso   1.000  H
  H11      1.0000 0.74580  0.37010  0.07740  Biso   1.000  H
  H12      1.0000 0.25950  0.28100  0.27700  Biso   1.000  H
  H13      1.0000 0.25060  0.35050  0.05990  Biso   1.000  H
  H14      1.0000 0.25980  0.39050  0.14850  Biso   1.000  H
  H15      1.0000 0.64320  0.27850  0.16130  Biso   1.000  H
  H16      1.0000 0.73790  0.23420  0.11650  Biso   1.000  H
  H17      1.0000 0.35440  0.27120  0.15630  Biso   1.000  H
  H18      1.0000 0.26020  0.22190  0.11640  Biso   1.000  H
  H19      1.0000 0.49740  0.67120  0.10290  Biso   1.000  H
  H20      1.0000 0.49580  0.57740  0.12990  Biso   1.000  H
  H21      1.0000 0.00950  0.77700  0.21900  Biso   1.000  H
  H22      1.0000 0.00060  0.55990  0.14950  Biso   1.000  H
  H23      1.0000 0.00980  0.64850  0.10950  Biso   1.000  H
  H24      1.0000 0.39320  0.66130  0.22150  Biso   1.000  H
  H25      1.0000 0.48790  0.61650  0.26580  Biso   1.000  H
  H26      1.0000 0.10440  0.65630  0.22880  Biso   1.000  H
  H27      1.0000 0.01020  0.61640  0.27810  Biso   1.000  H
  H28      1.0000 0.99740  0.32880  0.89710  Biso   1.000  H
  H29      1.0000 0.99580  0.42260  0.87010  Biso   1.000  H
  H30      1.0000 0.50950  0.22300  0.78100  Biso   1.000  H
  H31      1.0000 0.50060  0.44010  0.85050  Biso   1.000  H
  H32      1.0000 0.50980  0.35150  0.89050  Biso   1.000  H
  H33      1.0000 0.89320  0.33870  0.77850  Biso   1.000  H
  H34      1.0000 0.98790  0.38350  0.73420  Biso   1.000  H
  H35      1.0000 0.60440  0.34370  0.77120  Biso   1.000  H
  H36      1.0000 0.51020  0.38360  0.72190  Biso   1.000  H
  H37      1.0000 0.00260  0.89710  0.32880  Biso   1.000  H
  H38      1.0000 0.00420  0.87010  0.42260  Biso   1.000  H
  H39      1.0000 0.49050  0.78100  0.22300  Biso   1.000  H
  H40      1.0000 0.49940  0.85050  0.44010  Biso   1.000  H
  H41      1.0000 0.49020  0.89050  0.35150  Biso   1.000  H
  H42      1.0000 0.10680  0.77850  0.33870  Biso   1.000  H
  H43      1.0000 0.01210  0.73420  0.38350  Biso   1.000  H
  H44      1.0000 0.39560  0.77120  0.34370  Biso   1.000  H
  H45      1.0000 0.48980  0.72190  0.38360  Biso   1.000  H
  H46      1.0000 0.50260  0.10290  0.67120  Biso   1.000  H
  H47      1.0000 0.50420  0.12990  0.57740  Biso   1.000  H
  H48      1.0000 0.99050  0.21900  0.77700  Biso   1.000  H
  H49      1.0000 0.99940  0.14950  0.55990  Biso   1.000  H
  H50      1.0000 0.99020  0.10950  0.64850  Biso   1.000  H
  H51      1.0000 0.60680  0.22150  0.66130  Biso   1.000  H
  H52      1.0000 0.51210  0.26580  0.61650  Biso   1.000  H
  H53      1.0000 0.89560  0.22880  0.65630  Biso   1.000  H
  H54      1.0000 0.98980  0.27810  0.61640  Biso   1.000  H
  H55      1.0000 0.75260  0.82880  0.60290  Biso   1.000  H
  H56      1.0000 0.75420  0.92260  0.62990  Biso   1.000  H
  H57      1.0000 0.24050  0.72300  0.71900  Biso   1.000  H
  H58      1.0000 0.24940  0.94010  0.64950  Biso   1.000  H
  H59      1.0000 0.24020  0.85150  0.60950  Biso   1.000  H
  H60      1.0000 0.85680  0.83870  0.72150  Biso   1.000  H
  H61      1.0000 0.76210  0.88350  0.76580  Biso   1.000  H
  H62      1.0000 0.14560  0.84370  0.72880  Biso   1.000  H
  H63      1.0000 0.23980  0.88360  0.77810  Biso   1.000  H
  H64      1.0000 0.25260  0.17120  0.39710  Biso   1.000  H
  H65      1.0000 0.25420  0.07740  0.37010  Biso   1.000  H
  H66      1.0000 0.74050  0.27700  0.28100  Biso   1.000  H
  H67      1.0000 0.74940  0.05990  0.35050  Biso   1.000  H
  H68      1.0000 0.74020  0.14850  0.39050  Biso   1.000  H
  H69      1.0000 0.35680  0.16130  0.27850  Biso   1.000  H
  H70      1.0000 0.26210  0.11650  0.23420  Biso   1.000  H
  H71      1.0000 0.64560  0.15630  0.27120  Biso   1.000  H
  H72      1.0000 0.73980  0.11640  0.22190  Biso   1.000  H
  C1       1.0000 0.60760  0.65520  0.87460  Biso   1.000  C
  C2       1.0000 0.55590  0.71040  0.81760  Biso   1.000  C
  C3       1.0000 0.61490  0.76360  0.76240  Biso   1.000  C
  C4       1.0000 0.44360  0.71010  0.81490  Biso   1.000  C
  C5       1.0000 0.38940  0.64900  0.86790  Biso   1.000  C
  C6       1.0000 0.27090  0.64500  0.86770  Biso   1.000  C
  C7       1.0000 0.73710  0.76160  0.76180  Biso   1.000  C
  C8       1.0000 0.73040  0.65590  0.88230  Biso   1.000  C
  C9       1.0000 0.22000  0.72570  0.84080  Biso   1.000  C
  C10      1.0000 0.77760  0.73370  0.84510  Biso   1.000  C
  C11      1.0000 0.10760  0.34480  0.12540  Biso   1.000  C
  C12      1.0000 0.05590  0.28960  0.18240  Biso   1.000  C
  C13      1.0000 0.11490  0.23640  0.23760  Biso   1.000  C
  C14      1.0000 0.94360  0.28990  0.18510  Biso   1.000  C
  C15      1.0000 0.88940  0.35100  0.13210  Biso   1.000  C
  C16      1.0000 0.77090  0.35500  0.13230  Biso   1.000  C
  C17      1.0000 0.23710  0.23840  0.23820  Biso   1.000  C
  C18      1.0000 0.23040  0.34410  0.11770  Biso   1.000  C
  C19      1.0000 0.72000  0.27430  0.15920  Biso   1.000  C
  C20      1.0000 0.27760  0.26630  0.15490  Biso   1.000  C
  C21      1.0000 0.85760  0.62540  0.15520  Biso   1.000  C
  C22      1.0000 0.80590  0.68240  0.21040  Biso   1.000  C
  C23      1.0000 0.86490  0.73760  0.26360  Biso   1.000  C
  C24      1.0000 0.69360  0.68510  0.21010  Biso   1.000  C
  C25      1.0000 0.63940  0.63210  0.14900  Biso   1.000  C
  C26      1.0000 0.52090  0.63230  0.14500  Biso   1.000  C
  C27      1.0000 0.98710  0.73820  0.26160  Biso   1.000  C
  C28      1.0000 0.98040  0.61770  0.15590  Biso   1.000  C
  C29      1.0000 0.47000  0.65920  0.22570  Biso   1.000  C
  C30      1.0000 0.02760  0.65490  0.23370  Biso   1.000  C
  C31      1.0000 0.35760  0.37460  0.84480  Biso   1.000  C
  C32      1.0000 0.30590  0.31760  0.78960  Biso   1.000  C
  C33      1.0000 0.36490  0.26240  0.73640  Biso   1.000  C
  C34      1.0000 0.19360  0.31490  0.78990  Biso   1.000  C
  C35      1.0000 0.13940  0.36790  0.85100  Biso   1.000  C
  C36      1.0000 0.02090  0.36770  0.85500  Biso   1.000  C
  C37      1.0000 0.48710  0.26180  0.73840  Biso   1.000  C
  C38      1.0000 0.48040  0.38230  0.84410  Biso   1.000  C
  C39      1.0000 0.97000  0.34080  0.77430  Biso   1.000  C
  C40      1.0000 0.52760  0.34510  0.76630  Biso   1.000  C
  C41      1.0000 0.64240  0.84480  0.37460  Biso   1.000  C
  C42      1.0000 0.69410  0.78960  0.31760  Biso   1.000  C
  C43      1.0000 0.63510  0.73640  0.26240  Biso   1.000  C
  C44      1.0000 0.80640  0.78990  0.31490  Biso   1.000  C
  C45      1.0000 0.86060  0.85100  0.36790  Biso   1.000  C
  C46      1.0000 0.97910  0.85500  0.36770  Biso   1.000  C
  C47      1.0000 0.51290  0.73840  0.26180  Biso   1.000  C
  C48      1.0000 0.51960  0.84410  0.38230  Biso   1.000  C
  C49      1.0000 0.03000  0.77430  0.34080  Biso   1.000  C
  C50      1.0000 0.47240  0.76630  0.34510  Biso   1.000  C
  C51      1.0000 0.14240  0.15520  0.62540  Biso   1.000  C
  C52      1.0000 0.19410  0.21040  0.68240  Biso   1.000  C
  C53      1.0000 0.13510  0.26360  0.73760  Biso   1.000  C
  C54      1.0000 0.30640  0.21010  0.68510  Biso   1.000  C
  C55      1.0000 0.36060  0.14900  0.63210  Biso   1.000  C
  C56      1.0000 0.47910  0.14500  0.63230  Biso   1.000  C
  C57      1.0000 0.01290  0.26160  0.73820  Biso   1.000  C
  C58      1.0000 0.01960  0.15590  0.61770  Biso   1.000  C
  C59      1.0000 0.53000  0.22570  0.65920  Biso   1.000  C
  C60      1.0000 0.97240  0.23370  0.65490  Biso   1.000  C
  C61      1.0000 0.39240  0.87460  0.65520  Biso   1.000  C
  C62      1.0000 0.44410  0.81760  0.71040  Biso   1.000  C
  C63      1.0000 0.38510  0.76240  0.76360  Biso   1.000  C
  C64      1.0000 0.55640  0.81490  0.71010  Biso   1.000  C
  C65      1.0000 0.61060  0.86790  0.64900  Biso   1.000  C
  C66      1.0000 0.72910  0.86770  0.64500  Biso   1.000  C
  C67      1.0000 0.26290  0.76180  0.76160  Biso   1.000  C
  C68      1.0000 0.26960  0.88230  0.65590  Biso   1.000  C
  C69      1.0000 0.78000  0.84080  0.72570  Biso   1.000  C
  C70      1.0000 0.22240  0.84510  0.73370  Biso   1.000  C
  C71      1.0000 0.89240  0.12540  0.34480  Biso   1.000  C
  C72      1.0000 0.94410  0.18240  0.28960  Biso   1.000  C
  C73      1.0000 0.88510  0.23760  0.23640  Biso   1.000  C
  C74      1.0000 0.05640  0.18510  0.28990  Biso   1.000  C
  C75      1.0000 0.11060  0.13210  0.35100  Biso   1.000  C
  C76      1.0000 0.22910  0.13230  0.35500  Biso   1.000  C
  C77      1.0000 0.76290  0.23820  0.23840  Biso   1.000  C
  C78      1.0000 0.76960  0.11770  0.34410  Biso   1.000  C
  C79      1.0000 0.28000  0.15920  0.27430  Biso   1.000  C
  C80      1.0000 0.72240  0.15490  0.26630  Biso   1.000  C
  N1       1.0000 0.55390  0.60020  0.92090  Biso   1.000  N
  N2       1.0000 0.44250  0.59770  0.91740  Biso   1.000  N
  N3       1.0000 0.05390  0.39980  0.07910  Biso   1.000  N
  N4       1.0000 0.94250  0.40230  0.08260  Biso   1.000  N
  N5       1.0000 0.80390  0.57910  0.10020  Biso   1.000  N
  N6       1.0000 0.69250  0.58260  0.09770  Biso   1.000  N
  N7       1.0000 0.30390  0.42090  0.89980  Biso   1.000  N
  N8       1.0000 0.19250  0.41740  0.90230  Biso   1.000  N
  N9       1.0000 0.69610  0.89980  0.42090  Biso   1.000  N
  N10      1.0000 0.80750  0.90230  0.41740  Biso   1.000  N
  N11      1.0000 0.19610  0.10020  0.57910  Biso   1.000  N
  N12      1.0000 0.30750  0.09770  0.58260  Biso   1.000  N
  N13      1.0000 0.44610  0.92090  0.60020  Biso   1.000  N
  N14      1.0000 0.55750  0.91740  0.59770  Biso   1.000  N
  N15      1.0000 0.94610  0.07910  0.39980  Biso   1.000  N
  N16      1.0000 0.05750  0.08260  0.40230  Biso   1.000  N
  Cl1      1.0000 0.74820  0.43734  0.92223  Biso   1.000  Cl
  Cl2      1.0000 0.24820  0.56266  0.07777  Biso   1.000  Cl
  Cl3      1.0000 0.99820  0.57777  0.93734  Biso   1.000  Cl
  Cl4      1.0000 0.49820  0.42223  0.06266  Biso   1.000  Cl
  Cl5      1.0000 0.50180  0.06266  0.42223  Biso   1.000  Cl
  Cl6      1.0000 0.00180  0.93734  0.57777  Biso   1.000  Cl
  Cl7      1.0000 0.25180  0.92223  0.43734  Biso   1.000  Cl
  Cl8      1.0000 0.75180  0.07777  0.56266  Biso   1.000  Cl
