data_image0
_cell_length_a       8.1471
_cell_length_b       11.6977
_cell_length_c       11.6977
_cell_angle_alpha    109.553
_cell_angle_beta     104.734
_cell_angle_gamma    75.2658

_symmetry_space_group_name_H-M    P 1
_symmetry_int_tables_number       1

loop_
  _symmetry_equiv_pos_as_xyz
  'x, y, z'

loop_
  _atom_site_label
  _atom_site_occupancy
  _atom_site_fract_x
  _atom_site_fract_y
  _atom_site_fract_z
  _atom_site_thermal_displace_type
  _atom_site_B_iso_or_equiv
  _atom_site_type_symbol
  Zn1      1.0000 0.43687  0.07863  0.90023  Biso   1.000  Zn
  Zn2      1.0000 0.06313  0.90023  0.07863  Biso   1.000  Zn
  Zn3      1.0000 0.56313  0.92137  0.09977  Biso   1.000  Zn
  Zn4      1.0000 0.93687  0.09977  0.92137  Biso   1.000  Zn
  Zn5      1.0000 0.75000  0.13198  0.13198  Biso   1.000  Zn
  Zn6      1.0000 0.25000  0.86802  0.86802  Biso   1.000  Zn
  H1       1.0000 0.76600  0.68910  0.96490  Biso   1.000  H
  H2       1.0000 0.52090  0.74280  0.22960  Biso   1.000  H
  H3       1.0000 0.59650  0.53750  0.22010  Biso   1.000  H
  H4       1.0000 0.84180  0.48210  0.94510  Biso   1.000  H
  H5       1.0000 0.73400  0.96490  0.68910  Biso   1.000  H
  H6       1.0000 0.97910  0.22960  0.74280  Biso   1.000  H
  H7       1.0000 0.90350  0.22010  0.53750  Biso   1.000  H
  H8       1.0000 0.65820  0.94510  0.48210  Biso   1.000  H
  H9       1.0000 0.23400  0.31090  0.03510  Biso   1.000  H
  H10      1.0000 0.47910  0.25720  0.77040  Biso   1.000  H
  H11      1.0000 0.40350  0.46250  0.77990  Biso   1.000  H
  H12      1.0000 0.15820  0.51790  0.05490  Biso   1.000  H
  H13      1.0000 0.26600  0.03510  0.31090  Biso   1.000  H
  H14      1.0000 0.02090  0.77040  0.25720  Biso   1.000  H
  H15      1.0000 0.09650  0.77990  0.46250  Biso   1.000  H
  H16      1.0000 0.34180  0.05490  0.51790  Biso   1.000  H
  C1       1.0000 0.73070  0.65815  0.01645  Biso   1.000  C
  C2       1.0000 0.58760  0.68965  0.17235  Biso   1.000  C
  C3       1.0000 0.63200  0.56623  0.16697  Biso   1.000  C
  C4       1.0000 0.77780  0.53372  0.00468  Biso   1.000  C
  C5       1.0000 0.72970  0.48592  0.08168  Biso   1.000  C
  C6       1.0000 0.78050  0.34883  0.06977  Biso   1.000  C
  C7       1.0000 0.76930  0.01645  0.65815  Biso   1.000  C
  C8       1.0000 0.91240  0.17235  0.68965  Biso   1.000  C
  C9       1.0000 0.86800  0.16697  0.56623  Biso   1.000  C
  C10      1.0000 0.72220  0.00468  0.53372  Biso   1.000  C
  C11      1.0000 0.77030  0.08168  0.48592  Biso   1.000  C
  C12      1.0000 0.71950  0.06977  0.34883  Biso   1.000  C
  C13      1.0000 0.26930  0.34185  0.98355  Biso   1.000  C
  C14      1.0000 0.41240  0.31035  0.82765  Biso   1.000  C
  C15      1.0000 0.36800  0.43377  0.83303  Biso   1.000  C
  C16      1.0000 0.22220  0.46628  0.99532  Biso   1.000  C
  C17      1.0000 0.27030  0.51408  0.91832  Biso   1.000  C
  C18      1.0000 0.21950  0.65117  0.93023  Biso   1.000  C
  C19      1.0000 0.23070  0.98355  0.34185  Biso   1.000  C
  C20      1.0000 0.08760  0.82765  0.31035  Biso   1.000  C
  C21      1.0000 0.13200  0.83303  0.43377  Biso   1.000  C
  C22      1.0000 0.27780  0.99532  0.46628  Biso   1.000  C
  C23      1.0000 0.22970  0.91832  0.51408  Biso   1.000  C
  C24      1.0000 0.28050  0.93023  0.65117  Biso   1.000  C
  N1       1.0000 0.63650  0.73632  0.09874  Biso   1.000  N
  N2       1.0000 0.86350  0.09874  0.73632  Biso   1.000  N
  N3       1.0000 0.36350  0.26368  0.90126  Biso   1.000  N
  N4       1.0000 0.13650  0.90126  0.26368  Biso   1.000  N
  O1       1.0000 0.72200  0.31105  0.13733  Biso   1.000  O
  O2       1.0000 0.87530  0.28689  0.99213  Biso   1.000  O
  O3       1.0000 0.77800  0.13733  0.31105  Biso   1.000  O
  O4       1.0000 0.62470  0.99213  0.28689  Biso   1.000  O
  O5       1.0000 0.27800  0.68895  0.86267  Biso   1.000  O
  O6       1.0000 0.12470  0.71311  0.00787  Biso   1.000  O
  O7       1.0000 0.22200  0.86267  0.68895  Biso   1.000  O
  O8       1.0000 0.37530  0.00787  0.71311  Biso   1.000  O
  F1       1.0000 0.50500  0.10884  0.09052  Biso   1.000  F
  F2       1.0000 0.69140  0.08530  0.92556  Biso   1.000  F
  F3       1.0000 0.99500  0.09052  0.10884  Biso   1.000  F
  F4       1.0000 0.80860  0.92556  0.08530  Biso   1.000  F
  F5       1.0000 0.49500  0.89116  0.90948  Biso   1.000  F
  F6       1.0000 0.30860  0.91470  0.07444  Biso   1.000  F
  F7       1.0000 0.00500  0.90948  0.89116  Biso   1.000  F
  F8       1.0000 0.19140  0.07444  0.91470  Biso   1.000  F
