data_image0
_cell_length_a       7.3585
_cell_length_b       18.7029
_cell_length_c       23.5965
_cell_angle_alpha    90
_cell_angle_beta     90
_cell_angle_gamma    90

_symmetry_space_group_name_H-M    P 1
_symmetry_int_tables_number       1

loop_
  _symmetry_equiv_pos_as_xyz
  'x, y, z'

loop_
  _atom_site_label
  _atom_site_occupancy
  _atom_site_fract_x
  _atom_site_fract_y
  _atom_site_fract_z
  _atom_site_thermal_displace_type
  _atom_site_B_iso_or_equiv
  _atom_site_type_symbol
  Ca1      1.0000 0.50000  0.50000  0.00000  Biso   1.000  Ca
  Ca2      1.0000 0.00000  0.00000  0.00000  Biso   1.000  Ca
  Ca3      1.0000 0.50000  0.50000  0.50000  Biso   1.000  Ca
  Ca4      1.0000 0.00000  0.00000  0.50000  Biso   1.000  Ca
  Zn1      1.0000 0.85800  0.54915  0.91328  Biso   1.000  Zn
  Zn2      1.0000 0.64200  0.04915  0.08672  Biso   1.000  Zn
  Zn3      1.0000 0.14200  0.45085  0.41328  Biso   1.000  Zn
  Zn4      1.0000 0.35800  0.95085  0.58672  Biso   1.000  Zn
  Zn5      1.0000 0.14200  0.45085  0.08672  Biso   1.000  Zn
  Zn6      1.0000 0.35800  0.95085  0.91328  Biso   1.000  Zn
  Zn7      1.0000 0.85800  0.54915  0.58672  Biso   1.000  Zn
  Zn8      1.0000 0.64200  0.04915  0.41328  Biso   1.000  Zn
  H1       1.0000 0.10560  0.59890  0.92150  Biso   1.000  H
  H2       1.0000 0.17750  0.56230  0.87600  Biso   1.000  H
  H3       1.0000 0.77380  0.29680  0.02240  Biso   1.000  H
  H4       1.0000 0.99740  0.33090  0.86980  Biso   1.000  H
  H5       1.0000 0.90570  0.13060  0.92270  Biso   1.000  H
  H6       1.0000 0.92900  0.18840  0.80650  Biso   1.000  H
  H7       1.0000 0.10840  0.23260  0.81360  Biso   1.000  H
  H8       1.0000 0.09720  0.15440  0.83710  Biso   1.000  H
  H9       1.0000 0.20430  0.45500  0.83500  Biso   1.000  H
  H10      1.0000 0.90730  0.44350  0.77520  Biso   1.000  H
  H11      1.0000 0.39440  0.09890  0.07850  Biso   1.000  H
  H12      1.0000 0.32250  0.06230  0.12400  Biso   1.000  H
  H13      1.0000 0.72620  0.79680  0.97760  Biso   1.000  H
  H14      1.0000 0.50260  0.83090  0.13020  Biso   1.000  H
  H15      1.0000 0.59430  0.63060  0.07730  Biso   1.000  H
  H16      1.0000 0.57100  0.68840  0.19350  Biso   1.000  H
  H17      1.0000 0.39160  0.73260  0.18640  Biso   1.000  H
  H18      1.0000 0.40280  0.65440  0.16290  Biso   1.000  H
  H19      1.0000 0.29570  0.95500  0.16500  Biso   1.000  H
  H20      1.0000 0.59270  0.94350  0.22480  Biso   1.000  H
  H21      1.0000 0.89440  0.40110  0.42150  Biso   1.000  H
  H22      1.0000 0.82250  0.43770  0.37600  Biso   1.000  H
  H23      1.0000 0.22620  0.70320  0.52240  Biso   1.000  H
  H24      1.0000 0.00260  0.66910  0.36980  Biso   1.000  H
  H25      1.0000 0.09430  0.86940  0.42270  Biso   1.000  H
  H26      1.0000 0.07100  0.81160  0.30650  Biso   1.000  H
  H27      1.0000 0.89160  0.76740  0.31360  Biso   1.000  H
  H28      1.0000 0.90280  0.84560  0.33710  Biso   1.000  H
  H29      1.0000 0.79570  0.54500  0.33500  Biso   1.000  H
  H30      1.0000 0.09270  0.55650  0.27520  Biso   1.000  H
  H31      1.0000 0.60560  0.90110  0.57850  Biso   1.000  H
  H32      1.0000 0.67750  0.93770  0.62400  Biso   1.000  H
  H33      1.0000 0.27380  0.20320  0.47760  Biso   1.000  H
  H34      1.0000 0.49740  0.16910  0.63020  Biso   1.000  H
  H35      1.0000 0.40570  0.36940  0.57730  Biso   1.000  H
  H36      1.0000 0.42900  0.31160  0.69350  Biso   1.000  H
  H37      1.0000 0.60840  0.26740  0.68640  Biso   1.000  H
  H38      1.0000 0.59720  0.34560  0.66290  Biso   1.000  H
  H39      1.0000 0.70430  0.04500  0.66500  Biso   1.000  H
  H40      1.0000 0.40730  0.05650  0.72480  Biso   1.000  H
  H41      1.0000 0.89440  0.40110  0.07850  Biso   1.000  H
  H42      1.0000 0.82250  0.43770  0.12400  Biso   1.000  H
  H43      1.0000 0.22620  0.70320  0.97760  Biso   1.000  H
  H44      1.0000 0.00260  0.66910  0.13020  Biso   1.000  H
  H45      1.0000 0.09430  0.86940  0.07730  Biso   1.000  H
  H46      1.0000 0.07100  0.81160  0.19350  Biso   1.000  H
  H47      1.0000 0.89160  0.76740  0.18640  Biso   1.000  H
  H48      1.0000 0.90280  0.84560  0.16290  Biso   1.000  H
  H49      1.0000 0.79570  0.54500  0.16500  Biso   1.000  H
  H50      1.0000 0.09270  0.55650  0.22480  Biso   1.000  H
  H51      1.0000 0.60560  0.90110  0.92150  Biso   1.000  H
  H52      1.0000 0.67750  0.93770  0.87600  Biso   1.000  H
  H53      1.0000 0.27380  0.20320  0.02240  Biso   1.000  H
  H54      1.0000 0.49740  0.16910  0.86980  Biso   1.000  H
  H55      1.0000 0.40570  0.36940  0.92270  Biso   1.000  H
  H56      1.0000 0.42900  0.31160  0.80650  Biso   1.000  H
  H57      1.0000 0.60840  0.26740  0.81360  Biso   1.000  H
  H58      1.0000 0.59720  0.34560  0.83710  Biso   1.000  H
  H59      1.0000 0.70430  0.04500  0.83500  Biso   1.000  H
  H60      1.0000 0.40730  0.05650  0.77520  Biso   1.000  H
  H61      1.0000 0.10560  0.59890  0.57850  Biso   1.000  H
  H62      1.0000 0.17750  0.56230  0.62400  Biso   1.000  H
  H63      1.0000 0.77380  0.29680  0.47760  Biso   1.000  H
  H64      1.0000 0.99740  0.33090  0.63020  Biso   1.000  H
  H65      1.0000 0.90570  0.13060  0.57730  Biso   1.000  H
  H66      1.0000 0.92900  0.18840  0.69350  Biso   1.000  H
  H67      1.0000 0.10840  0.23260  0.68640  Biso   1.000  H
  H68      1.0000 0.09720  0.15440  0.66290  Biso   1.000  H
  H69      1.0000 0.20430  0.45500  0.66500  Biso   1.000  H
  H70      1.0000 0.90730  0.44350  0.72480  Biso   1.000  H
  H71      1.0000 0.39440  0.09890  0.42150  Biso   1.000  H
  H72      1.0000 0.32250  0.06230  0.37600  Biso   1.000  H
  H73      1.0000 0.72620  0.79680  0.52240  Biso   1.000  H
  H74      1.0000 0.50260  0.83090  0.36980  Biso   1.000  H
  H75      1.0000 0.59430  0.63060  0.42270  Biso   1.000  H
  H76      1.0000 0.57100  0.68840  0.30650  Biso   1.000  H
  H77      1.0000 0.39160  0.73260  0.31360  Biso   1.000  H
  H78      1.0000 0.40280  0.65440  0.33710  Biso   1.000  H
  H79      1.0000 0.29570  0.95500  0.33500  Biso   1.000  H
  H80      1.0000 0.59270  0.94350  0.27520  Biso   1.000  H
  H81      1.0000 0.63090  0.53430  0.75000  Biso   1.000  H
  H82      1.0000 0.86910  0.03430  0.25000  Biso   1.000  H
  H83      1.0000 0.36910  0.46570  0.25000  Biso   1.000  H
  H84      1.0000 0.13090  0.96570  0.75000  Biso   1.000  H
  C1       1.0000 0.82190  0.27914  0.98873  Biso   1.000  C
  C2       1.0000 0.87930  0.32587  0.94707  Biso   1.000  C
  C3       1.0000 0.95350  0.29920  0.89692  Biso   1.000  C
  C4       1.0000 0.84830  0.40480  0.95424  Biso   1.000  C
  C5       1.0000 0.77170  0.15700  0.02649  Biso   1.000  C
  C6       1.0000 0.83600  0.20552  0.98042  Biso   1.000  C
  C7       1.0000 0.90200  0.17961  0.92902  Biso   1.000  C
  C8       1.0000 0.96260  0.22610  0.88699  Biso   1.000  C
  C9       1.0000 0.03050  0.19780  0.83092  Biso   1.000  C
  C10      1.0000 0.52930  0.51385  0.85533  Biso   1.000  C
  C11      1.0000 0.43260  0.49724  0.80098  Biso   1.000  C
  C12      1.0000 0.26070  0.46570  0.80070  Biso   1.000  C
  C13      1.0000 0.67810  0.77914  0.01127  Biso   1.000  C
  C14      1.0000 0.62070  0.82587  0.05293  Biso   1.000  C
  C15      1.0000 0.54650  0.79920  0.10308  Biso   1.000  C
  C16      1.0000 0.65170  0.90480  0.04576  Biso   1.000  C
  C17      1.0000 0.72830  0.65700  0.97351  Biso   1.000  C
  C18      1.0000 0.66400  0.70552  0.01958  Biso   1.000  C
  C19      1.0000 0.59800  0.67961  0.07098  Biso   1.000  C
  C20      1.0000 0.53740  0.72610  0.11301  Biso   1.000  C
  C21      1.0000 0.46950  0.69780  0.16908  Biso   1.000  C
  C22      1.0000 0.97070  0.01385  0.14467  Biso   1.000  C
  C23      1.0000 0.06740  0.99724  0.19902  Biso   1.000  C
  C24      1.0000 0.23930  0.96570  0.19930  Biso   1.000  C
  C25      1.0000 0.17810  0.72086  0.48873  Biso   1.000  C
  C26      1.0000 0.12070  0.67413  0.44707  Biso   1.000  C
  C27      1.0000 0.04650  0.70080  0.39692  Biso   1.000  C
  C28      1.0000 0.15170  0.59520  0.45424  Biso   1.000  C
  C29      1.0000 0.22830  0.84300  0.52649  Biso   1.000  C
  C30      1.0000 0.16400  0.79448  0.48042  Biso   1.000  C
  C31      1.0000 0.09800  0.82039  0.42902  Biso   1.000  C
  C32      1.0000 0.03740  0.77390  0.38699  Biso   1.000  C
  C33      1.0000 0.96950  0.80220  0.33092  Biso   1.000  C
  C34      1.0000 0.47070  0.48615  0.35533  Biso   1.000  C
  C35      1.0000 0.56740  0.50276  0.30098  Biso   1.000  C
  C36      1.0000 0.73930  0.53430  0.30070  Biso   1.000  C
  C37      1.0000 0.32190  0.22086  0.51127  Biso   1.000  C
  C38      1.0000 0.37930  0.17413  0.55293  Biso   1.000  C
  C39      1.0000 0.45350  0.20080  0.60308  Biso   1.000  C
  C40      1.0000 0.34830  0.09520  0.54576  Biso   1.000  C
  C41      1.0000 0.27170  0.34300  0.47351  Biso   1.000  C
  C42      1.0000 0.33600  0.29448  0.51958  Biso   1.000  C
  C43      1.0000 0.40200  0.32039  0.57098  Biso   1.000  C
  C44      1.0000 0.46260  0.27390  0.61301  Biso   1.000  C
  C45      1.0000 0.53050  0.30220  0.66908  Biso   1.000  C
  C46      1.0000 0.02930  0.98615  0.64467  Biso   1.000  C
  C47      1.0000 0.93260  0.00276  0.69902  Biso   1.000  C
  C48      1.0000 0.76070  0.03430  0.69930  Biso   1.000  C
  C49      1.0000 0.17810  0.72086  0.01127  Biso   1.000  C
  C50      1.0000 0.12070  0.67413  0.05293  Biso   1.000  C
  C51      1.0000 0.04650  0.70080  0.10308  Biso   1.000  C
  C52      1.0000 0.15170  0.59520  0.04576  Biso   1.000  C
  C53      1.0000 0.22830  0.84300  0.97351  Biso   1.000  C
  C54      1.0000 0.16400  0.79448  0.01958  Biso   1.000  C
  C55      1.0000 0.09800  0.82039  0.07098  Biso   1.000  C
  C56      1.0000 0.03740  0.77390  0.11301  Biso   1.000  C
  C57      1.0000 0.96950  0.80220  0.16908  Biso   1.000  C
  C58      1.0000 0.47070  0.48615  0.14467  Biso   1.000  C
  C59      1.0000 0.56740  0.50276  0.19902  Biso   1.000  C
  C60      1.0000 0.73930  0.53430  0.19930  Biso   1.000  C
  C61      1.0000 0.32190  0.22086  0.98873  Biso   1.000  C
  C62      1.0000 0.37930  0.17413  0.94707  Biso   1.000  C
  C63      1.0000 0.45350  0.20080  0.89692  Biso   1.000  C
  C64      1.0000 0.34830  0.09520  0.95424  Biso   1.000  C
  C65      1.0000 0.27170  0.34300  0.02649  Biso   1.000  C
  C66      1.0000 0.33600  0.29448  0.98042  Biso   1.000  C
  C67      1.0000 0.40200  0.32039  0.92902  Biso   1.000  C
  C68      1.0000 0.46260  0.27390  0.88699  Biso   1.000  C
  C69      1.0000 0.53050  0.30220  0.83092  Biso   1.000  C
  C70      1.0000 0.02930  0.98615  0.85533  Biso   1.000  C
  C71      1.0000 0.93260  0.00276  0.80098  Biso   1.000  C
  C72      1.0000 0.76070  0.03430  0.80070  Biso   1.000  C
  C73      1.0000 0.82190  0.27914  0.51127  Biso   1.000  C
  C74      1.0000 0.87930  0.32587  0.55293  Biso   1.000  C
  C75      1.0000 0.95350  0.29920  0.60308  Biso   1.000  C
  C76      1.0000 0.84830  0.40480  0.54576  Biso   1.000  C
  C77      1.0000 0.77170  0.15700  0.47351  Biso   1.000  C
  C78      1.0000 0.83600  0.20552  0.51958  Biso   1.000  C
  C79      1.0000 0.90200  0.17961  0.57098  Biso   1.000  C
  C80      1.0000 0.96260  0.22610  0.61301  Biso   1.000  C
  C81      1.0000 0.03050  0.19780  0.66908  Biso   1.000  C
  C82      1.0000 0.52930  0.51385  0.64467  Biso   1.000  C
  C83      1.0000 0.43260  0.49724  0.69902  Biso   1.000  C
  C84      1.0000 0.26070  0.46570  0.69930  Biso   1.000  C
  C85      1.0000 0.67810  0.77914  0.48873  Biso   1.000  C
  C86      1.0000 0.62070  0.82587  0.44707  Biso   1.000  C
  C87      1.0000 0.54650  0.79920  0.39692  Biso   1.000  C
  C88      1.0000 0.65170  0.90480  0.45424  Biso   1.000  C
  C89      1.0000 0.72830  0.65700  0.52649  Biso   1.000  C
  C90      1.0000 0.66400  0.70552  0.48042  Biso   1.000  C
  C91      1.0000 0.59800  0.67961  0.42902  Biso   1.000  C
  C92      1.0000 0.53740  0.72610  0.38699  Biso   1.000  C
  C93      1.0000 0.46950  0.69780  0.33092  Biso   1.000  C
  C94      1.0000 0.97070  0.01385  0.35533  Biso   1.000  C
  C95      1.0000 0.06740  0.99724  0.30098  Biso   1.000  C
  C96      1.0000 0.23930  0.96570  0.30070  Biso   1.000  C
  C97      1.0000 0.51670  0.51290  0.75000  Biso   1.000  C
  C98      1.0000 0.17170  0.44970  0.75000  Biso   1.000  C
  C99      1.0000 0.98460  0.41710  0.75000  Biso   1.000  C
  C100     1.0000 0.98330  0.01290  0.25000  Biso   1.000  C
  C101     1.0000 0.32830  0.94970  0.25000  Biso   1.000  C
  C102     1.0000 0.51540  0.91710  0.25000  Biso   1.000  C
  C103     1.0000 0.48330  0.48710  0.25000  Biso   1.000  C
  C104     1.0000 0.82830  0.55030  0.25000  Biso   1.000  C
  C105     1.0000 0.01540  0.58290  0.25000  Biso   1.000  C
  C106     1.0000 0.01670  0.98710  0.75000  Biso   1.000  C
  C107     1.0000 0.67170  0.05030  0.75000  Biso   1.000  C
  C108     1.0000 0.48460  0.08290  0.75000  Biso   1.000  C
  O1       1.0000 0.74480  0.42513  0.99269  Biso   1.000  O
  O2       1.0000 0.92610  0.44661  0.91943  Biso   1.000  O
  O3       1.0000 0.77320  0.08850  0.01777  Biso   1.000  O
  O4       1.0000 0.71400  0.18102  0.07176  Biso   1.000  O
  O5       1.0000 0.45510  0.50032  0.90172  Biso   1.000  O
  O6       1.0000 0.68650  0.54102  0.85009  Biso   1.000  O
  O7       1.0000 0.09110  0.58980  0.88614  Biso   1.000  O
  O8       1.0000 0.75520  0.92513  0.00731  Biso   1.000  O
  O9       1.0000 0.57390  0.94661  0.08057  Biso   1.000  O
  O10      1.0000 0.72680  0.58850  0.98223  Biso   1.000  O
  O11      1.0000 0.78600  0.68102  0.92824  Biso   1.000  O
  O12      1.0000 0.04490  0.00032  0.09828  Biso   1.000  O
  O13      1.0000 0.81350  0.04102  0.14991  Biso   1.000  O
  O14      1.0000 0.40890  0.08980  0.11386  Biso   1.000  O
  O15      1.0000 0.25520  0.57487  0.49269  Biso   1.000  O
  O16      1.0000 0.07390  0.55339  0.41943  Biso   1.000  O
  O17      1.0000 0.22680  0.91150  0.51777  Biso   1.000  O
  O18      1.0000 0.28600  0.81898  0.57176  Biso   1.000  O
  O19      1.0000 0.54490  0.49968  0.40172  Biso   1.000  O
  O20      1.0000 0.31350  0.45898  0.35009  Biso   1.000  O
  O21      1.0000 0.90890  0.41020  0.38614  Biso   1.000  O
  O22      1.0000 0.24480  0.07487  0.50731  Biso   1.000  O
  O23      1.0000 0.42610  0.05339  0.58057  Biso   1.000  O
  O24      1.0000 0.27320  0.41150  0.48223  Biso   1.000  O
  O25      1.0000 0.21400  0.31898  0.42824  Biso   1.000  O
  O26      1.0000 0.95510  0.99968  0.59828  Biso   1.000  O
  O27      1.0000 0.18650  0.95898  0.64991  Biso   1.000  O
  O28      1.0000 0.59110  0.91020  0.61386  Biso   1.000  O
  O29      1.0000 0.25520  0.57487  0.00731  Biso   1.000  O
  O30      1.0000 0.07390  0.55339  0.08057  Biso   1.000  O
  O31      1.0000 0.22680  0.91150  0.98223  Biso   1.000  O
  O32      1.0000 0.28600  0.81898  0.92824  Biso   1.000  O
  O33      1.0000 0.54490  0.49968  0.09828  Biso   1.000  O
  O34      1.0000 0.31350  0.45898  0.14991  Biso   1.000  O
  O35      1.0000 0.90890  0.41020  0.11386  Biso   1.000  O
  O36      1.0000 0.24480  0.07487  0.99269  Biso   1.000  O
  O37      1.0000 0.42610  0.05339  0.91943  Biso   1.000  O
  O38      1.0000 0.27320  0.41150  0.01777  Biso   1.000  O
  O39      1.0000 0.21400  0.31898  0.07176  Biso   1.000  O
  O40      1.0000 0.95510  0.99968  0.90172  Biso   1.000  O
  O41      1.0000 0.18650  0.95898  0.85009  Biso   1.000  O
  O42      1.0000 0.59110  0.91020  0.88614  Biso   1.000  O
  O43      1.0000 0.74480  0.42513  0.50731  Biso   1.000  O
  O44      1.0000 0.92610  0.44661  0.58057  Biso   1.000  O
  O45      1.0000 0.77320  0.08850  0.48223  Biso   1.000  O
  O46      1.0000 0.71400  0.18102  0.42824  Biso   1.000  O
  O47      1.0000 0.45510  0.50032  0.59828  Biso   1.000  O
  O48      1.0000 0.68650  0.54102  0.64991  Biso   1.000  O
  O49      1.0000 0.09110  0.58980  0.61386  Biso   1.000  O
  O50      1.0000 0.75520  0.92513  0.49269  Biso   1.000  O
  O51      1.0000 0.57390  0.94661  0.41943  Biso   1.000  O
  O52      1.0000 0.72680  0.58850  0.51777  Biso   1.000  O
  O53      1.0000 0.78600  0.68102  0.57176  Biso   1.000  O
  O54      1.0000 0.04490  0.00032  0.40172  Biso   1.000  O
  O55      1.0000 0.81350  0.04102  0.35009  Biso   1.000  O
  O56      1.0000 0.40890  0.08980  0.38614  Biso   1.000  O
