data_image0
_cell_length_a       9.4417
_cell_length_b       13.7005
_cell_length_c       15.6523
_cell_angle_alpha    90
_cell_angle_beta     90
_cell_angle_gamma    90

_symmetry_space_group_name_H-M    P 1
_symmetry_int_tables_number       1

loop_
  _symmetry_equiv_pos_as_xyz
  'x, y, z'

loop_
  _atom_site_label
  _atom_site_occupancy
  _atom_site_fract_x
  _atom_site_fract_y
  _atom_site_fract_z
  _atom_site_thermal_displace_type
  _atom_site_B_iso_or_equiv
  _atom_site_type_symbol
  Cd1      1.0000 0.60374  0.86779  0.50267  Biso   1.000  Cd
  Cd2      1.0000 0.86587  0.99871  0.38738  Biso   1.000  Cd
  Cd3      1.0000 0.79141  0.73167  0.77736  Biso   1.000  Cd
  Cd4      1.0000 0.60374  0.13221  0.49733  Biso   1.000  Cd
  Cd5      1.0000 0.86587  0.00129  0.61262  Biso   1.000  Cd
  Cd6      1.0000 0.79141  0.26833  0.22264  Biso   1.000  Cd
  Cd7      1.0000 0.39626  0.63221  0.00267  Biso   1.000  Cd
  Cd8      1.0000 0.13413  0.50129  0.88738  Biso   1.000  Cd
  Cd9      1.0000 0.20859  0.76833  0.27736  Biso   1.000  Cd
  Cd10     1.0000 0.39626  0.36779  0.99733  Biso   1.000  Cd
  Cd11     1.0000 0.13413  0.49871  0.11262  Biso   1.000  Cd
  Cd12     1.0000 0.20859  0.23167  0.72264  Biso   1.000  Cd
  H1       1.0000 0.66600  0.68100  0.45000  Biso   1.000  H
  H2       1.0000 0.80900  0.91100  0.24300  Biso   1.000  H
  H3       1.0000 0.10800  0.06500  0.31260  Biso   1.000  H
  H4       1.0000 0.13800  0.04000  0.39400  Biso   1.000  H
  H5       1.0000 0.89150  0.65630  0.49080  Biso   1.000  H
  H6       1.0000 0.00670  0.80800  0.53780  Biso   1.000  H
  H7       1.0000 0.56640  0.96350  0.20180  Biso   1.000  H
  H8       1.0000 0.47470  0.05070  0.32870  Biso   1.000  H
  H9       1.0000 0.66600  0.31900  0.55000  Biso   1.000  H
  H10      1.0000 0.80900  0.08900  0.75700  Biso   1.000  H
  H11      1.0000 0.10800  0.93500  0.68740  Biso   1.000  H
  H12      1.0000 0.13800  0.96000  0.60600  Biso   1.000  H
  H13      1.0000 0.89150  0.34370  0.50920  Biso   1.000  H
  H14      1.0000 0.00670  0.19200  0.46220  Biso   1.000  H
  H15      1.0000 0.56640  0.03650  0.79820  Biso   1.000  H
  H16      1.0000 0.47470  0.94930  0.67130  Biso   1.000  H
  H17      1.0000 0.33400  0.81900  0.95000  Biso   1.000  H
  H18      1.0000 0.19100  0.58900  0.74300  Biso   1.000  H
  H19      1.0000 0.89200  0.43500  0.81260  Biso   1.000  H
  H20      1.0000 0.86200  0.46000  0.89400  Biso   1.000  H
  H21      1.0000 0.10850  0.84370  0.99080  Biso   1.000  H
  H22      1.0000 0.99330  0.69200  0.03780  Biso   1.000  H
  H23      1.0000 0.43360  0.53650  0.70180  Biso   1.000  H
  H24      1.0000 0.52530  0.44930  0.82870  Biso   1.000  H
  H25      1.0000 0.33400  0.18100  0.05000  Biso   1.000  H
  H26      1.0000 0.19100  0.41100  0.25700  Biso   1.000  H
  H27      1.0000 0.89200  0.56500  0.18740  Biso   1.000  H
  H28      1.0000 0.86200  0.54000  0.10600  Biso   1.000  H
  H29      1.0000 0.10850  0.15630  0.00920  Biso   1.000  H
  H30      1.0000 0.99330  0.30800  0.96220  Biso   1.000  H
  H31      1.0000 0.43360  0.46350  0.29820  Biso   1.000  H
  H32      1.0000 0.52530  0.55070  0.17130  Biso   1.000  H
  C1       1.0000 0.78820  0.72070  0.59550  Biso   1.000  C
  C2       1.0000 0.83810  0.71780  0.50270  Biso   1.000  C
  C3       1.0000 0.93480  0.80830  0.49080  Biso   1.000  C
  C4       1.0000 0.01250  0.79950  0.40690  Biso   1.000  C
  C5       1.0000 0.69590  0.08080  0.23910  Biso   1.000  C
  C6       1.0000 0.62600  0.98150  0.25220  Biso   1.000  C
  C7       1.0000 0.53400  0.99060  0.33430  Biso   1.000  C
  C8       1.0000 0.43480  0.90350  0.33750  Biso   1.000  C
  C9       1.0000 0.78820  0.27930  0.40450  Biso   1.000  C
  C10      1.0000 0.83810  0.28220  0.49730  Biso   1.000  C
  C11      1.0000 0.93480  0.19170  0.50920  Biso   1.000  C
  C12      1.0000 0.01250  0.20050  0.59310  Biso   1.000  C
  C13      1.0000 0.69590  0.91920  0.76090  Biso   1.000  C
  C14      1.0000 0.62600  0.01850  0.74780  Biso   1.000  C
  C15      1.0000 0.53400  0.00940  0.66570  Biso   1.000  C
  C16      1.0000 0.43480  0.09650  0.66250  Biso   1.000  C
  C17      1.0000 0.21180  0.77930  0.09550  Biso   1.000  C
  C18      1.0000 0.16190  0.78220  0.00270  Biso   1.000  C
  C19      1.0000 0.06520  0.69170  0.99080  Biso   1.000  C
  C20      1.0000 0.98750  0.70050  0.90690  Biso   1.000  C
  C21      1.0000 0.30410  0.41920  0.73910  Biso   1.000  C
  C22      1.0000 0.37400  0.51850  0.75220  Biso   1.000  C
  C23      1.0000 0.46600  0.50940  0.83430  Biso   1.000  C
  C24      1.0000 0.56520  0.59650  0.83750  Biso   1.000  C
  C25      1.0000 0.21180  0.22070  0.90450  Biso   1.000  C
  C26      1.0000 0.16190  0.21780  0.99730  Biso   1.000  C
  C27      1.0000 0.06520  0.30830  0.00920  Biso   1.000  C
  C28      1.0000 0.98750  0.29950  0.09310  Biso   1.000  C
  C29      1.0000 0.30410  0.58080  0.26090  Biso   1.000  C
  C30      1.0000 0.37400  0.48150  0.24780  Biso   1.000  C
  C31      1.0000 0.46600  0.49060  0.16570  Biso   1.000  C
  C32      1.0000 0.56520  0.40350  0.16250  Biso   1.000  C
  O1       1.0000 0.67490  0.76030  0.61410  Biso   1.000  O
  O2       1.0000 0.87610  0.68960  0.65150  Biso   1.000  O
  O3       1.0000 0.72360  0.72810  0.44570  Biso   1.000  O
  O4       1.0000 0.85380  0.89260  0.49890  Biso   1.000  O
  O5       1.0000 0.00360  0.86440  0.35030  Biso   1.000  O
  O6       1.0000 0.09170  0.72500  0.39640  Biso   1.000  O
  O7       1.0000 0.81810  0.09560  0.26920  Biso   1.000  O
  O8       1.0000 0.62680  0.14550  0.20000  Biso   1.000  O
  O9       1.0000 0.72960  0.90850  0.26900  Biso   1.000  O
  O10      1.0000 0.61680  0.00080  0.40660  Biso   1.000  O
  O11      1.0000 0.44170  0.84210  0.39650  Biso   1.000  O
  O12      1.0000 0.34490  0.89930  0.27750  Biso   1.000  O
  O13      1.0000 0.08040  0.07270  0.36380  Biso   1.000  O
  O14      1.0000 0.67490  0.23970  0.38590  Biso   1.000  O
  O15      1.0000 0.87610  0.31040  0.34850  Biso   1.000  O
  O16      1.0000 0.72360  0.27190  0.55430  Biso   1.000  O
  O17      1.0000 0.85380  0.10740  0.50110  Biso   1.000  O
  O18      1.0000 0.00360  0.13560  0.64970  Biso   1.000  O
  O19      1.0000 0.09170  0.27500  0.60360  Biso   1.000  O
  O20      1.0000 0.81810  0.90440  0.73080  Biso   1.000  O
  O21      1.0000 0.62680  0.85450  0.80000  Biso   1.000  O
  O22      1.0000 0.72960  0.09150  0.73100  Biso   1.000  O
  O23      1.0000 0.61680  0.99920  0.59340  Biso   1.000  O
  O24      1.0000 0.44170  0.15790  0.60350  Biso   1.000  O
  O25      1.0000 0.34490  0.10070  0.72250  Biso   1.000  O
  O26      1.0000 0.08040  0.92730  0.63620  Biso   1.000  O
  O27      1.0000 0.32510  0.73970  0.11410  Biso   1.000  O
  O28      1.0000 0.12390  0.81040  0.15150  Biso   1.000  O
  O29      1.0000 0.27640  0.77190  0.94570  Biso   1.000  O
  O30      1.0000 0.14620  0.60740  0.99890  Biso   1.000  O
  O31      1.0000 0.99640  0.63560  0.85030  Biso   1.000  O
  O32      1.0000 0.90830  0.77500  0.89640  Biso   1.000  O
  O33      1.0000 0.18190  0.40440  0.76920  Biso   1.000  O
  O34      1.0000 0.37320  0.35450  0.70000  Biso   1.000  O
  O35      1.0000 0.27040  0.59150  0.76900  Biso   1.000  O
  O36      1.0000 0.38320  0.49920  0.90660  Biso   1.000  O
  O37      1.0000 0.55830  0.65790  0.89650  Biso   1.000  O
  O38      1.0000 0.65510  0.60070  0.77750  Biso   1.000  O
  O39      1.0000 0.91960  0.42730  0.86380  Biso   1.000  O
  O40      1.0000 0.32510  0.26030  0.88590  Biso   1.000  O
  O41      1.0000 0.12390  0.18960  0.84850  Biso   1.000  O
  O42      1.0000 0.27640  0.22810  0.05430  Biso   1.000  O
  O43      1.0000 0.14620  0.39260  0.00110  Biso   1.000  O
  O44      1.0000 0.99640  0.36440  0.14970  Biso   1.000  O
  O45      1.0000 0.90830  0.22500  0.10360  Biso   1.000  O
  O46      1.0000 0.18190  0.59560  0.23080  Biso   1.000  O
  O47      1.0000 0.37320  0.64550  0.30000  Biso   1.000  O
  O48      1.0000 0.27040  0.40850  0.23100  Biso   1.000  O
  O49      1.0000 0.38320  0.50080  0.09340  Biso   1.000  O
  O50      1.0000 0.55830  0.34210  0.10350  Biso   1.000  O
  O51      1.0000 0.65510  0.39930  0.22250  Biso   1.000  O
  O52      1.0000 0.91960  0.57270  0.13620  Biso   1.000  O
