data_image0
_cell_length_a       18.4666
_cell_length_b       19.6976
_cell_length_c       23.031
_cell_angle_alpha    115.174
_cell_angle_beta     90
_cell_angle_gamma    117.953

_symmetry_space_group_name_H-M    P 1
_symmetry_int_tables_number       1

loop_
  _symmetry_equiv_pos_as_xyz
  'x, y, z'

loop_
  _atom_site_label
  _atom_site_occupancy
  _atom_site_fract_x
  _atom_site_fract_y
  _atom_site_fract_z
  _atom_site_thermal_displace_type
  _atom_site_B_iso_or_equiv
  _atom_site_type_symbol
  Cd1      1.0000 0.32075  0.42034  0.30573  Biso   1.000  Cd
  Cd2      1.0000 0.73104  0.35282  0.03547  Biso   1.000  Cd
  Cd3      1.0000 0.19886  0.64164  0.82219  Biso   1.000  Cd
  Cd4      1.0000 0.90041  0.57966  0.19427  Biso   1.000  Cd
  Cd5      1.0000 0.37822  0.64718  0.46453  Biso   1.000  Cd
  Cd6      1.0000 0.55722  0.35836  0.67781  Biso   1.000  Cd
  Cd7      1.0000 0.67925  0.57966  0.69427  Biso   1.000  Cd
  Cd8      1.0000 0.26896  0.64718  0.96453  Biso   1.000  Cd
  Cd9      1.0000 0.80114  0.35836  0.17781  Biso   1.000  Cd
  Cd10     1.0000 0.09959  0.42034  0.80573  Biso   1.000  Cd
  Cd11     1.0000 0.62178  0.35282  0.53547  Biso   1.000  Cd
  Cd12     1.0000 0.44278  0.64164  0.32219  Biso   1.000  Cd
  H1       1.0000 0.22130  0.14580  0.09160  Biso   1.000  H
  H2       1.0000 0.15630  0.99380  0.02710  Biso   1.000  H
  H3       1.0000 0.10900  0.97080  0.19090  Biso   1.000  H
  H4       1.0000 0.17580  0.12100  0.25330  Biso   1.000  H
  H5       1.0000 0.94020  0.48920  0.95010  Biso   1.000  H
  H6       1.0000 0.11260  0.73460  0.98930  Biso   1.000  H
  H7       1.0000 0.94300  0.69560  0.09870  Biso   1.000  H
  H8       1.0000 0.53150  0.08720  0.45890  Biso   1.000  H
  H9       1.0000 0.44540  0.93980  0.38310  Biso   1.000  H
  H10      1.0000 0.25890  0.93060  0.47220  Biso   1.000  H
  H11      1.0000 0.34420  0.07580  0.54630  Biso   1.000  H
  H12      1.0000 0.07710  0.44060  0.26290  Biso   1.000  H
  H13      1.0000 0.06080  0.65620  0.31730  Biso   1.000  H
  H14      1.0000 0.28510  0.68040  0.36510  Biso   1.000  H
  H15      1.0000 0.72900  0.07220  0.78510  Biso   1.000  H
  H16      1.0000 0.72800  0.09220  0.85870  Biso   1.000  H
  H17      1.0000 0.66020  0.09040  0.81610  Biso   1.000  H
  H18      1.0000 0.83190  0.17520  0.77520  Biso   1.000  H
  H19      1.0000 0.83170  0.26240  0.79870  Biso   1.000  H
  H20      1.0000 0.89290  0.25820  0.84250  Biso   1.000  H
  H21      1.0000 0.33710  0.20580  0.96730  Biso   1.000  H
  H22      1.0000 0.37850  0.15280  0.92700  Biso   1.000  H
  H23      1.0000 0.38380  0.17880  0.00220  Biso   1.000  H
  H24      1.0000 0.53300  0.40680  0.01900  Biso   1.000  H
  H25      1.0000 0.43930  0.36500  0.98230  Biso   1.000  H
  H26      1.0000 0.46020  0.38240  0.05510  Biso   1.000  H
  H27      1.0000 0.41180  0.57800  0.63960  Biso   1.000  H
  H28      1.0000 0.41790  0.63980  0.71280  Biso   1.000  H
  H29      1.0000 0.37030  0.63520  0.65350  Biso   1.000  H
  H30      1.0000 0.31860  0.43340  0.60480  Biso   1.000  H
  H31      1.0000 0.22380  0.40820  0.59880  Biso   1.000  H
  H32      1.0000 0.27330  0.41600  0.65890  Biso   1.000  H
  H33      1.0000 0.07550  0.85420  0.40840  Biso   1.000  H
  H34      1.0000 0.16250  0.00620  0.47290  Biso   1.000  H
  H35      1.0000 0.13820  0.02920  0.30910  Biso   1.000  H
  H36      1.0000 0.05480  0.87900  0.24670  Biso   1.000  H
  H37      1.0000 0.45100  0.51080  0.54990  Biso   1.000  H
  H38      1.0000 0.37800  0.26540  0.51070  Biso   1.000  H
  H39      1.0000 0.24740  0.30440  0.40130  Biso   1.000  H
  H40      1.0000 0.44430  0.91280  0.04110  Biso   1.000  H
  H41      1.0000 0.50560  0.06020  0.11690  Biso   1.000  H
  H42      1.0000 0.32830  0.06940  0.02780  Biso   1.000  H
  H43      1.0000 0.26840  0.92420  0.95370  Biso   1.000  H
  H44      1.0000 0.63650  0.55940  0.23710  Biso   1.000  H
  H45      1.0000 0.40460  0.34380  0.18270  Biso   1.000  H
  H46      1.0000 0.60470  0.31960  0.13490  Biso   1.000  H
  H47      1.0000 0.65680  0.92780  0.71490  Biso   1.000  H
  H48      1.0000 0.63580  0.90780  0.64130  Biso   1.000  H
  H49      1.0000 0.56980  0.90960  0.68390  Biso   1.000  H
  H50      1.0000 0.65670  0.82480  0.72480  Biso   1.000  H
  H51      1.0000 0.56930  0.73760  0.70130  Biso   1.000  H
  H52      1.0000 0.63470  0.74180  0.65750  Biso   1.000  H
  H53      1.0000 0.13130  0.79420  0.53270  Biso   1.000  H
  H54      1.0000 0.22570  0.84720  0.57300  Biso   1.000  H
  H55      1.0000 0.20500  0.82120  0.49780  Biso   1.000  H
  H56      1.0000 0.12620  0.59320  0.48100  Biso   1.000  H
  H57      1.0000 0.07430  0.63500  0.51770  Biso   1.000  H
  H58      1.0000 0.07780  0.61760  0.44490  Biso   1.000  H
  H59      1.0000 0.83380  0.42200  0.86040  Biso   1.000  H
  H60      1.0000 0.77810  0.36020  0.78720  Biso   1.000  H
  H61      1.0000 0.73510  0.36480  0.84650  Biso   1.000  H
  H62      1.0000 0.88520  0.56660  0.89520  Biso   1.000  H
  H63      1.0000 0.81560  0.59180  0.90120  Biso   1.000  H
  H64      1.0000 0.85730  0.58400  0.84110  Biso   1.000  H
  H65      1.0000 0.77870  0.85420  0.90840  Biso   1.000  H
  H66      1.0000 0.84370  0.00620  0.97290  Biso   1.000  H
  H67      1.0000 0.89100  0.02920  0.80910  Biso   1.000  H
  H68      1.0000 0.82420  0.87900  0.74670  Biso   1.000  H
  H69      1.0000 0.05980  0.51080  0.04990  Biso   1.000  H
  H70      1.0000 0.88740  0.26540  0.01070  Biso   1.000  H
  H71      1.0000 0.05700  0.30440  0.90130  Biso   1.000  H
  H72      1.0000 0.46850  0.91280  0.54110  Biso   1.000  H
  H73      1.0000 0.55460  0.06020  0.61690  Biso   1.000  H
  H74      1.0000 0.74110  0.06940  0.52780  Biso   1.000  H
  H75      1.0000 0.65580  0.92420  0.45370  Biso   1.000  H
  H76      1.0000 0.92290  0.55940  0.73710  Biso   1.000  H
  H77      1.0000 0.93920  0.34380  0.68270  Biso   1.000  H
  H78      1.0000 0.71490  0.31960  0.63490  Biso   1.000  H
  H79      1.0000 0.27100  0.92780  0.21490  Biso   1.000  H
  H80      1.0000 0.27200  0.90780  0.14130  Biso   1.000  H
  H81      1.0000 0.33980  0.90960  0.18390  Biso   1.000  H
  H82      1.0000 0.16810  0.82480  0.22480  Biso   1.000  H
  H83      1.0000 0.16830  0.73760  0.20130  Biso   1.000  H
  H84      1.0000 0.10710  0.74180  0.15750  Biso   1.000  H
  H85      1.0000 0.66290  0.79420  0.03270  Biso   1.000  H
  H86      1.0000 0.62150  0.84720  0.07300  Biso   1.000  H
  H87      1.0000 0.61620  0.82120  0.99780  Biso   1.000  H
  H88      1.0000 0.46700  0.59320  0.98100  Biso   1.000  H
  H89      1.0000 0.56070  0.63500  0.01770  Biso   1.000  H
  H90      1.0000 0.53980  0.61760  0.94490  Biso   1.000  H
  H91      1.0000 0.58820  0.42200  0.36040  Biso   1.000  H
  H92      1.0000 0.58210  0.36020  0.28720  Biso   1.000  H
  H93      1.0000 0.62970  0.36480  0.34650  Biso   1.000  H
  H94      1.0000 0.68140  0.56660  0.39520  Biso   1.000  H
  H95      1.0000 0.77620  0.59180  0.40120  Biso   1.000  H
  H96      1.0000 0.72670  0.58400  0.34110  Biso   1.000  H
  H97      1.0000 0.92450  0.14580  0.59160  Biso   1.000  H
  H98      1.0000 0.83750  0.99380  0.52710  Biso   1.000  H
  H99      1.0000 0.86180  0.97080  0.69090  Biso   1.000  H
  H100     1.0000 0.94520  0.12100  0.75330  Biso   1.000  H
  H101     1.0000 0.54900  0.48920  0.45010  Biso   1.000  H
  H102     1.0000 0.62200  0.73460  0.48930  Biso   1.000  H
  H103     1.0000 0.75260  0.69560  0.59870  Biso   1.000  H
  H104     1.0000 0.55570  0.08720  0.95890  Biso   1.000  H
  H105     1.0000 0.49440  0.93980  0.88310  Biso   1.000  H
  H106     1.0000 0.67170  0.93060  0.97220  Biso   1.000  H
  H107     1.0000 0.73160  0.07580  0.04630  Biso   1.000  H
  H108     1.0000 0.36350  0.44060  0.76290  Biso   1.000  H
  H109     1.0000 0.59540  0.65620  0.81730  Biso   1.000  H
  H110     1.0000 0.39530  0.68040  0.86510  Biso   1.000  H
  H111     1.0000 0.34320  0.07220  0.28510  Biso   1.000  H
  H112     1.0000 0.36420  0.09220  0.35870  Biso   1.000  H
  H113     1.0000 0.43020  0.09040  0.31610  Biso   1.000  H
  H114     1.0000 0.34330  0.17520  0.27520  Biso   1.000  H
  H115     1.0000 0.43070  0.26240  0.29870  Biso   1.000  H
  H116     1.0000 0.36530  0.25820  0.34250  Biso   1.000  H
  H117     1.0000 0.86870  0.20580  0.46730  Biso   1.000  H
  H118     1.0000 0.77430  0.15280  0.42700  Biso   1.000  H
  H119     1.0000 0.79500  0.17880  0.50220  Biso   1.000  H
  H120     1.0000 0.87380  0.40680  0.51900  Biso   1.000  H
  H121     1.0000 0.92570  0.36500  0.48230  Biso   1.000  H
  H122     1.0000 0.92220  0.38240  0.55510  Biso   1.000  H
  H123     1.0000 0.16620  0.57800  0.13960  Biso   1.000  H
  H124     1.0000 0.22190  0.63980  0.21280  Biso   1.000  H
  H125     1.0000 0.26490  0.63520  0.15350  Biso   1.000  H
  H126     1.0000 0.11480  0.43340  0.10480  Biso   1.000  H
  H127     1.0000 0.18440  0.40820  0.09880  Biso   1.000  H
  H128     1.0000 0.14270  0.41600  0.15890  Biso   1.000  H
  C1       1.0000 0.24660  0.24640  0.22140  Biso   1.000  C
  C2       1.0000 0.20530  0.14800  0.17820  Biso   1.000  C
  C3       1.0000 0.19960  0.11040  0.11150  Biso   1.000  C
  C4       1.0000 0.16160  0.01920  0.07270  Biso   1.000  C
  C5       1.0000 0.13170  0.96720  0.10380  Biso   1.000  C
  C6       1.0000 0.13370  0.00580  0.17100  Biso   1.000  C
  C7       1.0000 0.17210  0.09540  0.20790  Biso   1.000  C
  C8       1.0000 0.09250  0.87160  0.06300  Biso   1.000  C
  C9       1.0000 0.85526  0.52152  0.04120  Biso   1.000  C
  C10      1.0000 0.92849  0.58198  0.02570  Biso   1.000  C
  C11      1.0000 0.96330  0.54940  0.97510  Biso   1.000  C
  C12      1.0000 0.03251  0.60602  0.96170  Biso   1.000  C
  C13      1.0000 0.06651  0.69662  0.99830  Biso   1.000  C
  C14      1.0000 0.03150  0.72940  0.04790  Biso   1.000  C
  C15      1.0000 0.96417  0.67294  0.06340  Biso   1.000  C
  C16      1.0000 0.07391  0.57062  0.91030  Biso   1.000  C
  C17      1.0000 0.50340  0.18920  0.56310  Biso   1.000  C
  C18      1.0000 0.44740  0.09600  0.51100  Biso   1.000  C
  C19      1.0000 0.47660  0.05560  0.46210  Biso   1.000  C
  C20      1.0000 0.42490  0.96700  0.41670  Biso   1.000  C
  C21      1.0000 0.34380  0.91920  0.42090  Biso   1.000  C
  C22      1.0000 0.31400  0.96120  0.46940  Biso   1.000  C
  C23      1.0000 0.36530  0.04820  0.51360  Biso   1.000  C
  C24      1.0000 0.29320  0.82300  0.37630  Biso   1.000  C
  C25      1.0000 0.23988  0.51356  0.31380  Biso   1.000  C
  C26      1.0000 0.18985  0.55510  0.31420  Biso   1.000  C
  C27      1.0000 0.10282  0.50124  0.28360  Biso   1.000  C
  C28      1.0000 0.05515  0.53990  0.28460  Biso   1.000  C
  C29      1.0000 0.09278  0.63076  0.31610  Biso   1.000  C
  C30      1.0000 0.18050  0.68360  0.34610  Biso   1.000  C
  C31      1.0000 0.22741  0.64502  0.34490  Biso   1.000  C
  C32      1.0000 0.96217  0.48034  0.25140  Biso   1.000  C
  C33      1.0000 0.77150  0.26220  0.90570  Biso   1.000  C
  C34      1.0000 0.71800  0.10540  0.82500  Biso   1.000  C
  C35      1.0000 0.83790  0.22580  0.81310  Biso   1.000  C
  C36      1.0000 0.53900  0.27580  0.99270  Biso   1.000  C
  C37      1.0000 0.38390  0.19720  0.96950  Biso   1.000  C
  C38      1.0000 0.47480  0.36560  0.01320  Biso   1.000  C
  C39      1.0000 0.25040  0.55280  0.70550  Biso   1.000  C
  C40      1.0000 0.38270  0.60200  0.66830  Biso   1.000  C
  C41      1.0000 0.27790  0.43960  0.62920  Biso   1.000  C
  C42      1.0000 0.00020  0.75360  0.27860  Biso   1.000  C
  C43      1.0000 0.05730  0.85200  0.32180  Biso   1.000  C
  C44      1.0000 0.08920  0.88960  0.38850  Biso   1.000  C
  C45      1.0000 0.14240  0.98080  0.42730  Biso   1.000  C
  C46      1.0000 0.16450  0.03280  0.39620  Biso   1.000  C
  C47      1.0000 0.12790  0.99420  0.32900  Biso   1.000  C
  C48      1.0000 0.07670  0.90460  0.29210  Biso   1.000  C
  C49      1.0000 0.22090  0.12840  0.43700  Biso   1.000  C
  C50      1.0000 0.33374  0.47848  0.45880  Biso   1.000  C
  C51      1.0000 0.34651  0.41802  0.47430  Biso   1.000  C
  C52      1.0000 0.41390  0.45060  0.52490  Biso   1.000  C
  C53      1.0000 0.42649  0.39398  0.53830  Biso   1.000  C
  C54      1.0000 0.36989  0.30338  0.50170  Biso   1.000  C
  C55      1.0000 0.30210  0.27060  0.45210  Biso   1.000  C
  C56      1.0000 0.29123  0.32706  0.43660  Biso   1.000  C
  C57      1.0000 0.50329  0.42938  0.58970  Biso   1.000  C
  C58      1.0000 0.31420  0.81080  0.93690  Biso   1.000  C
  C59      1.0000 0.35140  0.90400  0.98900  Biso   1.000  C
  C60      1.0000 0.42100  0.94440  0.03790  Biso   1.000  C
  C61      1.0000 0.45790  0.03300  0.08330  Biso   1.000  C
  C62      1.0000 0.42460  0.08080  0.07910  Biso   1.000  C
  C63      1.0000 0.35280  0.03880  0.03060  Biso   1.000  C
  C64      1.0000 0.31710  0.95180  0.98640  Biso   1.000  C
  C65      1.0000 0.47020  0.17700  0.12370  Biso   1.000  C
  C66      1.0000 0.72632  0.48644  0.18620  Biso   1.000  C
  C67      1.0000 0.63475  0.44490  0.18580  Biso   1.000  C
  C68      1.0000 0.60158  0.49876  0.21640  Biso   1.000  C
  C69      1.0000 0.51525  0.46010  0.21540  Biso   1.000  C
  C70      1.0000 0.46202  0.36924  0.18390  Biso   1.000  C
  C71      1.0000 0.49690  0.31640  0.15390  Biso   1.000  C
  C72      1.0000 0.58239  0.35498  0.15510  Biso   1.000  C
  C73      1.0000 0.48183  0.51966  0.24860  Biso   1.000  C
  C74      1.0000 0.50930  0.73780  0.59430  Biso   1.000  C
  C75      1.0000 0.61260  0.89460  0.67500  Biso   1.000  C
  C76      1.0000 0.61210  0.77420  0.68690  Biso   1.000  C
  C77      1.0000 0.26320  0.72420  0.50730  Biso   1.000  C
  C78      1.0000 0.18670  0.80280  0.53050  Biso   1.000  C
  C79      1.0000 0.10920  0.63440  0.48680  Biso   1.000  C
  C80      1.0000 0.69760  0.44720  0.79450  Biso   1.000  C
  C81      1.0000 0.78070  0.39800  0.83170  Biso   1.000  C
  C82      1.0000 0.83830  0.56040  0.87080  Biso   1.000  C
  C83      1.0000 0.75340  0.75360  0.77860  Biso   1.000  C
  C84      1.0000 0.79470  0.85200  0.82180  Biso   1.000  C
  C85      1.0000 0.80040  0.88960  0.88850  Biso   1.000  C
  C86      1.0000 0.83840  0.98080  0.92730  Biso   1.000  C
  C87      1.0000 0.86830  0.03280  0.89620  Biso   1.000  C
  C88      1.0000 0.86630  0.99420  0.82900  Biso   1.000  C
  C89      1.0000 0.82790  0.90460  0.79210  Biso   1.000  C
  C90      1.0000 0.90750  0.12840  0.93700  Biso   1.000  C
  C91      1.0000 0.14474  0.47848  0.95880  Biso   1.000  C
  C92      1.0000 0.07151  0.41802  0.97430  Biso   1.000  C
  C93      1.0000 0.03670  0.45060  0.02490  Biso   1.000  C
  C94      1.0000 0.96749  0.39398  0.03830  Biso   1.000  C
  C95      1.0000 0.93349  0.30338  0.00170  Biso   1.000  C
  C96      1.0000 0.96850  0.27060  0.95210  Biso   1.000  C
  C97      1.0000 0.03583  0.32706  0.93660  Biso   1.000  C
  C98      1.0000 0.92609  0.42938  0.08970  Biso   1.000  C
  C99      1.0000 0.49660  0.81080  0.43690  Biso   1.000  C
  C100     1.0000 0.55260  0.90400  0.48900  Biso   1.000  C
  C101     1.0000 0.52340  0.94440  0.53790  Biso   1.000  C
  C102     1.0000 0.57510  0.03300  0.58330  Biso   1.000  C
  C103     1.0000 0.65620  0.08080  0.57910  Biso   1.000  C
  C104     1.0000 0.68600  0.03880  0.53060  Biso   1.000  C
  C105     1.0000 0.63470  0.95180  0.48640  Biso   1.000  C
  C106     1.0000 0.70680  0.17700  0.62370  Biso   1.000  C
  C107     1.0000 0.76012  0.48644  0.68620  Biso   1.000  C
  C108     1.0000 0.81015  0.44490  0.68580  Biso   1.000  C
  C109     1.0000 0.89718  0.49876  0.71640  Biso   1.000  C
  C110     1.0000 0.94485  0.46010  0.71540  Biso   1.000  C
  C111     1.0000 0.90722  0.36924  0.68390  Biso   1.000  C
  C112     1.0000 0.81950  0.31640  0.65390  Biso   1.000  C
  C113     1.0000 0.77259  0.35498  0.65510  Biso   1.000  C
  C114     1.0000 0.03783  0.51966  0.74860  Biso   1.000  C
  C115     1.0000 0.22850  0.73780  0.09430  Biso   1.000  C
  C116     1.0000 0.28200  0.89460  0.17500  Biso   1.000  C
  C117     1.0000 0.16210  0.77420  0.18690  Biso   1.000  C
  C118     1.0000 0.46100  0.72420  0.00730  Biso   1.000  C
  C119     1.0000 0.61610  0.80280  0.03050  Biso   1.000  C
  C120     1.0000 0.52520  0.63440  0.98680  Biso   1.000  C
  C121     1.0000 0.74960  0.44720  0.29450  Biso   1.000  C
  C122     1.0000 0.61730  0.39800  0.33170  Biso   1.000  C
  C123     1.0000 0.72210  0.56040  0.37080  Biso   1.000  C
  C124     1.0000 0.99980  0.24640  0.72140  Biso   1.000  C
  C125     1.0000 0.94270  0.14800  0.67820  Biso   1.000  C
  C126     1.0000 0.91080  0.11040  0.61150  Biso   1.000  C
  C127     1.0000 0.85760  0.01920  0.57270  Biso   1.000  C
  C128     1.0000 0.83550  0.96720  0.60380  Biso   1.000  C
  C129     1.0000 0.87210  0.00580  0.67100  Biso   1.000  C
  C130     1.0000 0.92330  0.09540  0.70790  Biso   1.000  C
  C131     1.0000 0.77910  0.87160  0.56300  Biso   1.000  C
  C132     1.0000 0.66626  0.52152  0.54120  Biso   1.000  C
  C133     1.0000 0.65349  0.58198  0.52570  Biso   1.000  C
  C134     1.0000 0.58610  0.54940  0.47510  Biso   1.000  C
  C135     1.0000 0.57351  0.60602  0.46170  Biso   1.000  C
  C136     1.0000 0.63011  0.69662  0.49830  Biso   1.000  C
  C137     1.0000 0.69790  0.72940  0.54790  Biso   1.000  C
  C138     1.0000 0.70877  0.67294  0.56340  Biso   1.000  C
  C139     1.0000 0.49671  0.57062  0.41030  Biso   1.000  C
  C140     1.0000 0.68580  0.18920  0.06310  Biso   1.000  C
  C141     1.0000 0.64860  0.09600  0.01100  Biso   1.000  C
  C142     1.0000 0.57900  0.05560  0.96210  Biso   1.000  C
  C143     1.0000 0.54210  0.96700  0.91670  Biso   1.000  C
  C144     1.0000 0.57540  0.91920  0.92090  Biso   1.000  C
  C145     1.0000 0.64720  0.96120  0.96940  Biso   1.000  C
  C146     1.0000 0.68290  0.04820  0.01360  Biso   1.000  C
  C147     1.0000 0.52980  0.82300  0.87630  Biso   1.000  C
  C148     1.0000 0.27368  0.51356  0.81380  Biso   1.000  C
  C149     1.0000 0.36525  0.55510  0.81420  Biso   1.000  C
  C150     1.0000 0.39842  0.50124  0.78360  Biso   1.000  C
  C151     1.0000 0.48475  0.53990  0.78460  Biso   1.000  C
  C152     1.0000 0.53798  0.63076  0.81610  Biso   1.000  C
  C153     1.0000 0.50310  0.68360  0.84610  Biso   1.000  C
  C154     1.0000 0.41761  0.64502  0.84490  Biso   1.000  C
  C155     1.0000 0.51817  0.48034  0.75140  Biso   1.000  C
  C156     1.0000 0.49070  0.26220  0.40570  Biso   1.000  C
  C157     1.0000 0.38740  0.10540  0.32500  Biso   1.000  C
  C158     1.0000 0.38790  0.22580  0.31310  Biso   1.000  C
  C159     1.0000 0.73680  0.27580  0.49270  Biso   1.000  C
  C160     1.0000 0.81330  0.19720  0.46950  Biso   1.000  C
  C161     1.0000 0.89080  0.36560  0.51320  Biso   1.000  C
  C162     1.0000 0.30240  0.55280  0.20550  Biso   1.000  C
  C163     1.0000 0.21930  0.60200  0.16830  Biso   1.000  C
  C164     1.0000 0.16170  0.43960  0.12920  Biso   1.000  C
  N1       1.0000 0.06403  0.82046  0.08920  Biso   1.000  N
  N2       1.0000 0.21773  0.77546  0.38040  Biso   1.000  N
  N3       1.0000 0.77350  0.19800  0.84740  Biso   1.000  N
  N4       1.0000 0.46240  0.27860  0.98790  Biso   1.000  N
  N5       1.0000 0.30500  0.53180  0.66700  Biso   1.000  N
  N6       1.0000 0.24357  0.17954  0.41080  Biso   1.000  N
  N7       1.0000 0.44227  0.22454  0.11960  Biso   1.000  N
  N8       1.0000 0.57550  0.80200  0.65260  Biso   1.000  N
  N9       1.0000 0.18380  0.72140  0.51210  Biso   1.000  N
  N10      1.0000 0.77320  0.46820  0.83300  Biso   1.000  N
  N11      1.0000 0.93597  0.17954  0.91080  Biso   1.000  N
  N12      1.0000 0.78227  0.22454  0.61960  Biso   1.000  N
  N13      1.0000 0.22650  0.80200  0.15260  Biso   1.000  N
  N14      1.0000 0.53760  0.72140  0.01210  Biso   1.000  N
  N15      1.0000 0.69500  0.46820  0.33300  Biso   1.000  N
  N16      1.0000 0.75643  0.82046  0.58920  Biso   1.000  N
  N17      1.0000 0.55773  0.77546  0.88040  Biso   1.000  N
  N18      1.0000 0.42450  0.19800  0.34740  Biso   1.000  N
  N19      1.0000 0.81620  0.27860  0.48790  Biso   1.000  N
  N20      1.0000 0.22680  0.53180  0.16700  Biso   1.000  N
  O1       1.0000 0.26245  0.29190  0.19180  Biso   1.000  O
  O2       1.0000 0.26758  0.27916  0.28100  Biso   1.000  O
  O3       1.0000 0.81711  0.43982  0.99780  Biso   1.000  O
  O4       1.0000 0.83433  0.55046  0.09430  Biso   1.000  O
  O5       1.0000 0.14683  0.62706  0.91060  Biso   1.000  O
  O6       1.0000 0.03602  0.48964  0.87190  Biso   1.000  O
  O7       1.0000 0.47837  0.21774  0.61370  Biso   1.000  O
  O8       1.0000 0.57435  0.23650  0.55650  Biso   1.000  O
  O9       1.0000 0.31787  0.56554  0.34830  Biso   1.000  O
  O10      1.0000 0.20955  0.43410  0.27890  Biso   1.000  O
  O11      1.0000 0.93259  0.39918  0.22420  Biso   1.000  O
  O12      1.0000 0.91737  0.51334  0.25240  Biso   1.000  O
  O13      1.0000 0.71919  0.24178  0.93790  Biso   1.000  O
  O14      1.0000 0.61000  0.34380  0.00970  Biso   1.000  O
  O15      1.0000 0.26835  0.62950  0.74250  Biso   1.000  O
  O16      1.0000 0.97055  0.70810  0.30820  Biso   1.000  O
  O17      1.0000 0.98842  0.72084  0.21900  Biso   1.000  O
  O18      1.0000 0.37729  0.56018  0.50220  Biso   1.000  O
  O19      1.0000 0.28387  0.44954  0.40570  Biso   1.000  O
  O20      1.0000 0.51977  0.37294  0.58940  Biso   1.000  O
  O21      1.0000 0.54638  0.51036  0.62810  Biso   1.000  O
  O22      1.0000 0.26063  0.78226  0.88630  Biso   1.000  O
  O23      1.0000 0.33785  0.76350  0.94350  Biso   1.000  O
  O24      1.0000 0.75233  0.43446  0.15170  Biso   1.000  O
  O25      1.0000 0.77545  0.56590  0.22110  Biso   1.000  O
  O26      1.0000 0.53341  0.60082  0.27580  Biso   1.000  O
  O27      1.0000 0.40403  0.48666  0.24760  Biso   1.000  O
  O28      1.0000 0.47741  0.75822  0.56210  Biso   1.000  O
  O29      1.0000 0.26620  0.65620  0.49030  Biso   1.000  O
  O30      1.0000 0.63885  0.37050  0.75750  Biso   1.000  O
  O31      1.0000 0.73755  0.70810  0.80820  Biso   1.000  O
  O32      1.0000 0.73242  0.72084  0.71900  Biso   1.000  O
  O33      1.0000 0.18289  0.56018  0.00220  Biso   1.000  O
  O34      1.0000 0.16567  0.44954  0.90570  Biso   1.000  O
  O35      1.0000 0.85317  0.37294  0.08940  Biso   1.000  O
  O36      1.0000 0.96398  0.51036  0.12810  Biso   1.000  O
  O37      1.0000 0.52163  0.78226  0.38630  Biso   1.000  O
  O38      1.0000 0.42565  0.76350  0.44350  Biso   1.000  O
  O39      1.0000 0.68213  0.43446  0.65170  Biso   1.000  O
  O40      1.0000 0.79045  0.56590  0.72110  Biso   1.000  O
  O41      1.0000 0.06741  0.60082  0.77580  Biso   1.000  O
  O42      1.0000 0.08263  0.48666  0.74760  Biso   1.000  O
  O43      1.0000 0.28081  0.75822  0.06210  Biso   1.000  O
  O44      1.0000 0.39000  0.65620  0.99030  Biso   1.000  O
  O45      1.0000 0.73165  0.37050  0.25750  Biso   1.000  O
  O46      1.0000 0.02945  0.29190  0.69180  Biso   1.000  O
  O47      1.0000 0.01158  0.27916  0.78100  Biso   1.000  O
  O48      1.0000 0.62271  0.43982  0.49780  Biso   1.000  O
  O49      1.0000 0.71613  0.55046  0.59430  Biso   1.000  O
  O50      1.0000 0.48023  0.62706  0.41060  Biso   1.000  O
  O51      1.0000 0.45362  0.48964  0.37190  Biso   1.000  O
  O52      1.0000 0.73937  0.21774  0.11370  Biso   1.000  O
  O53      1.0000 0.66215  0.23650  0.05650  Biso   1.000  O
  O54      1.0000 0.24767  0.56554  0.84830  Biso   1.000  O
  O55      1.0000 0.22455  0.43410  0.77890  Biso   1.000  O
  O56      1.0000 0.46659  0.39918  0.72420  Biso   1.000  O
  O57      1.0000 0.59597  0.51334  0.75240  Biso   1.000  O
  O58      1.0000 0.52259  0.24178  0.43790  Biso   1.000  O
  O59      1.0000 0.73380  0.34380  0.50970  Biso   1.000  O
  O60      1.0000 0.36115  0.62950  0.24250  Biso   1.000  O
