data_image0
_cell_length_a       11.7914
_cell_length_b       17.0504
_cell_length_c       20.795
_cell_angle_alpha    104.726
_cell_angle_beta     106.36
_cell_angle_gamma    103.481

_symmetry_space_group_name_H-M    P 1
_symmetry_int_tables_number       1

loop_
  _symmetry_equiv_pos_as_xyz
  'x, y, z'

loop_
  _atom_site_label
  _atom_site_occupancy
  _atom_site_fract_x
  _atom_site_fract_y
  _atom_site_fract_z
  _atom_site_thermal_displace_type
  _atom_site_B_iso_or_equiv
  _atom_site_type_symbol
  Co1      1.0000 0.00007  0.25188  0.24835  Biso   1.000  Co
  Co2      1.0000 0.99993  0.74812  0.75165  Biso   1.000  Co
  Co3      1.0000 0.50000  0.50000  0.50000  Biso   1.000  Co
  Co4      1.0000 0.00000  0.50000  0.50000  Biso   1.000  Co
  Co5      1.0000 0.00000  0.00000  0.00000  Biso   1.000  Co
  Co6      1.0000 0.50000  0.00000  0.00000  Biso   1.000  Co
  H1       1.0000 0.32180  0.32340  0.34500  Biso   1.000  H
  H2       1.0000 0.68280  0.18750  0.14650  Biso   1.000  H
  H3       1.0000 0.52510  0.49660  0.65330  Biso   1.000  H
  H4       1.0000 0.52630  0.40180  0.71700  Biso   1.000  H
  H5       1.0000 0.42170  0.20880  0.53310  Biso   1.000  H
  H6       1.0000 0.42730  0.30890  0.47630  Biso   1.000  H
  H7       1.0000 0.51030  0.22810  0.88130  Biso   1.000  H
  H8       1.0000 0.52680  0.17150  0.97320  Biso   1.000  H
  H9       1.0000 0.50690  0.95100  0.84770  Biso   1.000  H
  H10      1.0000 0.49330  0.00110  0.75340  Biso   1.000  H
  H11      1.0000 0.14590  0.18180  0.35810  Biso   1.000  H
  H12      1.0000 0.12520  0.06780  0.39850  Biso   1.000  H
  H13      1.0000 0.75720  0.00820  0.31090  Biso   1.000  H
  H14      1.0000 0.78850  0.12370  0.27320  Biso   1.000  H
  H15      1.0000 0.10370  0.81550  0.51560  Biso   1.000  H
  H16      1.0000 0.12630  0.69940  0.54980  Biso   1.000  H
  H17      1.0000 0.80120  0.55060  0.40470  Biso   1.000  H
  H18      1.0000 0.76780  0.66500  0.37010  Biso   1.000  H
  H19      1.0000 0.19970  0.95480  0.09950  Biso   1.000  H
  H20      1.0000 0.23660  0.84320  0.13520  Biso   1.000  H
  H21      1.0000 0.91000  0.68630  0.98250  Biso   1.000  H
  H22      1.0000 0.87870  0.80290  0.95200  Biso   1.000  H
  H23      1.0000 0.25320  0.49150  0.18510  Biso   1.000  H
  H24      1.0000 0.21560  0.37590  0.22410  Biso   1.000  H
  H25      1.0000 0.85700  0.32800  0.14160  Biso   1.000  H
  H26      1.0000 0.88630  0.44070  0.10120  Biso   1.000  H
  H27      1.0000 0.67820  0.67660  0.65500  Biso   1.000  H
  H28      1.0000 0.31720  0.81250  0.85350  Biso   1.000  H
  H29      1.0000 0.47490  0.50340  0.34670  Biso   1.000  H
  H30      1.0000 0.47370  0.59820  0.28300  Biso   1.000  H
  H31      1.0000 0.57830  0.79120  0.46690  Biso   1.000  H
  H32      1.0000 0.57270  0.69110  0.52370  Biso   1.000  H
  H33      1.0000 0.48970  0.77190  0.11870  Biso   1.000  H
  H34      1.0000 0.47320  0.82850  0.02680  Biso   1.000  H
  H35      1.0000 0.49310  0.04900  0.15230  Biso   1.000  H
  H36      1.0000 0.50670  0.99890  0.24660  Biso   1.000  H
  H37      1.0000 0.85410  0.81820  0.64190  Biso   1.000  H
  H38      1.0000 0.87480  0.93220  0.60150  Biso   1.000  H
  H39      1.0000 0.24280  0.99180  0.68910  Biso   1.000  H
  H40      1.0000 0.21150  0.87630  0.72680  Biso   1.000  H
  H41      1.0000 0.89630  0.18450  0.48440  Biso   1.000  H
  H42      1.0000 0.87370  0.30060  0.45020  Biso   1.000  H
  H43      1.0000 0.19880  0.44940  0.59530  Biso   1.000  H
  H44      1.0000 0.23220  0.33500  0.62990  Biso   1.000  H
  H45      1.0000 0.80030  0.04520  0.90050  Biso   1.000  H
  H46      1.0000 0.76340  0.15680  0.86480  Biso   1.000  H
  H47      1.0000 0.09000  0.31370  0.01750  Biso   1.000  H
  H48      1.0000 0.12130  0.19710  0.04800  Biso   1.000  H
  H49      1.0000 0.74680  0.50850  0.81490  Biso   1.000  H
  H50      1.0000 0.78440  0.62410  0.77590  Biso   1.000  H
  H51      1.0000 0.14300  0.67200  0.85840  Biso   1.000  H
  H52      1.0000 0.11370  0.55930  0.89880  Biso   1.000  H
  C1       1.0000 0.27580  0.35490  0.36480  Biso   1.000  C
  C2       1.0000 0.23190  0.44960  0.43390  Biso   1.000  C
  C3       1.0000 0.12290  0.39490  0.37920  Biso   1.000  C
  C4       1.0000 0.26510  0.52550  0.49910  Biso   1.000  C
  C5       1.0000 0.98900  0.39000  0.35810  Biso   1.000  C
  C6       1.0000 0.72770  0.15320  0.12870  Biso   1.000  C
  C7       1.0000 0.87790  0.10730  0.11750  Biso   1.000  C
  C8       1.0000 0.76930  0.05300  0.06360  Biso   1.000  C
  C9       1.0000 0.01180  0.11240  0.14100  Biso   1.000  C
  C10      1.0000 0.73370  0.97140  0.00420  Biso   1.000  C
  C11      1.0000 0.50630  0.43730  0.62850  Biso   1.000  C
  C12      1.0000 0.50640  0.38100  0.66690  Biso   1.000  C
  C13      1.0000 0.47720  0.29450  0.63070  Biso   1.000  C
  C14      1.0000 0.44590  0.26800  0.55990  Biso   1.000  C
  C15      1.0000 0.44940  0.32870  0.52660  Biso   1.000  C
  C16      1.0000 0.48080  0.23270  0.66970  Biso   1.000  C
  C17      1.0000 0.49140  0.15430  0.74880  Biso   1.000  C
  C18      1.0000 0.50010  0.12000  0.80780  Biso   1.000  C
  C19      1.0000 0.50930  0.17050  0.87310  Biso   1.000  C
  C20      1.0000 0.51710  0.13580  0.92730  Biso   1.000  C
  C21      1.0000 0.50590  0.00800  0.85450  Biso   1.000  C
  C22      1.0000 0.49890  0.03740  0.79800  Biso   1.000  C
  C23      1.0000 0.06400  0.14390  0.34590  Biso   1.000  C
  C24      1.0000 0.05280  0.07630  0.37100  Biso   1.000  C
  C25      1.0000 0.93770  0.02200  0.35590  Biso   1.000  C
  C26      1.0000 0.84010  0.04220  0.32020  Biso   1.000  C
  C27      1.0000 0.85940  0.11090  0.29720  Biso   1.000  C
  C28      1.0000 0.91470  0.94230  0.37420  Biso   1.000  C
  C29      1.0000 0.91420  0.82170  0.41030  Biso   1.000  C
  C30      1.0000 0.93370  0.75170  0.43770  Biso   1.000  C
  C31      1.0000 0.03970  0.76120  0.49180  Biso   1.000  C
  C32      1.0000 0.05310  0.69130  0.51140  Biso   1.000  C
  C33      1.0000 0.86430  0.60530  0.42780  Biso   1.000  C
  C34      1.0000 0.84410  0.67330  0.40640  Biso   1.000  C
  C35      1.0000 0.13900  0.89910  0.07540  Biso   1.000  C
  C36      1.0000 0.16200  0.83300  0.09680  Biso   1.000  C
  C37      1.0000 0.07730  0.75230  0.06270  Biso   1.000  C
  C38      1.0000 0.97100  0.74160  0.00790  Biso   1.000  C
  C39      1.0000 0.95320  0.81130  0.98970  Biso   1.000  C
  C40      1.0000 0.10100  0.68220  0.08900  Biso   1.000  C
  C41      1.0000 0.09780  0.56150  0.12450  Biso   1.000  C
  C42      1.0000 0.07350  0.48300  0.14400  Biso   1.000  C
  C43      1.0000 0.16980  0.46000  0.17750  Biso   1.000  C
  C44      1.0000 0.14660  0.39070  0.20040  Biso   1.000  C
  C45      1.0000 0.94020  0.36330  0.15290  Biso   1.000  C
  C46      1.0000 0.95690  0.43050  0.12880  Biso   1.000  C
  C47      1.0000 0.72420  0.64510  0.63520  Biso   1.000  C
  C48      1.0000 0.76810  0.55040  0.56610  Biso   1.000  C
  C49      1.0000 0.87710  0.60510  0.62080  Biso   1.000  C
  C50      1.0000 0.73490  0.47450  0.50090  Biso   1.000  C
  C51      1.0000 0.01100  0.61000  0.64190  Biso   1.000  C
  C52      1.0000 0.27230  0.84680  0.87130  Biso   1.000  C
  C53      1.0000 0.12210  0.89270  0.88250  Biso   1.000  C
  C54      1.0000 0.23070  0.94700  0.93640  Biso   1.000  C
  C55      1.0000 0.98820  0.88760  0.85900  Biso   1.000  C
  C56      1.0000 0.26630  0.02860  0.99580  Biso   1.000  C
  C57      1.0000 0.49370  0.56270  0.37150  Biso   1.000  C
  C58      1.0000 0.49360  0.61900  0.33310  Biso   1.000  C
  C59      1.0000 0.52280  0.70550  0.36930  Biso   1.000  C
  C60      1.0000 0.55410  0.73200  0.44010  Biso   1.000  C
  C61      1.0000 0.55060  0.67130  0.47340  Biso   1.000  C
  C62      1.0000 0.51920  0.76730  0.33030  Biso   1.000  C
  C63      1.0000 0.50860  0.84570  0.25120  Biso   1.000  C
  C64      1.0000 0.49990  0.88000  0.19220  Biso   1.000  C
  C65      1.0000 0.49070  0.82950  0.12690  Biso   1.000  C
  C66      1.0000 0.48290  0.86420  0.07270  Biso   1.000  C
  C67      1.0000 0.49410  0.99200  0.14550  Biso   1.000  C
  C68      1.0000 0.50110  0.96260  0.20200  Biso   1.000  C
  C69      1.0000 0.93600  0.85610  0.65410  Biso   1.000  C
  C70      1.0000 0.94720  0.92370  0.62900  Biso   1.000  C
  C71      1.0000 0.06230  0.97800  0.64410  Biso   1.000  C
  C72      1.0000 0.15990  0.95780  0.67980  Biso   1.000  C
  C73      1.0000 0.14060  0.88910  0.70280  Biso   1.000  C
  C74      1.0000 0.08530  0.05770  0.62580  Biso   1.000  C
  C75      1.0000 0.08580  0.17830  0.58970  Biso   1.000  C
  C76      1.0000 0.06630  0.24830  0.56230  Biso   1.000  C
  C77      1.0000 0.96030  0.23880  0.50820  Biso   1.000  C
  C78      1.0000 0.94690  0.30870  0.48860  Biso   1.000  C
  C79      1.0000 0.13570  0.39470  0.57220  Biso   1.000  C
  C80      1.0000 0.15590  0.32670  0.59360  Biso   1.000  C
  C81      1.0000 0.86100  0.10090  0.92460  Biso   1.000  C
  C82      1.0000 0.83800  0.16700  0.90320  Biso   1.000  C
  C83      1.0000 0.92270  0.24770  0.93730  Biso   1.000  C
  C84      1.0000 0.02900  0.25840  0.99210  Biso   1.000  C
  C85      1.0000 0.04680  0.18870  0.01030  Biso   1.000  C
  C86      1.0000 0.89900  0.31780  0.91100  Biso   1.000  C
  C87      1.0000 0.90220  0.43850  0.87550  Biso   1.000  C
  C88      1.0000 0.92650  0.51700  0.85600  Biso   1.000  C
  C89      1.0000 0.83020  0.54000  0.82250  Biso   1.000  C
  C90      1.0000 0.85340  0.60930  0.79960  Biso   1.000  C
  C91      1.0000 0.05980  0.63670  0.84710  Biso   1.000  C
  C92      1.0000 0.04310  0.56950  0.87120  Biso   1.000  C
  S1       1.0000 0.49530  0.25684  0.75621  Biso   1.000  S
  S2       1.0000 0.02590  0.91509  0.42763  Biso   1.000  S
  S3       1.0000 0.98380  0.59022  0.07338  Biso   1.000  S
  S4       1.0000 0.50470  0.74316  0.24379  Biso   1.000  S
  S5       1.0000 0.97410  0.08491  0.57237  Biso   1.000  S
  S6       1.0000 0.01620  0.40978  0.92662  Biso   1.000  S
  N1       1.0000 0.32830  0.42320  0.42360  Biso   1.000  N
  N2       1.0000 0.15260  0.33460  0.33610  Biso   1.000  N
  N3       1.0000 0.84980  0.17130  0.15950  Biso   1.000  N
  N4       1.0000 0.67300  0.08290  0.07070  Biso   1.000  N
  N5       1.0000 0.48120  0.41150  0.55950  Biso   1.000  N
  N6       1.0000 0.47260  0.15340  0.63940  Biso   1.000  N
  N7       1.0000 0.47890  0.10810  0.68490  Biso   1.000  N
  N8       1.0000 0.51130  0.05430  0.91730  Biso   1.000  N
  N9       1.0000 0.97040  0.15980  0.30660  Biso   1.000  N
  N10      1.0000 0.80850  0.88400  0.34740  Biso   1.000  N
  N11      1.0000 0.80750  0.81590  0.36950  Biso   1.000  N
  N12      1.0000 0.96860  0.61370  0.47930  Biso   1.000  N
  N13      1.0000 0.03310  0.34430  0.19110  Biso   1.000  N
  N14      1.0000 0.20630  0.61580  0.14700  Biso   1.000  N
  N15      1.0000 0.20860  0.68580  0.12600  Biso   1.000  N
  N16      1.0000 0.03570  0.88960  0.02260  Biso   1.000  N
  N17      1.0000 0.67170  0.57680  0.57640  Biso   1.000  N
  N18      1.0000 0.84740  0.66540  0.66390  Biso   1.000  N
  N19      1.0000 0.15020  0.82870  0.84050  Biso   1.000  N
  N20      1.0000 0.32700  0.91710  0.92930  Biso   1.000  N
  N21      1.0000 0.51880  0.58850  0.44050  Biso   1.000  N
  N22      1.0000 0.52740  0.84660  0.36060  Biso   1.000  N
  N23      1.0000 0.52110  0.89190  0.31510  Biso   1.000  N
  N24      1.0000 0.48870  0.94570  0.08270  Biso   1.000  N
  N25      1.0000 0.02960  0.84020  0.69340  Biso   1.000  N
  N26      1.0000 0.19150  0.11600  0.65260  Biso   1.000  N
  N27      1.0000 0.19250  0.18410  0.63050  Biso   1.000  N
  N28      1.0000 0.03140  0.38630  0.52070  Biso   1.000  N
  N29      1.0000 0.96690  0.65570  0.80890  Biso   1.000  N
  N30      1.0000 0.79370  0.38420  0.85300  Biso   1.000  N
  N31      1.0000 0.79140  0.31420  0.87400  Biso   1.000  N
  N32      1.0000 0.96430  0.11040  0.97740  Biso   1.000  N
  O1       1.0000 0.38020  0.55850  0.53650  Biso   1.000  O
  O2       1.0000 0.18510  0.55400  0.51470  Biso   1.000  O
  O3       1.0000 0.95040  0.44120  0.39220  Biso   1.000  O
  O4       1.0000 0.91560  0.32910  0.30020  Biso   1.000  O
  O5       1.0000 0.08430  0.17430  0.19740  Biso   1.000  O
  O6       1.0000 0.04870  0.05960  0.10740  Biso   1.000  O
  O7       1.0000 0.81440  0.94400  0.98730  Biso   1.000  O
  O8       1.0000 0.61820  0.93290  0.97260  Biso   1.000  O
  O9       1.0000 0.61980  0.44150  0.46350  Biso   1.000  O
  O10      1.0000 0.81490  0.44600  0.48530  Biso   1.000  O
  O11      1.0000 0.04960  0.55880  0.60780  Biso   1.000  O
  O12      1.0000 0.08440  0.67090  0.69980  Biso   1.000  O
  O13      1.0000 0.91570  0.82570  0.80260  Biso   1.000  O
  O14      1.0000 0.95130  0.94040  0.89260  Biso   1.000  O
  O15      1.0000 0.18560  0.05600  0.01270  Biso   1.000  O
  O16      1.0000 0.38180  0.06710  0.02740  Biso   1.000  O
