data_image0
_cell_length_a       11.4482
_cell_length_b       11.5408
_cell_length_c       11.7663
_cell_angle_alpha    65.37
_cell_angle_beta     80.54
_cell_angle_gamma    72.759

_symmetry_space_group_name_H-M    P 1
_symmetry_int_tables_number       1

loop_
  _symmetry_equiv_pos_as_xyz
  'x, y, z'

loop_
  _atom_site_label
  _atom_site_occupancy
  _atom_site_fract_x
  _atom_site_fract_y
  _atom_site_fract_z
  _atom_site_thermal_displace_type
  _atom_site_B_iso_or_equiv
  _atom_site_type_symbol
  Co1      1.0000 0.50000  0.00000  0.50000  Biso   1.000  Co
  Co2      1.0000 0.50000  0.50000  0.00000  Biso   1.000  Co
  Co3      1.0000 0.50000  0.50000  0.50000  Biso   1.000  Co
  H1       1.0000 0.54500  0.16180  0.17790  Biso   1.000  H
  H2       1.0000 0.70160  0.87430  0.70390  Biso   1.000  H
  H3       1.0000 0.90960  0.77990  0.72010  Biso   1.000  H
  H4       1.0000 0.94570  0.94180  0.34130  Biso   1.000  H
  H5       1.0000 0.73690  0.03000  0.33770  Biso   1.000  H
  H6       1.0000 0.07670  0.61860  0.70380  Biso   1.000  H
  H7       1.0000 0.27830  0.50320  0.69300  Biso   1.000  H
  H8       1.0000 0.33970  0.77700  0.36920  Biso   1.000  H
  H9       1.0000 0.14100  0.90310  0.37100  Biso   1.000  H
  H10      1.0000 0.65760  0.68460  0.97760  Biso   1.000  H
  H11      1.0000 0.85690  0.69190  0.97420  Biso   1.000  H
  H12      1.0000 0.96190  0.30610  0.03770  Biso   1.000  H
  H13      1.0000 0.75880  0.30860  0.04330  Biso   1.000  H
  H14      1.0000 0.45500  0.83820  0.82210  Biso   1.000  H
  H15      1.0000 0.29840  0.12570  0.29610  Biso   1.000  H
  H16      1.0000 0.09040  0.22010  0.27990  Biso   1.000  H
  H17      1.0000 0.05430  0.05820  0.65870  Biso   1.000  H
  H18      1.0000 0.26310  0.97000  0.66230  Biso   1.000  H
  H19      1.0000 0.92330  0.38140  0.29620  Biso   1.000  H
  H20      1.0000 0.72170  0.49680  0.30700  Biso   1.000  H
  H21      1.0000 0.66030  0.22300  0.63080  Biso   1.000  H
  H22      1.0000 0.85900  0.09690  0.62900  Biso   1.000  H
  H23      1.0000 0.34240  0.31540  0.02240  Biso   1.000  H
  H24      1.0000 0.14310  0.30810  0.02580  Biso   1.000  H
  H25      1.0000 0.03810  0.69390  0.96230  Biso   1.000  H
  H26      1.0000 0.24120  0.69140  0.95670  Biso   1.000  H
  C1       1.0000 0.52420  0.21640  0.22410  Biso   1.000  C
  C2       1.0000 0.47780  0.27870  0.37810  Biso   1.000  C
  C3       1.0000 0.48100  0.38780  0.26840  Biso   1.000  C
  C4       1.0000 0.44700  0.25660  0.51160  Biso   1.000  C
  C5       1.0000 0.46150  0.53160  0.23460  Biso   1.000  C
  C6       1.0000 0.75190  0.88590  0.62920  Biso   1.000  C
  C7       1.0000 0.87620  0.82880  0.63990  Biso   1.000  C
  C8       1.0000 0.95210  0.84380  0.53180  Biso   1.000  C
  C9       1.0000 0.89730  0.92380  0.41750  Biso   1.000  C
  C10      1.0000 0.77260  0.97640  0.41630  Biso   1.000  C
  C11      1.0000 0.08380  0.77410  0.53530  Biso   1.000  C
  C12      1.0000 0.12860  0.65300  0.63320  Biso   1.000  C
  C13      1.0000 0.24900  0.58450  0.62560  Biso   1.000  C
  C14      1.0000 0.28500  0.74410  0.43740  Biso   1.000  C
  C15      1.0000 0.16610  0.81990  0.43760  Biso   1.000  C
  C16      1.0000 0.72070  0.60610  0.98960  Biso   1.000  C
  C17      1.0000 0.83990  0.61160  0.98670  Biso   1.000  C
  C18      1.0000 0.93440  0.50000  0.00220  Biso   1.000  C
  C19      1.0000 0.90070  0.38630  0.02430  Biso   1.000  C
  C20      1.0000 0.77920  0.38830  0.02710  Biso   1.000  C
  C21      1.0000 0.47580  0.78360  0.77590  Biso   1.000  C
  C22      1.0000 0.52220  0.72130  0.62190  Biso   1.000  C
  C23      1.0000 0.51900  0.61220  0.73160  Biso   1.000  C
  C24      1.0000 0.55300  0.74340  0.48840  Biso   1.000  C
  C25      1.0000 0.53850  0.46840  0.76540  Biso   1.000  C
  C26      1.0000 0.24810  0.11410  0.37080  Biso   1.000  C
  C27      1.0000 0.12380  0.17120  0.36010  Biso   1.000  C
  C28      1.0000 0.04790  0.15620  0.46820  Biso   1.000  C
  C29      1.0000 0.10270  0.07620  0.58250  Biso   1.000  C
  C30      1.0000 0.22740  0.02360  0.58370  Biso   1.000  C
  C31      1.0000 0.91620  0.22590  0.46470  Biso   1.000  C
  C32      1.0000 0.87140  0.34700  0.36680  Biso   1.000  C
  C33      1.0000 0.75100  0.41550  0.37440  Biso   1.000  C
  C34      1.0000 0.71500  0.25590  0.56260  Biso   1.000  C
  C35      1.0000 0.83390  0.18010  0.56240  Biso   1.000  C
  C36      1.0000 0.27930  0.39390  0.01040  Biso   1.000  C
  C37      1.0000 0.16010  0.38840  0.01330  Biso   1.000  C
  C38      1.0000 0.06560  0.50000  0.99780  Biso   1.000  C
  C39      1.0000 0.09930  0.61370  0.97570  Biso   1.000  C
  C40      1.0000 0.22080  0.61170  0.97290  Biso   1.000  C
  N1       1.0000 0.50580  0.17070  0.34800  Biso   1.000  N
  N2       1.0000 0.51040  0.34660  0.17130  Biso   1.000  N
  N3       1.0000 0.69840  0.95630  0.51990  Biso   1.000  N
  N4       1.0000 0.32660  0.62620  0.52890  Biso   1.000  N
  N5       1.0000 0.68890  0.49850  0.00780  Biso   1.000  N
  N6       1.0000 0.49420  0.82930  0.65200  Biso   1.000  N
  N7       1.0000 0.48960  0.65340  0.82870  Biso   1.000  N
  N8       1.0000 0.30160  0.04370  0.48010  Biso   1.000  N
  N9       1.0000 0.67340  0.37380  0.47110  Biso   1.000  N
  N10      1.0000 0.31110  0.50150  0.99220  Biso   1.000  N
  O1       1.0000 0.41490  0.35050  0.54690  Biso   1.000  O
  O2       1.0000 0.45260  0.13780  0.58590  Biso   1.000  O
  O3       1.0000 0.45720  0.57760  0.31440  Biso   1.000  O
  O4       1.0000 0.45150  0.60350  0.11880  Biso   1.000  O
  O5       1.0000 0.58510  0.64950  0.45310  Biso   1.000  O
  O6       1.0000 0.54740  0.86220  0.41410  Biso   1.000  O
  O7       1.0000 0.54280  0.42240  0.68560  Biso   1.000  O
  O8       1.0000 0.54850  0.39650  0.88120  Biso   1.000  O
