data_image0
_cell_length_a       12.138
_cell_length_b       13.146
_cell_length_c       14.321
_cell_angle_alpha    91.158
_cell_angle_beta     98.911
_cell_angle_gamma    90.567

_symmetry_space_group_name_H-M    P 1
_symmetry_int_tables_number       1

loop_
  _symmetry_equiv_pos_as_xyz
  'x, y, z'

loop_
  _atom_site_label
  _atom_site_occupancy
  _atom_site_fract_x
  _atom_site_fract_y
  _atom_site_fract_z
  _atom_site_thermal_displace_type
  _atom_site_B_iso_or_equiv
  _atom_site_type_symbol
  Cd1      1.0000 0.30160  0.07406  0.32508  Biso   1.000  Cd
  Cd2      1.0000 0.43600  0.77442  0.28136  Biso   1.000  Cd
  Cd3      1.0000 0.69840  0.92594  0.67492  Biso   1.000  Cd
  Cd4      1.0000 0.56400  0.22558  0.71864  Biso   1.000  Cd
  H1       1.0000 0.28940  0.37330  0.86280  Biso   1.000  H
  H2       1.0000 0.34450  0.43760  0.79040  Biso   1.000  H
  H3       1.0000 0.15440  0.34360  0.75450  Biso   1.000  H
  H4       1.0000 0.97150  0.30770  0.69010  Biso   1.000  H
  H5       1.0000 0.83580  0.42740  0.68790  Biso   1.000  H
  H6       1.0000 0.06270  0.62470  0.82380  Biso   1.000  H
  H7       1.0000 0.71330  0.54760  0.76840  Biso   1.000  H
  H8       1.0000 0.93280  0.74350  0.70880  Biso   1.000  H
  H9       1.0000 0.41200  0.57760  0.77680  Biso   1.000  H
  H10      1.0000 0.52090  0.64420  0.80890  Biso   1.000  H
  H11      1.0000 0.20950  0.78180  0.87340  Biso   1.000  H
  H12      1.0000 0.09170  0.87180  0.76480  Biso   1.000  H
  H13      1.0000 0.13670  0.89790  0.61620  Biso   1.000  H
  H14      1.0000 0.41830  0.74270  0.68640  Biso   1.000  H
  H15      1.0000 0.32940  0.00150  0.55030  Biso   1.000  H
  H16      1.0000 0.32170  0.71440  0.47970  Biso   1.000  H
  H17      1.0000 0.64340  0.72380  0.02250  Biso   1.000  H
  H18      1.0000 0.62400  0.70220  0.91260  Biso   1.000  H
  H19      1.0000 0.75560  0.82230  0.92030  Biso   1.000  H
  H20      1.0000 0.90610  0.93110  0.92070  Biso   1.000  H
  H21      1.0000 0.08290  0.88110  0.98670  Biso   1.000  H
  H22      1.0000 0.95990  0.60970  0.04280  Biso   1.000  H
  H23      1.0000 0.19170  0.83120  0.16120  Biso   1.000  H
  H24      1.0000 0.17700  0.57090  0.02160  Biso   1.000  H
  H25      1.0000 0.99190  0.91430  0.44730  Biso   1.000  H
  H26      1.0000 0.81410  0.85120  0.44090  Biso   1.000  H
  H27      1.0000 0.77070  0.85820  0.15750  Biso   1.000  H
  H28      1.0000 0.95070  0.91810  0.16360  Biso   1.000  H
  H29      1.0000 0.50080  0.15250  0.07990  Biso   1.000  H
  H30      1.0000 0.56560  0.14550  0.93750  Biso   1.000  H
  H31      1.0000 0.71060  0.62670  0.13720  Biso   1.000  H
  H32      1.0000 0.65550  0.56240  0.20960  Biso   1.000  H
  H33      1.0000 0.84560  0.65640  0.24550  Biso   1.000  H
  H34      1.0000 0.02850  0.69230  0.30990  Biso   1.000  H
  H35      1.0000 0.16420  0.57260  0.31210  Biso   1.000  H
  H36      1.0000 0.93730  0.37530  0.17620  Biso   1.000  H
  H37      1.0000 0.28670  0.45240  0.23160  Biso   1.000  H
  H38      1.0000 0.06720  0.25650  0.29120  Biso   1.000  H
  H39      1.0000 0.58800  0.42240  0.22320  Biso   1.000  H
  H40      1.0000 0.47910  0.35580  0.19110  Biso   1.000  H
  H41      1.0000 0.79050  0.21820  0.12660  Biso   1.000  H
  H42      1.0000 0.90830  0.12820  0.23520  Biso   1.000  H
  H43      1.0000 0.86330  0.10210  0.38380  Biso   1.000  H
  H44      1.0000 0.58170  0.25730  0.31360  Biso   1.000  H
  H45      1.0000 0.67060  0.99850  0.44970  Biso   1.000  H
  H46      1.0000 0.67830  0.28560  0.52030  Biso   1.000  H
  H47      1.0000 0.35660  0.27620  0.97750  Biso   1.000  H
  H48      1.0000 0.37600  0.29780  0.08740  Biso   1.000  H
  H49      1.0000 0.24440  0.17770  0.07970  Biso   1.000  H
  H50      1.0000 0.09390  0.06890  0.07930  Biso   1.000  H
  H51      1.0000 0.91710  0.11890  0.01330  Biso   1.000  H
  H52      1.0000 0.04010  0.39030  0.95720  Biso   1.000  H
  H53      1.0000 0.80830  0.16880  0.83880  Biso   1.000  H
  H54      1.0000 0.82300  0.42910  0.97840  Biso   1.000  H
  H55      1.0000 0.00810  0.08570  0.55270  Biso   1.000  H
  H56      1.0000 0.18590  0.14880  0.55910  Biso   1.000  H
  H57      1.0000 0.22930  0.14180  0.84250  Biso   1.000  H
  H58      1.0000 0.04930  0.08190  0.83640  Biso   1.000  H
  H59      1.0000 0.49920  0.84750  0.92010  Biso   1.000  H
  H60      1.0000 0.43440  0.85450  0.06250  Biso   1.000  H
  C1       1.0000 0.41120  0.47310  0.92940  Biso   1.000  C
  C2       1.0000 0.48110  0.55370  0.91660  Biso   1.000  C
  C3       1.0000 0.57110  0.58210  0.98680  Biso   1.000  C
  C4       1.0000 0.31720  0.44030  0.85050  Biso   1.000  C
  C5       1.0000 0.12670  0.48590  0.79970  Biso   1.000  C
  C6       1.0000 0.09990  0.39240  0.75670  Biso   1.000  C
  C7       1.0000 0.99010  0.37200  0.71650  Biso   1.000  C
  C8       1.0000 0.90910  0.44280  0.71460  Biso   1.000  C
  C9       1.0000 0.93810  0.53750  0.75290  Biso   1.000  C
  C10      1.0000 0.04510  0.56060  0.79670  Biso   1.000  C
  C11      1.0000 0.74670  0.60760  0.75300  Biso   1.000  C
  C12      1.0000 0.86650  0.71390  0.72060  Biso   1.000  C
  C13      1.0000 0.45360  0.61730  0.82860  Biso   1.000  C
  C14      1.0000 0.32410  0.74960  0.79000  Biso   1.000  C
  C15      1.0000 0.22740  0.79110  0.81330  Biso   1.000  C
  C16      1.0000 0.15740  0.84570  0.74870  Biso   1.000  C
  C17      1.0000 0.18410  0.86190  0.66070  Biso   1.000  C
  C18      1.0000 0.28220  0.82390  0.63960  Biso   1.000  C
  C19      1.0000 0.35240  0.76790  0.70260  Biso   1.000  C
  C20      1.0000 0.33300  0.94100  0.51620  Biso   1.000  C
  C21      1.0000 0.32810  0.78490  0.47800  Biso   1.000  C
  C22      1.0000 0.64700  0.67220  0.97380  Biso   1.000  C
  C23      1.0000 0.84290  0.70430  0.97930  Biso   1.000  C
  C24      1.0000 0.82700  0.80120  0.94460  Biso   1.000  C
  C25      1.0000 0.91680  0.86680  0.94600  Biso   1.000  C
  C26      1.0000 0.02220  0.83700  0.98500  Biso   1.000  C
  C27      1.0000 0.03630  0.74150  0.02120  Biso   1.000  C
  C28      1.0000 0.94850  0.67450  0.01850  Biso   1.000  C
  C29      1.0000 0.20920  0.76710  0.13950  Biso   1.000  C
  C30      1.0000 0.20130  0.62440  0.06350  Biso   1.000  C
  C31      1.0000 0.09760  0.98390  0.31050  Biso   1.000  C
  C32      1.0000 0.98790  0.92780  0.30680  Biso   1.000  C
  C33      1.0000 0.94690  0.90420  0.38900  Biso   1.000  C
  C34      1.0000 0.84080  0.86610  0.38520  Biso   1.000  C
  C35      1.0000 0.77340  0.84970  0.29990  Biso   1.000  C
  C36      1.0000 0.81540  0.87000  0.21560  Biso   1.000  C
  C37      1.0000 0.92220  0.90690  0.21920  Biso   1.000  C
  C38      1.0000 0.65360  0.81820  0.29440  Biso   1.000  C
  C39      1.0000 0.41670  0.01110  0.17860  Biso   1.000  C
  C40      1.0000 0.46130  0.00380  0.08630  Biso   1.000  C
  C41      1.0000 0.50060  0.09050  0.04740  Biso   1.000  C
  C42      1.0000 0.53930  0.08670  0.96200  Biso   1.000  C
  C43      1.0000 0.58880  0.52690  0.07060  Biso   1.000  C
  C44      1.0000 0.51890  0.44630  0.08340  Biso   1.000  C
  C45      1.0000 0.42890  0.41790  0.01320  Biso   1.000  C
  C46      1.0000 0.68280  0.55970  0.14950  Biso   1.000  C
  C47      1.0000 0.87330  0.51410  0.20030  Biso   1.000  C
  C48      1.0000 0.90010  0.60760  0.24330  Biso   1.000  C
  C49      1.0000 0.00990  0.62800  0.28350  Biso   1.000  C
  C50      1.0000 0.09090  0.55720  0.28540  Biso   1.000  C
  C51      1.0000 0.06190  0.46250  0.24710  Biso   1.000  C
  C52      1.0000 0.95490  0.43940  0.20330  Biso   1.000  C
  C53      1.0000 0.25330  0.39240  0.24700  Biso   1.000  C
  C54      1.0000 0.13350  0.28610  0.27940  Biso   1.000  C
  C55      1.0000 0.54640  0.38270  0.17140  Biso   1.000  C
  C56      1.0000 0.67590  0.25040  0.21000  Biso   1.000  C
  C57      1.0000 0.77260  0.20890  0.18670  Biso   1.000  C
  C58      1.0000 0.84260  0.15430  0.25130  Biso   1.000  C
  C59      1.0000 0.81590  0.13810  0.33930  Biso   1.000  C
  C60      1.0000 0.71780  0.17610  0.36040  Biso   1.000  C
  C61      1.0000 0.64760  0.23210  0.29740  Biso   1.000  C
  C62      1.0000 0.66700  0.05900  0.48380  Biso   1.000  C
  C63      1.0000 0.67190  0.21510  0.52200  Biso   1.000  C
  C64      1.0000 0.35300  0.32780  0.02620  Biso   1.000  C
  C65      1.0000 0.15710  0.29570  0.02070  Biso   1.000  C
  C66      1.0000 0.17300  0.19880  0.05540  Biso   1.000  C
  C67      1.0000 0.08320  0.13320  0.05400  Biso   1.000  C
  C68      1.0000 0.97780  0.16300  0.01500  Biso   1.000  C
  C69      1.0000 0.96370  0.25850  0.97880  Biso   1.000  C
  C70      1.0000 0.05150  0.32550  0.98150  Biso   1.000  C
  C71      1.0000 0.79080  0.23290  0.86050  Biso   1.000  C
  C72      1.0000 0.79870  0.37560  0.93650  Biso   1.000  C
  C73      1.0000 0.90240  0.01610  0.68950  Biso   1.000  C
  C74      1.0000 0.01210  0.07220  0.69320  Biso   1.000  C
  C75      1.0000 0.05310  0.09580  0.61100  Biso   1.000  C
  C76      1.0000 0.15920  0.13390  0.61480  Biso   1.000  C
  C77      1.0000 0.22660  0.15030  0.70010  Biso   1.000  C
  C78      1.0000 0.18460  0.13000  0.78440  Biso   1.000  C
  C79      1.0000 0.07780  0.09310  0.78080  Biso   1.000  C
  C80      1.0000 0.34640  0.18180  0.70560  Biso   1.000  C
  C81      1.0000 0.58330  0.98890  0.82140  Biso   1.000  C
  C82      1.0000 0.53870  0.99620  0.91370  Biso   1.000  C
  C83      1.0000 0.49940  0.90950  0.95260  Biso   1.000  C
  C84      1.0000 0.46070  0.91330  0.03800  Biso   1.000  C
  N1       1.0000 0.85560  0.61630  0.74510  Biso   1.000  N
  N2       1.0000 0.77270  0.76110  0.71580  Biso   1.000  N
  N3       1.0000 0.69360  0.69190  0.73670  Biso   1.000  N
  N4       1.0000 0.31300  0.84910  0.55020  Biso   1.000  N
  N5       1.0000 0.35700  0.93730  0.43340  Biso   1.000  N
  N6       1.0000 0.35270  0.83440  0.40640  Biso   1.000  N
  N7       1.0000 0.14490  0.71200  0.06940  Biso   1.000  N
  N8       1.0000 0.29810  0.71730  0.17160  Biso   1.000  N
  N9       1.0000 0.29330  0.62410  0.12310  Biso   1.000  N
  N10      1.0000 0.14440  0.38370  0.25490  Biso   1.000  N
  N11      1.0000 0.22730  0.23890  0.28420  Biso   1.000  N
  N12      1.0000 0.30640  0.30810  0.26330  Biso   1.000  N
  N13      1.0000 0.68700  0.15090  0.44980  Biso   1.000  N
  N14      1.0000 0.64300  0.06270  0.56660  Biso   1.000  N
  N15      1.0000 0.64730  0.16560  0.59360  Biso   1.000  N
  N16      1.0000 0.85510  0.28800  0.93060  Biso   1.000  N
  N17      1.0000 0.70190  0.28270  0.82840  Biso   1.000  N
  N18      1.0000 0.70670  0.37590  0.87690  Biso   1.000  N
  O1       1.0000 0.22920  0.51380  0.84770  Biso   1.000  O
  O2       1.0000 0.38720  0.69740  0.85870  Biso   1.000  O
  O3       1.0000 0.75950  0.63380  0.98020  Biso   1.000  O
  O4       1.0000 0.40220  0.17190  0.44470  Biso   1.000  O
  O5       1.0000 0.13360  0.03550  0.38360  Biso   1.000  O
  O6       1.0000 0.14790  0.97860  0.24120  Biso   1.000  O
  O7       1.0000 0.60480  0.83980  0.36370  Biso   1.000  O
  O8       1.0000 0.60390  0.77580  0.22130  Biso   1.000  O
  O9       1.0000 0.40100  0.09850  0.21020  Biso   1.000  O
  O10      1.0000 0.39120  0.93250  0.21830  Biso   1.000  O
  O11      1.0000 0.77080  0.48620  0.15230  Biso   1.000  O
  O12      1.0000 0.61280  0.30260  0.14130  Biso   1.000  O
  O13      1.0000 0.24050  0.36620  0.01980  Biso   1.000  O
  O14      1.0000 0.59780  0.82810  0.55530  Biso   1.000  O
  O15      1.0000 0.86640  0.96450  0.61640  Biso   1.000  O
  O16      1.0000 0.85210  0.02140  0.75880  Biso   1.000  O
  O17      1.0000 0.39520  0.16020  0.63630  Biso   1.000  O
  O18      1.0000 0.39610  0.22420  0.77870  Biso   1.000  O
  O19      1.0000 0.59900  0.90150  0.78980  Biso   1.000  O
  O20      1.0000 0.60880  0.06750  0.78170  Biso   1.000  O
