data_image0
_cell_length_a       8.25296
_cell_length_b       11.259
_cell_length_c       13.2214
_cell_angle_alpha    107.21
_cell_angle_beta     108.186
_cell_angle_gamma    90

_symmetry_space_group_name_H-M    P 1
_symmetry_int_tables_number       1

loop_
  _symmetry_equiv_pos_as_xyz
  'x, y, z'

loop_
  _atom_site_label
  _atom_site_occupancy
  _atom_site_fract_x
  _atom_site_fract_y
  _atom_site_fract_z
  _atom_site_thermal_displace_type
  _atom_site_B_iso_or_equiv
  _atom_site_type_symbol
  Ni1      1.0000 0.23603  0.92994  0.37244  Biso   1.000  Ni
  Ni2      1.0000 0.86359  0.07006  0.62756  Biso   1.000  Ni
  H1       1.0000 0.73760  0.20820  0.07060  Biso   1.000  H
  H2       1.0000 0.66280  0.29310  0.22600  Biso   1.000  H
  H3       1.0000 0.71190  0.19810  0.36380  Biso   1.000  H
  H4       1.0000 0.22740  0.19320  0.52880  Biso   1.000  H
  H5       1.0000 0.22030  0.39430  0.52720  Biso   1.000  H
  H6       1.0000 0.26880  0.28220  0.22080  Biso   1.000  H
  H7       1.0000 0.28070  0.08240  0.23220  Biso   1.000  H
  H8       1.0000 0.35750  0.68750  0.26540  Biso   1.000  H
  H9       1.0000 0.37460  0.48220  0.27040  Biso   1.000  H
  H10      1.0000 0.08010  0.54900  0.46440  Biso   1.000  H
  H11      1.0000 0.07340  0.75030  0.45540  Biso   1.000  H
  H12      1.0000 0.50330  0.98570  0.34240  Biso   1.000  H
  H13      1.0000 0.45400  0.86240  0.28260  Biso   1.000  H
  H14      1.0000 0.66700  0.79180  0.92940  Biso   1.000  H
  H15      1.0000 0.43680  0.70690  0.77400  Biso   1.000  H
  H16      1.0000 0.34810  0.80190  0.63620  Biso   1.000  H
  H17      1.0000 0.69860  0.80680  0.47120  Biso   1.000  H
  H18      1.0000 0.69310  0.60570  0.47280  Biso   1.000  H
  H19      1.0000 0.04800  0.71780  0.77920  Biso   1.000  H
  H20      1.0000 0.04850  0.91760  0.76780  Biso   1.000  H
  H21      1.0000 0.09210  0.31250  0.73460  Biso   1.000  H
  H22      1.0000 0.10420  0.51780  0.72960  Biso   1.000  H
  H23      1.0000 0.61570  0.45100  0.53560  Biso   1.000  H
  H24      1.0000 0.61800  0.24970  0.54460  Biso   1.000  H
  H25      1.0000 0.16090  0.01430  0.65760  Biso   1.000  H
  H26      1.0000 0.17140  0.13760  0.71740  Biso   1.000  H
  C1       1.0000 0.83597  0.06040  0.29654  Biso   1.000  C
  C2       1.0000 0.87633  0.00100  0.19826  Biso   1.000  C
  C3       1.0000 0.84250  0.05990  0.11460  Biso   1.000  C
  C4       1.0000 0.76100  0.16990  0.12640  Biso   1.000  C
  C5       1.0000 0.71660  0.21990  0.21860  Biso   1.000  C
  C6       1.0000 0.74930  0.16440  0.30280  Biso   1.000  C
  C7       1.0000 0.88339  0.00780  0.39338  Biso   1.000  C
  C8       1.0000 0.94840  0.87500  0.17680  Biso   1.000  C
  C9       1.0000 0.23680  0.21180  0.46660  Biso   1.000  C
  C10      1.0000 0.23020  0.33210  0.46560  Biso   1.000  C
  C11      1.0000 0.23801  0.36250  0.37242  Biso   1.000  C
  C12      1.0000 0.25970  0.26590  0.28400  Biso   1.000  C
  C13      1.0000 0.26750  0.14630  0.29160  Biso   1.000  C
  C14      1.0000 0.30190  0.66020  0.30700  Biso   1.000  C
  C15      1.0000 0.31100  0.53500  0.30800  Biso   1.000  C
  C16      1.0000 0.22170  0.49270  0.36700  Biso   1.000  C
  C17      1.0000 0.13760  0.57390  0.42260  Biso   1.000  C
  C18      1.0000 0.13560  0.69590  0.41780  Biso   1.000  C
  C19      1.0000 0.53943  0.93960  0.70346  Biso   1.000  C
  C20      1.0000 0.67807  0.99900  0.80174  Biso   1.000  C
  C21      1.0000 0.72790  0.94010  0.88540  Biso   1.000  C
  C22      1.0000 0.63460  0.83010  0.87360  Biso   1.000  C
  C23      1.0000 0.49800  0.78010  0.78140  Biso   1.000  C
  C24      1.0000 0.44650  0.83560  0.69720  Biso   1.000  C
  C25      1.0000 0.49001  0.99220  0.60662  Biso   1.000  C
  C26      1.0000 0.77160  0.12500  0.82320  Biso   1.000  C
  C27      1.0000 0.77020  0.78820  0.53340  Biso   1.000  C
  C28      1.0000 0.76460  0.66790  0.53440  Biso   1.000  C
  C29      1.0000 0.86559  0.63750  0.62758  Biso   1.000  C
  C30      1.0000 0.97570  0.73410  0.71600  Biso   1.000  C
  C31      1.0000 0.97590  0.85370  0.70840  Biso   1.000  C
  C32      1.0000 0.99490  0.33980  0.69300  Biso   1.000  C
  C33      1.0000 0.00300  0.46500  0.69200  Biso   1.000  C
  C34      1.0000 0.85470  0.50730  0.63300  Biso   1.000  C
  C35      1.0000 0.71500  0.42610  0.57740  Biso   1.000  C
  C36      1.0000 0.71780  0.30410  0.58220  Biso   1.000  C
  S1       1.0000 0.91990  0.00000  1.00000  Biso   1.000  S
  N1       1.0000 0.25662  0.11860  0.38144  Biso   1.000  N
  N2       1.0000 0.22028  0.73840  0.36116  Biso   1.000  N
  N3       1.0000 0.87518  0.88140  0.61856  Biso   1.000  N
  N4       1.0000 0.85912  0.26160  0.63884  Biso   1.000  N
  O1       1.0000 0.00779  0.94640  0.40838  Biso   1.000  O
  O2       1.0000 0.79807  0.03770  0.45754  Biso   1.000  O
  O3       1.0000 0.10659  0.87150  0.20178  Biso   1.000  O
  O4       1.0000 0.83897  0.78270  0.13134  Biso   1.000  O
  O5       1.0000 0.46652  0.91550  0.34304  Biso   1.000  O
  O6       1.0000 0.59941  0.05360  0.59162  Biso   1.000  O
  O7       1.0000 0.34053  0.96230  0.54246  Biso   1.000  O
  O8       1.0000 0.90481  0.12850  0.79822  Biso   1.000  O
  O9       1.0000 0.70763  0.21730  0.86866  Biso   1.000  O
  O10      1.0000 0.12348  0.08450  0.65696  Biso   1.000  O
