data_image0
_cell_length_a       11.671
_cell_length_b       11.8916
_cell_length_c       14.305
_cell_angle_alpha    110.633
_cell_angle_beta     99.92
_cell_angle_gamma    101.351

_symmetry_space_group_name_H-M    P 1
_symmetry_int_tables_number       1

loop_
  _symmetry_equiv_pos_as_xyz
  'x, y, z'

loop_
  _atom_site_label
  _atom_site_occupancy
  _atom_site_fract_x
  _atom_site_fract_y
  _atom_site_fract_z
  _atom_site_thermal_displace_type
  _atom_site_B_iso_or_equiv
  _atom_site_type_symbol
  Er1      1.0000 0.90152  0.02780  0.89531  Biso   1.000  Er
  Er2      1.0000 0.58430  0.91840  0.56925  Biso   1.000  Er
  Er3      1.0000 0.09848  0.97220  0.10469  Biso   1.000  Er
  Er4      1.0000 0.41570  0.08160  0.43075  Biso   1.000  Er
  H1       1.0000 0.81800  0.16600  0.78800  Biso   1.000  H
  H2       1.0000 0.91600  0.24300  0.84800  Biso   1.000  H
  H3       1.0000 0.59160  0.64640  0.40730  Biso   1.000  H
  H4       1.0000 0.69570  0.60120  0.62570  Biso   1.000  H
  H5       1.0000 0.64220  0.45260  0.56560  Biso   1.000  H
  H6       1.0000 0.77760  0.51950  0.57070  Biso   1.000  H
  H7       1.0000 0.61630  0.46480  0.31790  Biso   1.000  H
  H8       1.0000 0.72880  0.43490  0.37630  Biso   1.000  H
  H9       1.0000 0.59350  0.36510  0.36890  Biso   1.000  H
  H10      1.0000 0.18200  0.83400  0.21200  Biso   1.000  H
  H11      1.0000 0.08400  0.75700  0.15200  Biso   1.000  H
  H12      1.0000 0.40840  0.35360  0.59270  Biso   1.000  H
  H13      1.0000 0.30430  0.39880  0.37430  Biso   1.000  H
  H14      1.0000 0.35780  0.54740  0.43440  Biso   1.000  H
  H15      1.0000 0.22240  0.48050  0.42930  Biso   1.000  H
  H16      1.0000 0.38370  0.53520  0.68210  Biso   1.000  H
  H17      1.0000 0.27120  0.56510  0.62370  Biso   1.000  H
  H18      1.0000 0.40650  0.63490  0.63110  Biso   1.000  H
  C1       1.0000 0.89490  0.75020  0.90150  Biso   1.000  C
  C2       1.0000 0.82980  0.61210  0.84530  Biso   1.000  C
  C3       1.0000 0.71070  0.56670  0.84290  Biso   1.000  C
  C4       1.0000 0.64680  0.44300  0.78650  Biso   1.000  C
  C5       1.0000 0.70180  0.35850  0.72980  Biso   1.000  C
  C6       1.0000 0.82180  0.40360  0.73380  Biso   1.000  C
  C7       1.0000 0.88480  0.52850  0.79010  Biso   1.000  C
  C8       1.0000 0.62810  0.22820  0.65690  Biso   1.000  C
  C9       1.0000 0.14380  0.03270  0.89110  Biso   1.000  C
  C10      1.0000 0.26610  0.02010  0.87970  Biso   1.000  C
  C11      1.0000 0.29900  0.91170  0.86950  Biso   1.000  C
  C12      1.0000 0.41150  0.90020  0.85550  Biso   1.000  C
  C13      1.0000 0.49440  0.99580  0.85010  Biso   1.000  C
  C14      1.0000 0.46220  0.10390  0.86010  Biso   1.000  C
  C15      1.0000 0.35090  0.11610  0.87460  Biso   1.000  C
  C16      1.0000 0.61440  0.98320  0.82790  Biso   1.000  C
  C17      1.0000 0.86880  0.93420  0.64100  Biso   1.000  C
  C18      1.0000 0.98590  0.92690  0.61250  Biso   1.000  C
  C19      1.0000 0.01700  0.81640  0.58280  Biso   1.000  C
  C20      1.0000 0.13050  0.81070  0.57050  Biso   1.000  C
  C21      1.0000 0.22030  0.91820  0.58720  Biso   1.000  C
  C22      1.0000 0.18770  0.02960  0.61600  Biso   1.000  C
  C23      1.0000 0.07350  0.03320  0.62620  Biso   1.000  C
  C24      1.0000 0.34330  0.91250  0.57700  Biso   1.000  C
  C25      1.0000 0.61650  0.64120  0.47210  Biso   1.000  C
  C26      1.0000 0.69520  0.52780  0.56600  Biso   1.000  C
  C27      1.0000 0.64710  0.44390  0.37610  Biso   1.000  C
  C28      1.0000 0.10510  0.24980  0.09850  Biso   1.000  C
  C29      1.0000 0.17020  0.38790  0.15470  Biso   1.000  C
  C30      1.0000 0.28930  0.43330  0.15710  Biso   1.000  C
  C31      1.0000 0.35320  0.55700  0.21350  Biso   1.000  C
  C32      1.0000 0.29820  0.64150  0.27020  Biso   1.000  C
  C33      1.0000 0.17820  0.59640  0.26620  Biso   1.000  C
  C34      1.0000 0.11520  0.47150  0.20990  Biso   1.000  C
  C35      1.0000 0.37190  0.77180  0.34310  Biso   1.000  C
  C36      1.0000 0.85620  0.96730  0.10890  Biso   1.000  C
  C37      1.0000 0.73390  0.97990  0.12030  Biso   1.000  C
  C38      1.0000 0.70100  0.08830  0.13050  Biso   1.000  C
  C39      1.0000 0.58850  0.09980  0.14450  Biso   1.000  C
  C40      1.0000 0.50560  0.00420  0.14990  Biso   1.000  C
  C41      1.0000 0.53780  0.89610  0.13990  Biso   1.000  C
  C42      1.0000 0.64910  0.88390  0.12540  Biso   1.000  C
  C43      1.0000 0.38560  0.01680  0.17210  Biso   1.000  C
  C44      1.0000 0.13120  0.06580  0.35900  Biso   1.000  C
  C45      1.0000 0.01410  0.07310  0.38750  Biso   1.000  C
  C46      1.0000 0.98300  0.18360  0.41720  Biso   1.000  C
  C47      1.0000 0.86950  0.18930  0.42950  Biso   1.000  C
  C48      1.0000 0.77970  0.08180  0.41280  Biso   1.000  C
  C49      1.0000 0.81230  0.97040  0.38400  Biso   1.000  C
  C50      1.0000 0.92650  0.96680  0.37380  Biso   1.000  C
  C51      1.0000 0.65670  0.08750  0.42300  Biso   1.000  C
  C52      1.0000 0.38350  0.35880  0.52790  Biso   1.000  C
  C53      1.0000 0.30480  0.47220  0.43400  Biso   1.000  C
  C54      1.0000 0.35290  0.55610  0.62390  Biso   1.000  C
  N1       1.0000 0.65110  0.54290  0.47240  Biso   1.000  N
  N2       1.0000 0.34890  0.45710  0.52760  Biso   1.000  N
  O1       1.0000 0.84910  0.81870  0.86650  Biso   1.000  O
  O2       1.0000 0.98410  0.78230  0.97710  Biso   1.000  O
  O3       1.0000 0.66540  0.13860  0.66700  Biso   1.000  O
  O4       1.0000 0.53880  0.22220  0.59090  Biso   1.000  O
  O5       1.0000 0.09180  0.08870  0.84680  Biso   1.000  O
  O6       1.0000 0.09170  0.98150  0.94320  Biso   1.000  O
  O7       1.0000 0.70200  0.00650  0.90290  Biso   1.000  O
  O8       1.0000 0.61820  0.95360  0.73690  Biso   1.000  O
  O9       1.0000 0.86230  0.91970  0.72180  Biso   1.000  O
  O10      1.0000 0.78830  0.95090  0.58100  Biso   1.000  O
  O11      1.0000 0.40620  0.99270  0.55140  Biso   1.000  O
  O12      1.0000 0.38750  0.83350  0.59580  Biso   1.000  O
  O13      1.0000 0.61420  0.72840  0.55120  Biso   1.000  O
  O14      1.0000 0.85900  0.17310  0.83450  Biso   1.000  O
  O15      1.0000 0.15090  0.18130  0.13350  Biso   1.000  O
  O16      1.0000 0.01590  0.21770  0.02290  Biso   1.000  O
  O17      1.0000 0.33460  0.86140  0.33300  Biso   1.000  O
  O18      1.0000 0.46120  0.77780  0.40910  Biso   1.000  O
  O19      1.0000 0.90820  0.91130  0.15320  Biso   1.000  O
  O20      1.0000 0.90830  0.01850  0.05680  Biso   1.000  O
  O21      1.0000 0.29800  0.99350  0.09710  Biso   1.000  O
  O22      1.0000 0.38180  0.04640  0.26310  Biso   1.000  O
  O23      1.0000 0.13770  0.08030  0.27820  Biso   1.000  O
  O24      1.0000 0.21170  0.04910  0.41900  Biso   1.000  O
  O25      1.0000 0.59380  0.00730  0.44860  Biso   1.000  O
  O26      1.0000 0.61250  0.16650  0.40420  Biso   1.000  O
  O27      1.0000 0.38580  0.27160  0.44880  Biso   1.000  O
  O28      1.0000 0.14100  0.82690  0.16550  Biso   1.000  O
  F1       1.0000 0.65300  0.64380  0.89540  Biso   1.000  F
  F2       1.0000 0.53040  0.40480  0.78520  Biso   1.000  F
  F3       1.0000 0.87690  0.32760  0.67750  Biso   1.000  F
  F4       1.0000 0.99850  0.56850  0.78600  Biso   1.000  F
  F5       1.0000 0.22110  0.81310  0.86910  Biso   1.000  F
  F6       1.0000 0.43840  0.79300  0.84500  Biso   1.000  F
  F7       1.0000 0.54020  0.19930  0.85470  Biso   1.000  F
  F8       1.0000 0.32690  0.22400  0.88480  Biso   1.000  F
  F9       1.0000 0.93520  0.71040  0.56660  Biso   1.000  F
  F10      1.0000 0.15270  0.69960  0.54050  Biso   1.000  F
  F11      1.0000 0.27010  0.13780  0.63970  Biso   1.000  F
  F12      1.0000 0.04780  0.14310  0.65510  Biso   1.000  F
  F13      1.0000 0.34700  0.35620  0.10460  Biso   1.000  F
  F14      1.0000 0.46960  0.59520  0.21480  Biso   1.000  F
  F15      1.0000 0.12310  0.67240  0.32250  Biso   1.000  F
  F16      1.0000 0.00150  0.43150  0.21400  Biso   1.000  F
  F17      1.0000 0.77890  0.18690  0.13090  Biso   1.000  F
  F18      1.0000 0.56160  0.20700  0.15500  Biso   1.000  F
  F19      1.0000 0.45980  0.80070  0.14530  Biso   1.000  F
  F20      1.0000 0.67310  0.77600  0.11520  Biso   1.000  F
  F21      1.0000 0.06480  0.28960  0.43340  Biso   1.000  F
  F22      1.0000 0.84730  0.30040  0.45950  Biso   1.000  F
  F23      1.0000 0.72990  0.86220  0.36030  Biso   1.000  F
  F24      1.0000 0.95220  0.85690  0.34490  Biso   1.000  F
