data_image0
_cell_length_a       11.253
_cell_length_b       25.161
_cell_length_c       18.172
_cell_angle_alpha    90
_cell_angle_beta     90
_cell_angle_gamma    90

_symmetry_space_group_name_H-M    P 1
_symmetry_int_tables_number       1

loop_
  _symmetry_equiv_pos_as_xyz
  'x, y, z'

loop_
  _atom_site_label
  _atom_site_occupancy
  _atom_site_fract_x
  _atom_site_fract_y
  _atom_site_fract_z
  _atom_site_thermal_displace_type
  _atom_site_B_iso_or_equiv
  _atom_site_type_symbol
  Zn1      1.0000 0.62027  0.02537  0.92641  Biso   1.000  Zn
  Zn2      1.0000 0.37973  0.47463  0.92641  Biso   1.000  Zn
  Zn3      1.0000 0.62027  0.97463  0.57359  Biso   1.000  Zn
  Zn4      1.0000 0.37973  0.52537  0.57359  Biso   1.000  Zn
  Zn5      1.0000 0.37973  0.97463  0.07359  Biso   1.000  Zn
  Zn6      1.0000 0.62027  0.52537  0.07359  Biso   1.000  Zn
  Zn7      1.0000 0.37973  0.02537  0.42641  Biso   1.000  Zn
  Zn8      1.0000 0.62027  0.47463  0.42641  Biso   1.000  Zn
  Zn9      1.0000 0.00000  0.75000  0.70985  Biso   1.000  Zn
  Zn10     1.0000 0.00000  0.25000  0.79015  Biso   1.000  Zn
  Zn11     1.0000 0.00000  0.25000  0.29015  Biso   1.000  Zn
  Zn12     1.0000 0.00000  0.75000  0.20985  Biso   1.000  Zn
  H1       1.0000 0.51010  0.94870  0.79280  Biso   1.000  H
  H2       1.0000 0.29510  0.84800  0.68710  Biso   1.000  H
  H3       1.0000 0.27480  0.86080  0.90600  Biso   1.000  H
  H4       1.0000 0.73550  0.92190  0.98510  Biso   1.000  H
  H5       1.0000 0.87310  0.85700  0.01710  Biso   1.000  H
  H6       1.0000 0.07270  0.86750  0.98890  Biso   1.000  H
  H7       1.0000 0.14060  0.94110  0.92800  Biso   1.000  H
  H8       1.0000 0.95260  0.14020  0.86940  Biso   1.000  H
  H9       1.0000 0.73450  0.04920  0.75020  Biso   1.000  H
  H10      1.0000 0.70920  0.11980  0.67110  Biso   1.000  H
  H11      1.0000 0.81030  0.19750  0.69140  Biso   1.000  H
  H12      1.0000 0.16350  0.02430  0.86550  Biso   1.000  H
  H13      1.0000 0.10150  0.07880  0.84900  Biso   1.000  H
  H14      1.0000 0.03560  0.04580  0.73470  Biso   1.000  H
  H15      1.0000 0.17460  0.04510  0.73920  Biso   1.000  H
  H16      1.0000 0.05900  0.76780  0.57990  Biso   1.000  H
  H17      1.0000 0.48990  0.55130  0.79280  Biso   1.000  H
  H18      1.0000 0.70490  0.65200  0.68710  Biso   1.000  H
  H19      1.0000 0.72520  0.63920  0.90600  Biso   1.000  H
  H20      1.0000 0.26450  0.57810  0.98510  Biso   1.000  H
  H21      1.0000 0.12690  0.64300  0.01710  Biso   1.000  H
  H22      1.0000 0.92730  0.63250  0.98890  Biso   1.000  H
  H23      1.0000 0.85940  0.55890  0.92800  Biso   1.000  H
  H24      1.0000 0.04740  0.35980  0.86940  Biso   1.000  H
  H25      1.0000 0.26550  0.45080  0.75020  Biso   1.000  H
  H26      1.0000 0.29080  0.38020  0.67110  Biso   1.000  H
  H27      1.0000 0.18970  0.30250  0.69140  Biso   1.000  H
  H28      1.0000 0.83650  0.47570  0.86550  Biso   1.000  H
  H29      1.0000 0.89850  0.42120  0.84900  Biso   1.000  H
  H30      1.0000 0.96440  0.45420  0.73470  Biso   1.000  H
  H31      1.0000 0.82540  0.45490  0.73920  Biso   1.000  H
  H32      1.0000 0.94100  0.73220  0.57990  Biso   1.000  H
  H33      1.0000 0.51010  0.05130  0.70720  Biso   1.000  H
  H34      1.0000 0.29510  0.15200  0.81290  Biso   1.000  H
  H35      1.0000 0.27480  0.13920  0.59400  Biso   1.000  H
  H36      1.0000 0.73550  0.07810  0.51490  Biso   1.000  H
  H37      1.0000 0.87310  0.14300  0.48290  Biso   1.000  H
  H38      1.0000 0.07270  0.13250  0.51110  Biso   1.000  H
  H39      1.0000 0.14060  0.05890  0.57200  Biso   1.000  H
  H40      1.0000 0.95260  0.85980  0.63060  Biso   1.000  H
  H41      1.0000 0.73450  0.95080  0.74980  Biso   1.000  H
  H42      1.0000 0.70920  0.88020  0.82890  Biso   1.000  H
  H43      1.0000 0.81030  0.80250  0.80860  Biso   1.000  H
  H44      1.0000 0.16350  0.97570  0.63450  Biso   1.000  H
  H45      1.0000 0.10150  0.92120  0.65100  Biso   1.000  H
  H46      1.0000 0.03560  0.95420  0.76530  Biso   1.000  H
  H47      1.0000 0.17460  0.95490  0.76080  Biso   1.000  H
  H48      1.0000 0.05900  0.23220  0.92010  Biso   1.000  H
  H49      1.0000 0.48990  0.44870  0.70720  Biso   1.000  H
  H50      1.0000 0.70490  0.34800  0.81290  Biso   1.000  H
  H51      1.0000 0.72520  0.36080  0.59400  Biso   1.000  H
  H52      1.0000 0.26450  0.42190  0.51490  Biso   1.000  H
  H53      1.0000 0.12690  0.35700  0.48290  Biso   1.000  H
  H54      1.0000 0.92730  0.36750  0.51110  Biso   1.000  H
  H55      1.0000 0.85940  0.44110  0.57200  Biso   1.000  H
  H56      1.0000 0.04740  0.64020  0.63060  Biso   1.000  H
  H57      1.0000 0.26550  0.54920  0.74980  Biso   1.000  H
  H58      1.0000 0.29080  0.61980  0.82890  Biso   1.000  H
  H59      1.0000 0.18970  0.69750  0.80860  Biso   1.000  H
  H60      1.0000 0.83650  0.52430  0.63450  Biso   1.000  H
  H61      1.0000 0.89850  0.57880  0.65100  Biso   1.000  H
  H62      1.0000 0.96440  0.54580  0.76530  Biso   1.000  H
  H63      1.0000 0.82540  0.54510  0.76080  Biso   1.000  H
  H64      1.0000 0.94100  0.26780  0.92010  Biso   1.000  H
  H65      1.0000 0.48990  0.05130  0.20720  Biso   1.000  H
  H66      1.0000 0.70490  0.15200  0.31290  Biso   1.000  H
  H67      1.0000 0.72520  0.13920  0.09400  Biso   1.000  H
  H68      1.0000 0.26450  0.07810  0.01490  Biso   1.000  H
  H69      1.0000 0.12690  0.14300  0.98290  Biso   1.000  H
  H70      1.0000 0.92730  0.13250  0.01110  Biso   1.000  H
  H71      1.0000 0.85940  0.05890  0.07200  Biso   1.000  H
  H72      1.0000 0.04740  0.85980  0.13060  Biso   1.000  H
  H73      1.0000 0.26550  0.95080  0.24980  Biso   1.000  H
  H74      1.0000 0.29080  0.88020  0.32890  Biso   1.000  H
  H75      1.0000 0.18970  0.80250  0.30860  Biso   1.000  H
  H76      1.0000 0.83650  0.97570  0.13450  Biso   1.000  H
  H77      1.0000 0.89850  0.92120  0.15100  Biso   1.000  H
  H78      1.0000 0.96440  0.95420  0.26530  Biso   1.000  H
  H79      1.0000 0.82540  0.95490  0.26080  Biso   1.000  H
  H80      1.0000 0.94100  0.23220  0.42010  Biso   1.000  H
  H81      1.0000 0.51010  0.44870  0.20720  Biso   1.000  H
  H82      1.0000 0.29510  0.34800  0.31290  Biso   1.000  H
  H83      1.0000 0.27480  0.36080  0.09400  Biso   1.000  H
  H84      1.0000 0.73550  0.42190  0.01490  Biso   1.000  H
  H85      1.0000 0.87310  0.35700  0.98290  Biso   1.000  H
  H86      1.0000 0.07270  0.36750  0.01110  Biso   1.000  H
  H87      1.0000 0.14060  0.44110  0.07200  Biso   1.000  H
  H88      1.0000 0.95260  0.64020  0.13060  Biso   1.000  H
  H89      1.0000 0.73450  0.54920  0.24980  Biso   1.000  H
  H90      1.0000 0.70920  0.61980  0.32890  Biso   1.000  H
  H91      1.0000 0.81030  0.69750  0.30860  Biso   1.000  H
  H92      1.0000 0.16350  0.52430  0.13450  Biso   1.000  H
  H93      1.0000 0.10150  0.57880  0.15100  Biso   1.000  H
  H94      1.0000 0.03560  0.54580  0.26530  Biso   1.000  H
  H95      1.0000 0.17460  0.54510  0.26080  Biso   1.000  H
  H96      1.0000 0.05900  0.26780  0.42010  Biso   1.000  H
  H97      1.0000 0.48990  0.94870  0.29280  Biso   1.000  H
  H98      1.0000 0.70490  0.84800  0.18710  Biso   1.000  H
  H99      1.0000 0.72520  0.86080  0.40600  Biso   1.000  H
  H100     1.0000 0.26450  0.92190  0.48510  Biso   1.000  H
  H101     1.0000 0.12690  0.85700  0.51710  Biso   1.000  H
  H102     1.0000 0.92730  0.86750  0.48890  Biso   1.000  H
  H103     1.0000 0.85940  0.94110  0.42800  Biso   1.000  H
  H104     1.0000 0.04740  0.14020  0.36940  Biso   1.000  H
  H105     1.0000 0.26550  0.04920  0.25020  Biso   1.000  H
  H106     1.0000 0.29080  0.11980  0.17110  Biso   1.000  H
  H107     1.0000 0.18970  0.19750  0.19140  Biso   1.000  H
  H108     1.0000 0.83650  0.02430  0.36550  Biso   1.000  H
  H109     1.0000 0.89850  0.07880  0.34900  Biso   1.000  H
  H110     1.0000 0.96440  0.04580  0.23470  Biso   1.000  H
  H111     1.0000 0.82540  0.04510  0.23920  Biso   1.000  H
  H112     1.0000 0.94100  0.76780  0.07990  Biso   1.000  H
  H113     1.0000 0.51010  0.55130  0.29280  Biso   1.000  H
  H114     1.0000 0.29510  0.65200  0.18710  Biso   1.000  H
  H115     1.0000 0.27480  0.63920  0.40600  Biso   1.000  H
  H116     1.0000 0.73550  0.57810  0.48510  Biso   1.000  H
  H117     1.0000 0.87310  0.64300  0.51710  Biso   1.000  H
  H118     1.0000 0.07270  0.63250  0.48890  Biso   1.000  H
  H119     1.0000 0.14060  0.55890  0.42800  Biso   1.000  H
  H120     1.0000 0.95260  0.35980  0.36940  Biso   1.000  H
  H121     1.0000 0.73450  0.45080  0.25020  Biso   1.000  H
  H122     1.0000 0.70920  0.38020  0.17110  Biso   1.000  H
  H123     1.0000 0.81030  0.30250  0.19140  Biso   1.000  H
  H124     1.0000 0.16350  0.47570  0.36550  Biso   1.000  H
  H125     1.0000 0.10150  0.42120  0.34900  Biso   1.000  H
  H126     1.0000 0.03560  0.45420  0.23470  Biso   1.000  H
  H127     1.0000 0.17460  0.45490  0.23920  Biso   1.000  H
  H128     1.0000 0.05900  0.73220  0.07990  Biso   1.000  H
  C1       1.0000 0.43640  0.93640  0.92920  Biso   1.000  C
  C2       1.0000 0.39770  0.90890  0.86070  Biso   1.000  C
  C3       1.0000 0.44940  0.92360  0.79370  Biso   1.000  C
  C4       1.0000 0.41060  0.90110  0.72940  Biso   1.000  C
  C5       1.0000 0.32140  0.86310  0.73090  Biso   1.000  C
  C6       1.0000 0.27120  0.84730  0.79690  Biso   1.000  C
  C7       1.0000 0.30910  0.87070  0.86150  Biso   1.000  C
  C8       1.0000 0.17270  0.80670  0.79630  Biso   1.000  C
  C9       1.0000 0.46380  0.91800  0.65770  Biso   1.000  C
  C10      1.0000 0.85580  0.96870  0.93230  Biso   1.000  C
  C11      1.0000 0.81510  0.92530  0.97220  Biso   1.000  C
  C12      1.0000 0.89780  0.88720  0.99200  Biso   1.000  C
  C13      1.0000 0.01910  0.89370  0.97460  Biso   1.000  C
  C14      1.0000 0.06010  0.93680  0.93780  Biso   1.000  C
  C15      1.0000 0.97610  0.97440  0.91500  Biso   1.000  C
  C16      1.0000 0.87410  0.04081  0.86660  Biso   1.000  C
  C17      1.0000 0.84920  0.08710  0.81910  Biso   1.000  C
  C18      1.0000 0.90370  0.13550  0.82870  Biso   1.000  C
  C19      1.0000 0.77390  0.08110  0.75840  Biso   1.000  C
  C20      1.0000 0.75940  0.12280  0.71150  Biso   1.000  C
  C21      1.0000 0.81950  0.16960  0.72450  Biso   1.000  C
  C22      1.0000 0.09620  0.04070  0.84120  Biso   1.000  C
  C23      1.0000 0.10280  0.02920  0.75890  Biso   1.000  C
  C24      1.0000 0.56360  0.56360  0.92920  Biso   1.000  C
  C25      1.0000 0.60230  0.59110  0.86070  Biso   1.000  C
  C26      1.0000 0.55060  0.57640  0.79370  Biso   1.000  C
  C27      1.0000 0.58940  0.59890  0.72940  Biso   1.000  C
  C28      1.0000 0.67860  0.63690  0.73090  Biso   1.000  C
  C29      1.0000 0.72880  0.65270  0.79690  Biso   1.000  C
  C30      1.0000 0.69090  0.62930  0.86150  Biso   1.000  C
  C31      1.0000 0.82730  0.69330  0.79630  Biso   1.000  C
  C32      1.0000 0.53620  0.58200  0.65770  Biso   1.000  C
  C33      1.0000 0.14420  0.53130  0.93230  Biso   1.000  C
  C34      1.0000 0.18490  0.57470  0.97220  Biso   1.000  C
  C35      1.0000 0.10220  0.61280  0.99200  Biso   1.000  C
  C36      1.0000 0.98090  0.60630  0.97460  Biso   1.000  C
  C37      1.0000 0.93990  0.56320  0.93780  Biso   1.000  C
  C38      1.0000 0.02390  0.52560  0.91500  Biso   1.000  C
  C39      1.0000 0.12590  0.45919  0.86660  Biso   1.000  C
  C40      1.0000 0.15080  0.41290  0.81910  Biso   1.000  C
  C41      1.0000 0.09630  0.36450  0.82870  Biso   1.000  C
  C42      1.0000 0.22610  0.41890  0.75840  Biso   1.000  C
  C43      1.0000 0.24060  0.37720  0.71150  Biso   1.000  C
  C44      1.0000 0.18050  0.33040  0.72450  Biso   1.000  C
  C45      1.0000 0.90380  0.45930  0.84120  Biso   1.000  C
  C46      1.0000 0.89720  0.47080  0.75890  Biso   1.000  C
  C47      1.0000 0.43640  0.06360  0.57080  Biso   1.000  C
  C48      1.0000 0.39770  0.09110  0.63930  Biso   1.000  C
  C49      1.0000 0.44940  0.07640  0.70630  Biso   1.000  C
  C50      1.0000 0.41060  0.09890  0.77060  Biso   1.000  C
  C51      1.0000 0.32140  0.13690  0.76910  Biso   1.000  C
  C52      1.0000 0.27120  0.15270  0.70310  Biso   1.000  C
  C53      1.0000 0.30910  0.12930  0.63850  Biso   1.000  C
  C54      1.0000 0.17270  0.19330  0.70370  Biso   1.000  C
  C55      1.0000 0.46380  0.08200  0.84230  Biso   1.000  C
  C56      1.0000 0.85580  0.03130  0.56770  Biso   1.000  C
  C57      1.0000 0.81510  0.07470  0.52780  Biso   1.000  C
  C58      1.0000 0.89780  0.11280  0.50800  Biso   1.000  C
  C59      1.0000 0.01910  0.10630  0.52540  Biso   1.000  C
  C60      1.0000 0.06010  0.06320  0.56220  Biso   1.000  C
  C61      1.0000 0.97610  0.02560  0.58500  Biso   1.000  C
  C62      1.0000 0.87410  0.95919  0.63340  Biso   1.000  C
  C63      1.0000 0.84920  0.91290  0.68090  Biso   1.000  C
  C64      1.0000 0.90370  0.86450  0.67130  Biso   1.000  C
  C65      1.0000 0.77390  0.91890  0.74160  Biso   1.000  C
  C66      1.0000 0.75940  0.87720  0.78850  Biso   1.000  C
  C67      1.0000 0.81950  0.83040  0.77550  Biso   1.000  C
  C68      1.0000 0.09620  0.95930  0.65880  Biso   1.000  C
  C69      1.0000 0.10280  0.97080  0.74110  Biso   1.000  C
  C70      1.0000 0.56360  0.43640  0.57080  Biso   1.000  C
  C71      1.0000 0.60230  0.40890  0.63930  Biso   1.000  C
  C72      1.0000 0.55060  0.42360  0.70630  Biso   1.000  C
  C73      1.0000 0.58940  0.40110  0.77060  Biso   1.000  C
  C74      1.0000 0.67860  0.36310  0.76910  Biso   1.000  C
  C75      1.0000 0.72880  0.34730  0.70310  Biso   1.000  C
  C76      1.0000 0.69090  0.37070  0.63850  Biso   1.000  C
  C77      1.0000 0.82730  0.30670  0.70370  Biso   1.000  C
  C78      1.0000 0.53620  0.41800  0.84230  Biso   1.000  C
  C79      1.0000 0.14420  0.46870  0.56770  Biso   1.000  C
  C80      1.0000 0.18490  0.42530  0.52780  Biso   1.000  C
  C81      1.0000 0.10220  0.38720  0.50800  Biso   1.000  C
  C82      1.0000 0.98090  0.39370  0.52540  Biso   1.000  C
  C83      1.0000 0.93990  0.43680  0.56220  Biso   1.000  C
  C84      1.0000 0.02390  0.47440  0.58500  Biso   1.000  C
  C85      1.0000 0.12590  0.54081  0.63340  Biso   1.000  C
  C86      1.0000 0.15080  0.58710  0.68090  Biso   1.000  C
  C87      1.0000 0.09630  0.63550  0.67130  Biso   1.000  C
  C88      1.0000 0.22610  0.58110  0.74160  Biso   1.000  C
  C89      1.0000 0.24060  0.62280  0.78850  Biso   1.000  C
  C90      1.0000 0.18050  0.66960  0.77550  Biso   1.000  C
  C91      1.0000 0.90380  0.54070  0.65880  Biso   1.000  C
  C92      1.0000 0.89720  0.52920  0.74110  Biso   1.000  C
  C93      1.0000 0.56360  0.06360  0.07080  Biso   1.000  C
  C94      1.0000 0.60230  0.09110  0.13930  Biso   1.000  C
  C95      1.0000 0.55060  0.07640  0.20630  Biso   1.000  C
  C96      1.0000 0.58940  0.09890  0.27060  Biso   1.000  C
  C97      1.0000 0.67860  0.13690  0.26910  Biso   1.000  C
  C98      1.0000 0.72880  0.15270  0.20310  Biso   1.000  C
  C99      1.0000 0.69090  0.12930  0.13850  Biso   1.000  C
  C100     1.0000 0.82730  0.19330  0.20370  Biso   1.000  C
  C101     1.0000 0.53620  0.08200  0.34230  Biso   1.000  C
  C102     1.0000 0.14420  0.03130  0.06770  Biso   1.000  C
  C103     1.0000 0.18490  0.07470  0.02780  Biso   1.000  C
  C104     1.0000 0.10220  0.11280  0.00800  Biso   1.000  C
  C105     1.0000 0.98090  0.10630  0.02540  Biso   1.000  C
  C106     1.0000 0.93990  0.06320  0.06220  Biso   1.000  C
  C107     1.0000 0.02390  0.02560  0.08500  Biso   1.000  C
  C108     1.0000 0.12590  0.95919  0.13340  Biso   1.000  C
  C109     1.0000 0.15080  0.91290  0.18090  Biso   1.000  C
  C110     1.0000 0.09630  0.86450  0.17130  Biso   1.000  C
  C111     1.0000 0.22610  0.91890  0.24160  Biso   1.000  C
  C112     1.0000 0.24060  0.87720  0.28850  Biso   1.000  C
  C113     1.0000 0.18050  0.83040  0.27550  Biso   1.000  C
  C114     1.0000 0.90380  0.95930  0.15880  Biso   1.000  C
  C115     1.0000 0.89720  0.97080  0.24110  Biso   1.000  C
  C116     1.0000 0.43640  0.43640  0.07080  Biso   1.000  C
  C117     1.0000 0.39770  0.40890  0.13930  Biso   1.000  C
  C118     1.0000 0.44940  0.42360  0.20630  Biso   1.000  C
  C119     1.0000 0.41060  0.40110  0.27060  Biso   1.000  C
  C120     1.0000 0.32140  0.36310  0.26910  Biso   1.000  C
  C121     1.0000 0.27120  0.34730  0.20310  Biso   1.000  C
  C122     1.0000 0.30910  0.37070  0.13850  Biso   1.000  C
  C123     1.0000 0.17270  0.30670  0.20370  Biso   1.000  C
  C124     1.0000 0.46380  0.41800  0.34230  Biso   1.000  C
  C125     1.0000 0.85580  0.46870  0.06770  Biso   1.000  C
  C126     1.0000 0.81510  0.42530  0.02780  Biso   1.000  C
  C127     1.0000 0.89780  0.38720  0.00800  Biso   1.000  C
  C128     1.0000 0.01910  0.39370  0.02540  Biso   1.000  C
  C129     1.0000 0.06010  0.43680  0.06220  Biso   1.000  C
  C130     1.0000 0.97610  0.47440  0.08500  Biso   1.000  C
  C131     1.0000 0.87410  0.54081  0.13340  Biso   1.000  C
  C132     1.0000 0.84920  0.58710  0.18090  Biso   1.000  C
  C133     1.0000 0.90370  0.63550  0.17130  Biso   1.000  C
  C134     1.0000 0.77390  0.58110  0.24160  Biso   1.000  C
  C135     1.0000 0.75940  0.62280  0.28850  Biso   1.000  C
  C136     1.0000 0.81950  0.66960  0.27550  Biso   1.000  C
  C137     1.0000 0.09620  0.54070  0.15880  Biso   1.000  C
  C138     1.0000 0.10280  0.52920  0.24110  Biso   1.000  C
  C139     1.0000 0.56360  0.93640  0.42920  Biso   1.000  C
  C140     1.0000 0.60230  0.90890  0.36070  Biso   1.000  C
  C141     1.0000 0.55060  0.92360  0.29370  Biso   1.000  C
  C142     1.0000 0.58940  0.90110  0.22940  Biso   1.000  C
  C143     1.0000 0.67860  0.86310  0.23090  Biso   1.000  C
  C144     1.0000 0.72880  0.84730  0.29690  Biso   1.000  C
  C145     1.0000 0.69090  0.87070  0.36150  Biso   1.000  C
  C146     1.0000 0.82730  0.80670  0.29630  Biso   1.000  C
  C147     1.0000 0.53620  0.91800  0.15770  Biso   1.000  C
  C148     1.0000 0.14420  0.96870  0.43230  Biso   1.000  C
  C149     1.0000 0.18490  0.92530  0.47220  Biso   1.000  C
  C150     1.0000 0.10220  0.88720  0.49200  Biso   1.000  C
  C151     1.0000 0.98090  0.89370  0.47460  Biso   1.000  C
  C152     1.0000 0.93990  0.93680  0.43780  Biso   1.000  C
  C153     1.0000 0.02390  0.97440  0.41500  Biso   1.000  C
  C154     1.0000 0.12590  0.04081  0.36660  Biso   1.000  C
  C155     1.0000 0.15080  0.08710  0.31910  Biso   1.000  C
  C156     1.0000 0.09630  0.13550  0.32870  Biso   1.000  C
  C157     1.0000 0.22610  0.08110  0.25840  Biso   1.000  C
  C158     1.0000 0.24060  0.12280  0.21150  Biso   1.000  C
  C159     1.0000 0.18050  0.16960  0.22450  Biso   1.000  C
  C160     1.0000 0.90380  0.04070  0.34120  Biso   1.000  C
  C161     1.0000 0.89720  0.02920  0.25890  Biso   1.000  C
  C162     1.0000 0.43640  0.56360  0.42920  Biso   1.000  C
  C163     1.0000 0.39770  0.59110  0.36070  Biso   1.000  C
  C164     1.0000 0.44940  0.57640  0.29370  Biso   1.000  C
  C165     1.0000 0.41060  0.59890  0.22940  Biso   1.000  C
  C166     1.0000 0.32140  0.63690  0.23090  Biso   1.000  C
  C167     1.0000 0.27120  0.65270  0.29690  Biso   1.000  C
  C168     1.0000 0.30910  0.62930  0.36150  Biso   1.000  C
  C169     1.0000 0.17270  0.69330  0.29630  Biso   1.000  C
  C170     1.0000 0.46380  0.58200  0.15770  Biso   1.000  C
  C171     1.0000 0.85580  0.53130  0.43230  Biso   1.000  C
  C172     1.0000 0.81510  0.57470  0.47220  Biso   1.000  C
  C173     1.0000 0.89780  0.61280  0.49200  Biso   1.000  C
  C174     1.0000 0.01910  0.60630  0.47460  Biso   1.000  C
  C175     1.0000 0.06010  0.56320  0.43780  Biso   1.000  C
  C176     1.0000 0.97610  0.52560  0.41500  Biso   1.000  C
  C177     1.0000 0.87410  0.45919  0.36660  Biso   1.000  C
  C178     1.0000 0.84920  0.41290  0.31910  Biso   1.000  C
  C179     1.0000 0.90370  0.36450  0.32870  Biso   1.000  C
  C180     1.0000 0.77390  0.41890  0.25840  Biso   1.000  C
  C181     1.0000 0.75940  0.37720  0.21150  Biso   1.000  C
  C182     1.0000 0.81950  0.33040  0.22450  Biso   1.000  C
  C183     1.0000 0.09620  0.45930  0.34120  Biso   1.000  C
  C184     1.0000 0.10280  0.47080  0.25890  Biso   1.000  C
  N1       1.0000 0.79380  0.01081  0.90098  Biso   1.000  N
  N2       1.0000 0.98560  0.02083  0.87460  Biso   1.000  N
  N3       1.0000 0.88960  0.17639  0.78180  Biso   1.000  N
  N4       1.0000 0.20620  0.48919  0.90098  Biso   1.000  N
  N5       1.0000 0.01440  0.47917  0.87460  Biso   1.000  N
  N6       1.0000 0.11040  0.32361  0.78180  Biso   1.000  N
  N7       1.0000 0.79380  0.98919  0.59902  Biso   1.000  N
  N8       1.0000 0.98560  0.97917  0.62540  Biso   1.000  N
  N9       1.0000 0.88960  0.82361  0.71820  Biso   1.000  N
  N10      1.0000 0.20620  0.51081  0.59902  Biso   1.000  N
  N11      1.0000 0.01440  0.52083  0.62540  Biso   1.000  N
  N12      1.0000 0.11040  0.67639  0.71820  Biso   1.000  N
  N13      1.0000 0.20620  0.98919  0.09902  Biso   1.000  N
  N14      1.0000 0.01440  0.97917  0.12540  Biso   1.000  N
  N15      1.0000 0.11040  0.82361  0.21820  Biso   1.000  N
  N16      1.0000 0.79380  0.51081  0.09902  Biso   1.000  N
  N17      1.0000 0.98560  0.52083  0.12540  Biso   1.000  N
  N18      1.0000 0.88960  0.67639  0.21820  Biso   1.000  N
  N19      1.0000 0.20620  0.01081  0.40098  Biso   1.000  N
  N20      1.0000 0.01440  0.02083  0.37460  Biso   1.000  N
  N21      1.0000 0.11040  0.17639  0.28180  Biso   1.000  N
  N22      1.0000 0.79380  0.48919  0.40098  Biso   1.000  N
  N23      1.0000 0.98560  0.47917  0.37460  Biso   1.000  N
  N24      1.0000 0.88960  0.32361  0.28180  Biso   1.000  N
  O1       1.0000 0.53880  0.95591  0.93325  Biso   1.000  O
  O2       1.0000 0.36060  0.93875  0.98033  Biso   1.000  O
  O3       1.0000 0.13710  0.79379  0.73300  Biso   1.000  O
  O4       1.0000 0.13510  0.78827  0.85500  Biso   1.000  O
  O5       1.0000 0.42040  0.90380  0.59920  Biso   1.000  O
  O6       1.0000 0.55240  0.94777  0.66196  Biso   1.000  O
  O7       1.0000 0.46120  0.54409  0.93325  Biso   1.000  O
  O8       1.0000 0.63940  0.56125  0.98033  Biso   1.000  O
  O9       1.0000 0.86290  0.70621  0.73300  Biso   1.000  O
  O10      1.0000 0.86490  0.71173  0.85500  Biso   1.000  O
  O11      1.0000 0.57960  0.59620  0.59920  Biso   1.000  O
  O12      1.0000 0.44760  0.55223  0.66196  Biso   1.000  O
  O13      1.0000 0.53880  0.04409  0.56675  Biso   1.000  O
  O14      1.0000 0.36060  0.06125  0.51967  Biso   1.000  O
  O15      1.0000 0.13710  0.20621  0.76700  Biso   1.000  O
  O16      1.0000 0.13510  0.21173  0.64500  Biso   1.000  O
  O17      1.0000 0.42040  0.09620  0.90080  Biso   1.000  O
  O18      1.0000 0.55240  0.05223  0.83804  Biso   1.000  O
  O19      1.0000 0.46120  0.45591  0.56675  Biso   1.000  O
  O20      1.0000 0.63940  0.43875  0.51967  Biso   1.000  O
  O21      1.0000 0.86290  0.29379  0.76700  Biso   1.000  O
  O22      1.0000 0.86490  0.28827  0.64500  Biso   1.000  O
  O23      1.0000 0.57960  0.40380  0.90080  Biso   1.000  O
  O24      1.0000 0.44760  0.44777  0.83804  Biso   1.000  O
  O25      1.0000 0.46120  0.04409  0.06675  Biso   1.000  O
  O26      1.0000 0.63940  0.06125  0.01967  Biso   1.000  O
  O27      1.0000 0.86290  0.20621  0.26700  Biso   1.000  O
  O28      1.0000 0.86490  0.21173  0.14500  Biso   1.000  O
  O29      1.0000 0.57960  0.09620  0.40080  Biso   1.000  O
  O30      1.0000 0.44760  0.05223  0.33804  Biso   1.000  O
  O31      1.0000 0.53880  0.45591  0.06675  Biso   1.000  O
  O32      1.0000 0.36060  0.43875  0.01967  Biso   1.000  O
  O33      1.0000 0.13710  0.29379  0.26700  Biso   1.000  O
  O34      1.0000 0.13510  0.28827  0.14500  Biso   1.000  O
  O35      1.0000 0.42040  0.40380  0.40080  Biso   1.000  O
  O36      1.0000 0.55240  0.44777  0.33804  Biso   1.000  O
  O37      1.0000 0.46120  0.95591  0.43325  Biso   1.000  O
  O38      1.0000 0.63940  0.93875  0.48033  Biso   1.000  O
  O39      1.0000 0.86290  0.79379  0.23300  Biso   1.000  O
  O40      1.0000 0.86490  0.78827  0.35500  Biso   1.000  O
  O41      1.0000 0.57960  0.90380  0.09920  Biso   1.000  O
  O42      1.0000 0.44760  0.94777  0.16196  Biso   1.000  O
  O43      1.0000 0.53880  0.54409  0.43325  Biso   1.000  O
  O44      1.0000 0.36060  0.56125  0.48033  Biso   1.000  O
  O45      1.0000 0.13710  0.70621  0.23300  Biso   1.000  O
  O46      1.0000 0.13510  0.71173  0.35500  Biso   1.000  O
  O47      1.0000 0.42040  0.59620  0.09920  Biso   1.000  O
  O48      1.0000 0.55240  0.55223  0.16196  Biso   1.000  O
  O49      1.0000 0.00000  0.75000  0.59860  Biso   1.000  O
  O50      1.0000 0.00000  0.25000  0.90140  Biso   1.000  O
  O51      1.0000 0.00000  0.25000  0.40140  Biso   1.000  O
  O52      1.0000 0.00000  0.75000  0.09860  Biso   1.000  O
