data_image0
_cell_length_a       15.028
_cell_length_b       18.8311
_cell_length_c       31.197
_cell_angle_alpha    100.273
_cell_angle_beta     90
_cell_angle_gamma    113.517

_symmetry_space_group_name_H-M    P 1
_symmetry_int_tables_number       1

loop_
  _symmetry_equiv_pos_as_xyz
  'x, y, z'

loop_
  _atom_site_label
  _atom_site_occupancy
  _atom_site_fract_x
  _atom_site_fract_y
  _atom_site_fract_z
  _atom_site_thermal_displace_type
  _atom_site_B_iso_or_equiv
  _atom_site_type_symbol
  Zn1      1.0000 0.37358  0.92920  0.26424  Biso   1.000  Zn
  Zn2      1.0000 0.30591  0.32550  0.43655  Biso   1.000  Zn
  Zn3      1.0000 0.63164  0.50414  0.61406  Biso   1.000  Zn
  Zn4      1.0000 0.55562  0.92920  0.76424  Biso   1.000  Zn
  Zn5      1.0000 0.01959  0.32550  0.93655  Biso   1.000  Zn
  Zn6      1.0000 0.87250  0.50414  0.11406  Biso   1.000  Zn
  H1       1.0000 0.59630  0.01100  0.28150  Biso   1.000  H
  H2       1.0000 0.72070  0.11560  0.32630  Biso   1.000  H
  H3       1.0000 0.51020  0.14840  0.39170  Biso   1.000  H
  H4       1.0000 0.38880  0.03180  0.35310  Biso   1.000  H
  H5       1.0000 0.17970  0.39780  0.47390  Biso   1.000  H
  H6       1.0000 0.01250  0.37540  0.47790  Biso   1.000  H
  H7       1.0000 0.95300  0.18740  0.38050  Biso   1.000  H
  H8       1.0000 0.11710  0.21140  0.38680  Biso   1.000  H
  H9       1.0000 0.51910  0.34940  0.54310  Biso   1.000  H
  H10      1.0000 0.57240  0.29940  0.48090  Biso   1.000  H
  H11      1.0000 0.84510  0.40440  0.52690  Biso   1.000  H
  H12      1.0000 0.79700  0.46840  0.58670  Biso   1.000  H
  H13      1.0000 0.83020  0.63060  0.64160  Biso   1.000  H
  H14      1.0000 0.96940  0.66000  0.68680  Biso   1.000  H
  H15      1.0000 0.82450  0.45880  0.73100  Biso   1.000  H
  H16      1.0000 0.68740  0.43980  0.68820  Biso   1.000  H
  H17      1.0000 0.46720  0.79820  0.80990  Biso   1.000  H
  H18      1.0000 0.32910  0.68360  0.80900  Biso   1.000  H
  H19      1.0000 0.22280  0.72860  0.70320  Biso   1.000  H
  H20      1.0000 0.36310  0.84380  0.71060  Biso   1.000  H
  H21      1.0000 0.89710  0.34360  0.86230  Biso   1.000  H
  H22      1.0000 0.91260  0.41460  0.80870  Biso   1.000  H
  H23      1.0000 0.18340  0.55160  0.86160  Biso   1.000  H
  H24      1.0000 0.16520  0.46260  0.90580  Biso   1.000  H
  H25      1.0000 0.41470  0.01100  0.78150  Biso   1.000  H
  H26      1.0000 0.39490  0.11560  0.82630  Biso   1.000  H
  H27      1.0000 0.63820  0.14840  0.89170  Biso   1.000  H
  H28      1.0000 0.64300  0.03180  0.85310  Biso   1.000  H
  H29      1.0000 0.21810  0.39780  0.97390  Biso   1.000  H
  H30      1.0000 0.36290  0.37540  0.97790  Biso   1.000  H
  H31      1.0000 0.23440  0.18740  0.88050  Biso   1.000  H
  H32      1.0000 0.09430  0.21140  0.88680  Biso   1.000  H
  H33      1.0000 0.83030  0.34940  0.04310  Biso   1.000  H
  H34      1.0000 0.72700  0.29940  0.98090  Biso   1.000  H
  H35      1.0000 0.55930  0.40440  0.02690  Biso   1.000  H
  H36      1.0000 0.67140  0.46840  0.08670  Biso   1.000  H
  H37      1.0000 0.80040  0.63060  0.14160  Biso   1.000  H
  H38      1.0000 0.69060  0.66000  0.18680  Biso   1.000  H
  H39      1.0000 0.63430  0.45880  0.23100  Biso   1.000  H
  H40      1.0000 0.75240  0.43980  0.18820  Biso   1.000  H
  H41      1.0000 0.33100  0.79820  0.30990  Biso   1.000  H
  H42      1.0000 0.35450  0.68360  0.30900  Biso   1.000  H
  H43      1.0000 0.50580  0.72860  0.20320  Biso   1.000  H
  H44      1.0000 0.48070  0.84380  0.21060  Biso   1.000  H
  H45      1.0000 0.44650  0.34360  0.36230  Biso   1.000  H
  H46      1.0000 0.50200  0.41460  0.30870  Biso   1.000  H
  H47      1.0000 0.36820  0.55160  0.36160  Biso   1.000  H
  H48      1.0000 0.29740  0.46260  0.40580  Biso   1.000  H
  C1       1.0000 0.57860  0.03820  0.30640  Biso   1.000  C
  C2       1.0000 0.65480  0.09760  0.33330  Biso   1.000  C
  C3       1.0000 0.62590  0.12780  0.37110  Biso   1.000  C
  C4       1.0000 0.52800  0.11260  0.37190  Biso   1.000  C
  C5       1.0000 0.45480  0.04920  0.34630  Biso   1.000  C
  C6       1.0000 0.70490  0.19360  0.40240  Biso   1.000  C
  C7       1.0000 0.85940  0.25980  0.43120  Biso   1.000  C
  C8       1.0000 0.74460  0.29360  0.46010  Biso   1.000  C
  C9       1.0000 0.13210  0.35200  0.45600  Biso   1.000  C
  C10      1.0000 0.03220  0.34040  0.45850  Biso   1.000  C
  C11      1.0000 0.96540  0.27320  0.43010  Biso   1.000  C
  C12      1.0000 0.99640  0.22920  0.40210  Biso   1.000  C
  C13      1.0000 0.09520  0.24600  0.40530  Biso   1.000  C
  C14      1.0000 0.58660  0.36460  0.53950  Biso   1.000  C
  C15      1.0000 0.62030  0.33160  0.50400  Biso   1.000  C
  C16      1.0000 0.71020  0.33820  0.49730  Biso   1.000  C
  C17      1.0000 0.77790  0.39300  0.52920  Biso   1.000  C
  C18      1.0000 0.74890  0.43180  0.56460  Biso   1.000  C
  C19      1.0000 0.82910  0.59600  0.66060  Biso   1.000  C
  C20      1.0000 0.91350  0.61220  0.68530  Biso   1.000  C
  C21      1.0000 0.91260  0.55520  0.70790  Biso   1.000  C
  C22      1.0000 0.82740  0.49360  0.71190  Biso   1.000  C
  C23      1.0000 0.74630  0.48420  0.68730  Biso   1.000  C
  C24      1.0000 0.99790  0.57000  0.73920  Biso   1.000  C
  C25      1.0000 0.15690  0.63540  0.76090  Biso   1.000  C
  C26      1.0000 0.06560  0.53460  0.79140  Biso   1.000  C
  C27      1.0000 0.41560  0.78420  0.78820  Biso   1.000  C
  C28      1.0000 0.33290  0.71720  0.78910  Biso   1.000  C
  C29      1.0000 0.25480  0.70120  0.75920  Biso   1.000  C
  C30      1.0000 0.26970  0.74360  0.72720  Biso   1.000  C
  C31      1.0000 0.35640  0.81020  0.73090  Biso   1.000  C
  C32      1.0000 0.95970  0.38300  0.86000  Biso   1.000  C
  C33      1.0000 0.96640  0.42700  0.82890  Biso   1.000  C
  C34      1.0000 0.05250  0.48920  0.82770  Biso   1.000  C
  C35      1.0000 0.12500  0.50520  0.85880  Biso   1.000  C
  C36      1.0000 0.11160  0.45260  0.88600  Biso   1.000  C
  C37      1.0000 0.45960  0.03820  0.80640  Biso   1.000  C
  C38      1.0000 0.44280  0.09760  0.83330  Biso   1.000  C
  C39      1.0000 0.50190  0.12780  0.87110  Biso   1.000  C
  C40      1.0000 0.58460  0.11260  0.87190  Biso   1.000  C
  C41      1.0000 0.59440  0.04920  0.84630  Biso   1.000  C
  C42      1.0000 0.48870  0.19360  0.90240  Biso   1.000  C
  C43      1.0000 0.40040  0.25980  0.93120  Biso   1.000  C
  C44      1.0000 0.54900  0.29360  0.96010  Biso   1.000  C
  C45      1.0000 0.21990  0.35200  0.95600  Biso   1.000  C
  C46      1.0000 0.30820  0.34040  0.95850  Biso   1.000  C
  C47      1.0000 0.30780  0.27320  0.93010  Biso   1.000  C
  C48      1.0000 0.23280  0.22920  0.90210  Biso   1.000  C
  C49      1.0000 0.15080  0.24600  0.90530  Biso   1.000  C
  C50      1.0000 0.77800  0.36460  0.03950  Biso   1.000  C
  C51      1.0000 0.71130  0.33160  0.00400  Biso   1.000  C
  C52      1.0000 0.62800  0.33820  0.99730  Biso   1.000  C
  C53      1.0000 0.61510  0.39300  0.02920  Biso   1.000  C
  C54      1.0000 0.68290  0.43180  0.06460  Biso   1.000  C
  C55      1.0000 0.76690  0.59600  0.16060  Biso   1.000  C
  C56      1.0000 0.69870  0.61220  0.18530  Biso   1.000  C
  C57      1.0000 0.64260  0.55520  0.20790  Biso   1.000  C
  C58      1.0000 0.66620  0.49360  0.21190  Biso   1.000  C
  C59      1.0000 0.73790  0.48420  0.18730  Biso   1.000  C
  C60      1.0000 0.57210  0.57000  0.23920  Biso   1.000  C
  C61      1.0000 0.47850  0.63540  0.26090  Biso   1.000  C
  C62      1.0000 0.46900  0.53460  0.29140  Biso   1.000  C
  C63      1.0000 0.36860  0.78420  0.28820  Biso   1.000  C
  C64      1.0000 0.38430  0.71720  0.28910  Biso   1.000  C
  C65      1.0000 0.44640  0.70120  0.25920  Biso   1.000  C
  C66      1.0000 0.47390  0.74360  0.22720  Biso   1.000  C
  C67      1.0000 0.45380  0.81020  0.23090  Biso   1.000  C
  C68      1.0000 0.42330  0.38300  0.36000  Biso   1.000  C
  C69      1.0000 0.46060  0.42700  0.32890  Biso   1.000  C
  C70      1.0000 0.43670  0.48920  0.32770  Biso   1.000  C
  C71      1.0000 0.38020  0.50520  0.35880  Biso   1.000  C
  C72      1.0000 0.34100  0.45260  0.38600  Biso   1.000  C
  I1       1.0000 0.21431  0.89564  0.30139  Biso   1.000  I
  I2       1.0000 0.40676  0.97550  0.19279  Biso   1.000  I
  I3       1.0000 0.33697  0.20216  0.41244  Biso   1.000  I
  I4       1.0000 0.37926  0.41772  0.51087  Biso   1.000  I
  I5       1.0000 0.65790  0.62164  0.58121  Biso   1.000  I
  I6       1.0000 0.48196  0.42638  0.65157  Biso   1.000  I
  I7       1.0000 0.68133  0.89564  0.80139  Biso   1.000  I
  I8       1.0000 0.56874  0.97550  0.69279  Biso   1.000  I
  I9       1.0000 0.86519  0.20216  0.91244  Biso   1.000  I
  I10      1.0000 0.03846  0.41772  0.01087  Biso   1.000  I
  I11      1.0000 0.96374  0.62164  0.08121  Biso   1.000  I
  I12      1.0000 0.94442  0.42638  0.15157  Biso   1.000  I
  N1       1.0000 0.48250  0.01380  0.31090  Biso   1.000  N
  N2       1.0000 0.79830  0.20580  0.39850  Biso   1.000  N
  N3       1.0000 0.83980  0.30980  0.46240  Biso   1.000  N
  N4       1.0000 0.67360  0.23140  0.43510  Biso   1.000  N
  N5       1.0000 0.16090  0.30680  0.43230  Biso   1.000  N
  N6       1.0000 0.65540  0.41980  0.56900  Biso   1.000  N
  N7       1.0000 0.74630  0.53420  0.66230  Biso   1.000  N
  N8       1.0000 0.08450  0.62300  0.73220  Biso   1.000  N
  N9       1.0000 0.15380  0.59000  0.78940  Biso   1.000  N
  N10      1.0000 0.98640  0.52140  0.76660  Biso   1.000  N
  N11      1.0000 0.42830  0.83020  0.75930  Biso   1.000  N
  N12      1.0000 0.03110  0.38920  0.88740  Biso   1.000  N
  N13      1.0000 0.53130  0.01380  0.81090  Biso   1.000  N
  N14      1.0000 0.40750  0.20580  0.89850  Biso   1.000  N
  N15      1.0000 0.47000  0.30980  0.96240  Biso   1.000  N
  N16      1.0000 0.55780  0.23140  0.93510  Biso   1.000  N
  N17      1.0000 0.14590  0.30680  0.93230  Biso   1.000  N
  N18      1.0000 0.76440  0.41980  0.06900  Biso   1.000  N
  N19      1.0000 0.78790  0.53420  0.16230  Biso   1.000  N
  N20      1.0000 0.53850  0.62300  0.23220  Biso   1.000  N
  N21      1.0000 0.43620  0.59000  0.28940  Biso   1.000  N
  N22      1.0000 0.53500  0.52140  0.26660  Biso   1.000  N
  N23      1.0000 0.40190  0.83020  0.25930  Biso   1.000  N
  N24      1.0000 0.35810  0.38920  0.38740  Biso   1.000  N
  Zn7      1.0000 0.65479  0.02016  0.48316  Biso   1.000  Zn
  Zn8      1.0000 0.04112  0.83936  0.80078  Biso   1.000  Zn
  Zn9      1.0000 0.11297  0.41086  0.65036  Biso   1.000  Zn
  Zn10     1.0000 0.36537  0.02016  0.98316  Biso   1.000  Zn
  Zn11     1.0000 0.79824  0.83936  0.30078  Biso   1.000  Zn
  Zn12     1.0000 0.29789  0.41086  0.15036  Biso   1.000  Zn
  H49      1.0000 0.75560  0.01540  0.55960  Biso   1.000  H
  H50      1.0000 0.73420  0.95140  0.61710  Biso   1.000  H
  H51      1.0000 0.47130  0.81480  0.56890  Biso   1.000  H
  H52      1.0000 0.49300  0.87380  0.50920  Biso   1.000  H
  H53      1.0000 0.83340  0.70440  0.76970  Biso   1.000  H
  H54      1.0000 0.69600  0.69780  0.73270  Biso   1.000  H
  H55      1.0000 0.84750  0.89800  0.69740  Biso   1.000  H
  H56      1.0000 0.98030  0.91380  0.74100  Biso   1.000  H
  H57      1.0000 0.24950  0.49560  0.59200  Biso   1.000  H
  H58      1.0000 0.39060  0.60340  0.58670  Biso   1.000  H
  H59      1.0000 0.43740  0.61980  0.71370  Biso   1.000  H
  H60      1.0000 0.28950  0.51960  0.71790  Biso   1.000  H
  H61      1.0000 0.26680  0.35500  0.63180  Biso   1.000  H
  H62      1.0000 0.30440  0.26740  0.58040  Biso   1.000  H
  H63      1.0000 0.03840  0.20320  0.51610  Biso   1.000  H
  H64      1.0000 0.00400  0.27820  0.57670  Biso   1.000  H
  H65      1.0000 0.47160  0.98020  0.42870  Biso   1.000  H
  H66      1.0000 0.32630  0.99060  0.43240  Biso   1.000  H
  H67      1.0000 0.43390  0.15040  0.54170  Biso   1.000  H
  H68      1.0000 0.57810  0.13420  0.53880  Biso   1.000  H
  H69      1.0000 0.85340  0.98320  0.36860  Biso   1.000  H
  H70      1.0000 0.96510  0.07400  0.42550  Biso   1.000  H
  H71      1.0000 0.10550  0.92080  0.40280  Biso   1.000  H
  H72      1.0000 0.98300  0.83780  0.34670  Biso   1.000  H
  H73      1.0000 0.25980  0.01540  0.05960  Biso   1.000  H
  H74      1.0000 0.21720  0.95140  0.11710  Biso   1.000  H
  H75      1.0000 0.34350  0.81480  0.06890  Biso   1.000  H
  H76      1.0000 0.38080  0.87380  0.00920  Biso   1.000  H
  H77      1.0000 0.87100  0.70440  0.26970  Biso   1.000  H
  H78      1.0000 0.00180  0.69780  0.23270  Biso   1.000  H
  H79      1.0000 0.05050  0.89800  0.19740  Biso   1.000  H
  H80      1.0000 0.93350  0.91380  0.24100  Biso   1.000  H
  H81      1.0000 0.24610  0.49560  0.09200  Biso   1.000  H
  H82      1.0000 0.21280  0.60340  0.08670  Biso   1.000  H
  H83      1.0000 0.18240  0.61980  0.21370  Biso   1.000  H
  H84      1.0000 0.23010  0.51960  0.21790  Biso   1.000  H
  H85      1.0000 0.08820  0.35500  0.13180  Biso   1.000  H
  H86      1.0000 0.96300  0.26740  0.08040  Biso   1.000  H
  H87      1.0000 0.16480  0.20320  0.01610  Biso   1.000  H
  H88      1.0000 0.27420  0.27820  0.07670  Biso   1.000  H
  H89      1.0000 0.50860  0.98020  0.92870  Biso   1.000  H
  H90      1.0000 0.66430  0.99060  0.93240  Biso   1.000  H
  H91      1.0000 0.71650  0.15040  0.04170  Biso   1.000  H
  H92      1.0000 0.55610  0.13420  0.03880  Biso   1.000  H
  H93      1.0000 0.12980  0.98320  0.86860  Biso   1.000  H
  H94      1.0000 0.10890  0.07400  0.92550  Biso   1.000  H
  H95      1.0000 0.81530  0.92080  0.90280  Biso   1.000  H
  H96      1.0000 0.85480  0.83780  0.84670  Biso   1.000  H
  C73      1.0000 0.69590  0.97180  0.56040  Biso   1.000  C
  C74      1.0000 0.68620  0.93000  0.59310  Biso   1.000  C
  C75      1.0000 0.61080  0.85940  0.59240  Biso   1.000  C
  C76      1.0000 0.53460  0.85080  0.56460  Biso   1.000  C
  C77      1.0000 0.54440  0.89080  0.53140  Biso   1.000  C
  C78      1.0000 0.60440  0.80620  0.62220  Biso   1.000  C
  C79      1.0000 0.67060  0.77540  0.67810  Biso   1.000  C
  C80      1.0000 0.51250  0.70540  0.65480  Biso   1.000  C
  C81      1.0000 0.83660  0.74580  0.75530  Biso   1.000  C
  C82      1.0000 0.75720  0.73880  0.73030  Biso   1.000  C
  C83      1.0000 0.76140  0.78760  0.70210  Biso   1.000  C
  C84      1.0000 0.84410  0.85560  0.71080  Biso   1.000  C
  C85      1.0000 0.92270  0.86660  0.73770  Biso   1.000  C
  C86      1.0000 0.28630  0.52600  0.61860  Biso   1.000  C
  C87      1.0000 0.37100  0.59020  0.61430  Biso   1.000  C
  C88      1.0000 0.42450  0.63340  0.65310  Biso   1.000  C
  C89      1.0000 0.39380  0.59860  0.68810  Biso   1.000  C
  C90      1.0000 0.30680  0.53620  0.69090  Biso   1.000  C
  C91      1.0000 0.21950  0.32160  0.60860  Biso   1.000  C
  C92      1.0000 0.24120  0.26740  0.57980  Biso   1.000  C
  C93      1.0000 0.16170  0.20880  0.54760  Biso   1.000  C
  C94      1.0000 0.08140  0.22620  0.54180  Biso   1.000  C
  C95      1.0000 0.06740  0.27860  0.57530  Biso   1.000  C
  C96      1.0000 0.17740  0.15140  0.51340  Biso   1.000  C
  C97      1.0000 0.26680  0.07900  0.49310  Biso   1.000  C
  C98      1.0000 0.12170  0.05460  0.45320  Biso   1.000  C
  C99      1.0000 0.46240  0.01260  0.45380  Biso   1.000  C
  C100     1.0000 0.37500  0.01880  0.45580  Biso   1.000  C
  C101     1.0000 0.35590  0.06400  0.49050  Biso   1.000  C
  C102     1.0000 0.43850  0.11080  0.51940  Biso   1.000  C
  C103     1.0000 0.52550  0.10280  0.51750  Biso   1.000  C
  C104     1.0000 0.90730  0.97260  0.37650  Biso   1.000  C
  C105     1.0000 0.97150  0.02840  0.40990  Biso   1.000  C
  C106     1.0000 0.05000  0.00420  0.41700  Biso   1.000  C
  C107     1.0000 0.05420  0.93480  0.39540  Biso   1.000  C
  C108     1.0000 0.98130  0.88520  0.36240  Biso   1.000  C
  C109     1.0000 0.27590  0.97180  0.06040  Biso   1.000  C
  C110     1.0000 0.24380  0.93000  0.09310  Biso   1.000  C
  C111     1.0000 0.24860  0.85940  0.09240  Biso   1.000  C
  C112     1.0000 0.31620  0.85080  0.06460  Biso   1.000  C
  C113     1.0000 0.34640  0.89080  0.03140  Biso   1.000  C
  C114     1.0000 0.20180  0.80620  0.12220  Biso   1.000  C
  C115     1.0000 0.10480  0.77540  0.17810  Biso   1.000  C
  C116     1.0000 0.19290  0.70540  0.15480  Biso   1.000  C
  C117     1.0000 0.90920  0.74580  0.25530  Biso   1.000  C
  C118     1.0000 0.98160  0.73880  0.23030  Biso   1.000  C
  C119     1.0000 0.02620  0.78760  0.20210  Biso   1.000  C
  C120     1.0000 0.01150  0.85560  0.21080  Biso   1.000  C
  C121     1.0000 0.94390  0.86660  0.23770  Biso   1.000  C
  C122     1.0000 0.23970  0.52600  0.11860  Biso   1.000  C
  C123     1.0000 0.21920  0.59020  0.11430  Biso   1.000  C
  C124     1.0000 0.20890  0.63340  0.15310  Biso   1.000  C
  C125     1.0000 0.20480  0.59860  0.18810  Biso   1.000  C
  C126     1.0000 0.22940  0.53620  0.19090  Biso   1.000  C
  C127     1.0000 0.10210  0.32160  0.10860  Biso   1.000  C
  C128     1.0000 0.02620  0.26740  0.07980  Biso   1.000  C
  C129     1.0000 0.04710  0.20880  0.04760  Biso   1.000  C
  C130     1.0000 0.14480  0.22620  0.04180  Biso   1.000  C
  C131     1.0000 0.21120  0.27860  0.07530  Biso   1.000  C
  C132     1.0000 0.97400  0.15140  0.01340  Biso   1.000  C
  C133     1.0000 0.81220  0.07900  0.99310  Biso   1.000  C
  C134     1.0000 0.93290  0.05460  0.95320  Biso   1.000  C
  C135     1.0000 0.55020  0.01260  0.95380  Biso   1.000  C
  C136     1.0000 0.64380  0.01880  0.95580  Biso   1.000  C
  C137     1.0000 0.70810  0.06400  0.99050  Biso   1.000  C
  C138     1.0000 0.67230  0.11080  0.01940  Biso   1.000  C
  C139     1.0000 0.57730  0.10280  0.01750  Biso   1.000  C
  C140     1.0000 0.06530  0.97260  0.87650  Biso   1.000  C
  C141     1.0000 0.05690  0.02840  0.90990  Biso   1.000  C
  C142     1.0000 0.95420  0.00420  0.91700  Biso   1.000  C
  C143     1.0000 0.88060  0.93480  0.89540  Biso   1.000  C
  C144     1.0000 0.90390  0.88520  0.86240  Biso   1.000  C
  I13      1.0000 0.64190  0.93470  0.40954  Biso   1.000  I
  I14      1.0000 0.80290  0.14826  0.51238  Biso   1.000  I
  I15      1.0000 0.18881  0.91624  0.76467  Biso   1.000  I
  I16      1.0000 0.01391  0.71826  0.83533  Biso   1.000  I
  I17      1.0000 0.98741  0.44558  0.61450  Biso   1.000  I
  I18      1.0000 0.10151  0.36520  0.72329  Biso   1.000  I
  I19      1.0000 0.29280  0.93470  0.90954  Biso   1.000  I
  I20      1.0000 0.34536  0.14826  0.01238  Biso   1.000  I
  I21      1.0000 0.72743  0.91624  0.26467  Biso   1.000  I
  I22      1.0000 0.70435  0.71826  0.33533  Biso   1.000  I
  I23      1.0000 0.45817  0.44558  0.11450  Biso   1.000  I
  I24      1.0000 0.26369  0.36520  0.22329  Biso   1.000  I
  N25      1.0000 0.62570  0.95360  0.53020  Biso   1.000  N
  N26      1.0000 0.68200  0.82060  0.64840  Biso   1.000  N
  N27      1.0000 0.58770  0.71420  0.68130  Biso   1.000  N
  N28      1.0000 0.52090  0.74560  0.62310  Biso   1.000  N
  N29      1.0000 0.91660  0.81020  0.75900  Biso   1.000  N
  N30      1.0000 0.24840  0.50040  0.65490  Biso   1.000  N
  N31      1.0000 0.13600  0.32980  0.60580  Biso   1.000  N
  N32      1.0000 0.26080  0.14000  0.51950  Biso   1.000  N
  N33      1.0000 0.19750  0.03540  0.46050  Biso   1.000  N
  N34      1.0000 0.10550  0.10640  0.48340  Biso   1.000  N
  N35      1.0000 0.53480  0.04860  0.48420  Biso   1.000  N
  N36      1.0000 0.90990  0.90660  0.35380  Biso   1.000  N
  N37      1.0000 0.32790  0.95360  0.03020  Biso   1.000  N
  N38      1.0000 0.13860  0.82060  0.14840  Biso   1.000  N
  N39      1.0000 0.12650  0.71420  0.18130  Biso   1.000  N
  N40      1.0000 0.22470  0.74560  0.12310  Biso   1.000  N
  N41      1.0000 0.89360  0.81020  0.25900  Biso   1.000  N
  N42      1.0000 0.25200  0.50040  0.15490  Biso   1.000  N
  N43      1.0000 0.19380  0.32980  0.10580  Biso   1.000  N
  N44      1.0000 0.87920  0.14000  0.01950  Biso   1.000  N
  N45      1.0000 0.83790  0.03540  0.96050  Biso   1.000  N
  N46      1.0000 0.00090  0.10640  0.98340  Biso   1.000  N
  N47      1.0000 0.51380  0.04860  0.98420  Biso   1.000  N
  N48      1.0000 0.99670  0.90660  0.85380  Biso   1.000  N
