data_image0
_cell_length_a       14.767
_cell_length_b       18.5814
_cell_length_c       30.7
_cell_angle_alpha    98.9879
_cell_angle_beta     90
_cell_angle_gamma    113.413

_symmetry_space_group_name_H-M    P 1
_symmetry_int_tables_number       1

loop_
  _symmetry_equiv_pos_as_xyz
  'x, y, z'

loop_
  _atom_site_label
  _atom_site_occupancy
  _atom_site_fract_x
  _atom_site_fract_y
  _atom_site_fract_z
  _atom_site_thermal_displace_type
  _atom_site_B_iso_or_equiv
  _atom_site_type_symbol
  Zn1      1.0000 0.02462  0.25888  0.55846  Biso   1.000  Zn
  Zn2      1.0000 0.97113  0.65722  0.73178  Biso   1.000  Zn
  Zn3      1.0000 0.29433  0.84334  0.90222  Biso   1.000  Zn
  Zn4      1.0000 0.23426  0.25888  0.05846  Biso   1.000  Zn
  Zn5      1.0000 0.68609  0.65722  0.23178  Biso   1.000  Zn
  Zn6      1.0000 0.54901  0.84334  0.40222  Biso   1.000  Zn
  H1       1.0000 0.04520  0.37240  0.64400  Biso   1.000  H
  H2       1.0000 0.16590  0.47380  0.69110  Biso   1.000  H
  H3       1.0000 0.37120  0.42700  0.62010  Biso   1.000  H
  H4       1.0000 0.24190  0.32700  0.57360  Biso   1.000  H
  H5       1.0000 0.46570  0.83040  0.86190  Biso   1.000  H
  H6       1.0000 0.51380  0.75460  0.80560  Biso   1.000  H
  H7       1.0000 0.22340  0.61120  0.77820  Biso   1.000  H
  H8       1.0000 0.18490  0.68780  0.83570  Biso   1.000  H
  H9       1.0000 0.78110  0.53980  0.67760  Biso   1.000  H
  H10      1.0000 0.61600  0.51880  0.66890  Biso   1.000  H
  H11      1.0000 0.67060  0.70820  0.76460  Biso   1.000  H
  H12      1.0000 0.83210  0.72200  0.77140  Biso   1.000  H
  H13      1.0000 0.34800  0.77300  0.97270  Biso   1.000  H
  H14      1.0000 0.48180  0.78740  0.01790  Biso   1.000  H
  H15      1.0000 0.64170  0.98860  0.97350  Biso   1.000  H
  H16      1.0000 0.50230  0.97160  0.93080  Biso   1.000  H
  H17      1.0000 0.84370  0.75980  0.18010  Biso   1.000  H
  H18      1.0000 0.86300  0.83660  0.12620  Biso   1.000  H
  H19      1.0000 0.56990  0.76600  0.11560  Biso   1.000  H
  H20      1.0000 0.55700  0.69240  0.17000  Biso   1.000  H
  H21      1.0000 0.05730  0.16020  0.99070  Biso   1.000  H
  H22      1.0000 0.90460  0.05200  0.98900  Biso   1.000  H
  H23      1.0000 0.96210  0.04460  0.11560  Biso   1.000  H
  H24      1.0000 0.11360  0.14700  0.11490  Biso   1.000  H
  H25      1.0000 0.32720  0.37240  0.14400  Biso   1.000  H
  H26      1.0000 0.30790  0.47380  0.19110  Biso   1.000  H
  H27      1.0000 0.05580  0.42700  0.12010  Biso   1.000  H
  H28      1.0000 0.08510  0.32700  0.07360  Biso   1.000  H
  H29      1.0000 0.36470  0.83040  0.36190  Biso   1.000  H
  H30      1.0000 0.24080  0.75460  0.30560  Biso   1.000  H
  H31      1.0000 0.38780  0.61120  0.27820  Biso   1.000  H
  H32      1.0000 0.50290  0.68780  0.33570  Biso   1.000  H
  H33      1.0000 0.75870  0.53980  0.17760  Biso   1.000  H
  H34      1.0000 0.90280  0.51880  0.16890  Biso   1.000  H
  H35      1.0000 0.03760  0.70820  0.26460  Biso   1.000  H
  H36      1.0000 0.88990  0.72200  0.27140  Biso   1.000  H
  H37      1.0000 0.42500  0.77300  0.47270  Biso   1.000  H
  H38      1.0000 0.30560  0.78740  0.51790  Biso   1.000  H
  H39      1.0000 0.34690  0.98860  0.47350  Biso   1.000  H
  H40      1.0000 0.46930  0.97160  0.43080  Biso   1.000  H
  H41      1.0000 0.91610  0.75980  0.68010  Biso   1.000  H
  H42      1.0000 0.97360  0.83660  0.62620  Biso   1.000  H
  H43      1.0000 0.19610  0.76600  0.61560  Biso   1.000  H
  H44      1.0000 0.13540  0.69240  0.67000  Biso   1.000  H
  H45      1.0000 0.10290  0.16020  0.49070  Biso   1.000  H
  H46      1.0000 0.14740  0.05200  0.48900  Biso   1.000  H
  H47      1.0000 0.08250  0.04460  0.61560  Biso   1.000  H
  H48      1.0000 0.03340  0.14700  0.61490  Biso   1.000  H
  C1       1.0000 0.11260  0.38460  0.63870  Biso   1.000  C
  C2       1.0000 0.18390  0.44440  0.66710  Biso   1.000  C
  C3       1.0000 0.28070  0.46100  0.66080  Biso   1.000  C
  C4       1.0000 0.30430  0.41720  0.62550  Biso   1.000  C
  C5       1.0000 0.22630  0.35780  0.59780  Biso   1.000  C
  C6       1.0000 0.35990  0.52580  0.69140  Biso   1.000  C
  C7       1.0000 0.40100  0.62760  0.74920  Biso   1.000  C
  C8       1.0000 0.51910  0.59740  0.71490  Biso   1.000  C
  C9       1.0000 0.41610  0.78420  0.84510  Biso   1.000  C
  C10      1.0000 0.44600  0.74020  0.81090  Biso   1.000  C
  C11      1.0000 0.37260  0.67520  0.78550  Biso   1.000  C
  C12      1.0000 0.27460  0.65580  0.79530  Biso   1.000  C
  C13      1.0000 0.25220  0.70120  0.82950  Biso   1.000  C
  C14      1.0000 0.75830  0.57480  0.69570  Biso   1.000  C
  C15      1.0000 0.65910  0.56140  0.69030  Biso   1.000  C
  C16      1.0000 0.62440  0.61020  0.71610  Biso   1.000  C
  C17      1.0000 0.69140  0.67220  0.74640  Biso   1.000  C
  C18      1.0000 0.78750  0.68040  0.74990  Biso   1.000  C
  C19      1.0000 0.40860  0.81780  0.97290  Biso   1.000  C
  C20      1.0000 0.48780  0.82620  0.00020  Biso   1.000  C
  C21      1.0000 0.57400  0.89060  0.00130  Biso   1.000  C
  C22      1.0000 0.58100  0.94420  0.97440  Biso   1.000  C
  C23      1.0000 0.49810  0.93260  0.94840  Biso   1.000  C
  C24      1.0000 0.66220  0.90060  0.02910  Biso   1.000  C
  C25      1.0000 0.72720  0.86320  0.08330  Biso   1.000  C
  C26      1.0000 0.82190  0.96640  0.05160  Biso   1.000  C
  C27      1.0000 0.78660  0.76200  0.16720  Biso   1.000  C
  C28      1.0000 0.79890  0.80780  0.13530  Biso   1.000  C
  C29      1.0000 0.71670  0.81180  0.11630  Biso   1.000  C
  C30      1.0000 0.62830  0.76700  0.12910  Biso   1.000  C
  C31      1.0000 0.62100  0.72260  0.16140  Biso   1.000  C
  C32      1.0000 0.03770  0.13580  0.01600  Biso   1.000  C
  C33      1.0000 0.94740  0.07120  0.01510  Biso   1.000  C
  C34      1.0000 0.91980  0.03540  0.05050  Biso   1.000  C
  C35      1.0000 0.98160  0.06640  0.08940  Biso   1.000  C
  C36      1.0000 0.06980  0.12820  0.08910  Biso   1.000  C
  C37      1.0000 0.27200  0.38460  0.13870  Biso   1.000  C
  C38      1.0000 0.26050  0.44440  0.16710  Biso   1.000  C
  C39      1.0000 0.18030  0.46100  0.16080  Biso   1.000  C
  C40      1.0000 0.11290  0.41720  0.12550  Biso   1.000  C
  C41      1.0000 0.13150  0.35780  0.09780  Biso   1.000  C
  C42      1.0000 0.16590  0.52580  0.19140  Biso   1.000  C
  C43      1.0000 0.22660  0.62760  0.24920  Biso   1.000  C
  C44      1.0000 0.07830  0.59740  0.21490  Biso   1.000  C
  C45      1.0000 0.36810  0.78420  0.34510  Biso   1.000  C
  C46      1.0000 0.29420  0.74020  0.31090  Biso   1.000  C
  C47      1.0000 0.30260  0.67520  0.28550  Biso   1.000  C
  C48      1.0000 0.38120  0.65580  0.29530  Biso   1.000  C
  C49      1.0000 0.44900  0.70120  0.32950  Biso   1.000  C
  C50      1.0000 0.81650  0.57480  0.19570  Biso   1.000  C
  C51      1.0000 0.90230  0.56140  0.19030  Biso   1.000  C
  C52      1.0000 0.98580  0.61020  0.21610  Biso   1.000  C
  C53      1.0000 0.98080  0.67220  0.24640  Biso   1.000  C
  C54      1.0000 0.89290  0.68040  0.24990  Biso   1.000  C
  C55      1.0000 0.40920  0.81780  0.47290  Biso   1.000  C
  C56      1.0000 0.33840  0.82620  0.50020  Biso   1.000  C
  C57      1.0000 0.31660  0.89060  0.50130  Biso   1.000  C
  C58      1.0000 0.36320  0.94420  0.47440  Biso   1.000  C
  C59      1.0000 0.43450  0.93260  0.44840  Biso   1.000  C
  C60      1.0000 0.23840  0.90060  0.52910  Biso   1.000  C
  C61      1.0000 0.13600  0.86320  0.58330  Biso   1.000  C
  C62      1.0000 0.14450  0.96640  0.55160  Biso   1.000  C
  C63      1.0000 0.97540  0.76200  0.66720  Biso   1.000  C
  C64      1.0000 0.00890  0.80780  0.63530  Biso   1.000  C
  C65      1.0000 0.09510  0.81180  0.61630  Biso   1.000  C
  C66      1.0000 0.13870  0.76700  0.62910  Biso   1.000  C
  C67      1.0000 0.10160  0.72260  0.66140  Biso   1.000  C
  C68      1.0000 0.09810  0.13580  0.51600  Biso   1.000  C
  C69      1.0000 0.12380  0.07120  0.51510  Biso   1.000  C
  C70      1.0000 0.11560  0.03540  0.55050  Biso   1.000  C
  C71      1.0000 0.08480  0.06640  0.58940  Biso   1.000  C
  C72      1.0000 0.05840  0.12820  0.58910  Biso   1.000  C
  I1       1.0000 0.86564  0.21778  0.59862  Biso   1.000  I
  I2       1.0000 0.05380  0.30922  0.48637  Biso   1.000  I
  I3       1.0000 0.99846  0.53134  0.70868  Biso   1.000  I
  I4       1.0000 0.03622  0.75142  0.80527  Biso   1.000  I
  I5       1.0000 0.14142  0.76590  0.93943  Biso   1.000  I
  I6       1.0000 0.33132  0.96494  0.86567  Biso   1.000  I
  I7       1.0000 0.35214  0.21778  0.09862  Biso   1.000  I
  I8       1.0000 0.25542  0.30922  0.98637  Biso   1.000  I
  I9       1.0000 0.53288  0.53134  0.20868  Biso   1.000  I
  I10      1.0000 0.71520  0.75142  0.30527  Biso   1.000  I
  I11      1.0000 0.62448  0.76590  0.43943  Biso   1.000  I
  I12      1.0000 0.63362  0.96494  0.36567  Biso   1.000  I
  N1       1.0000 0.13390  0.34280  0.60340  Biso   1.000  N
  N2       1.0000 0.32790  0.56560  0.72410  Biso   1.000  N
  N3       1.0000 0.49660  0.64660  0.74620  Biso   1.000  N
  N4       1.0000 0.45400  0.53860  0.68540  Biso   1.000  N
  N5       1.0000 0.32410  0.76520  0.85520  Biso   1.000  N
  N6       1.0000 0.82170  0.63280  0.72430  Biso   1.000  N
  N7       1.0000 0.41390  0.87020  0.94700  Biso   1.000  N
  N8       1.0000 0.64770  0.85160  0.05820  Biso   1.000  N
  N9       1.0000 0.81720  0.92020  0.08110  Biso   1.000  N
  N10      1.0000 0.74880  0.95900  0.02400  Biso   1.000  N
  N11      1.0000 0.09730  0.16320  0.05390  Biso   1.000  N
  N12      1.0000 0.69850  0.71960  0.18130  Biso   1.000  N
  N13      1.0000 0.20890  0.34280  0.10340  Biso   1.000  N
  N14      1.0000 0.23770  0.56560  0.22410  Biso   1.000  N
  N15      1.0000 0.15000  0.64660  0.24620  Biso   1.000  N
  N16      1.0000 0.08460  0.53860  0.18540  Biso   1.000  N
  N17      1.0000 0.44110  0.76520  0.35520  Biso   1.000  N
  N18      1.0000 0.81110  0.63280  0.22430  Biso   1.000  N
  N19      1.0000 0.45630  0.87020  0.44700  Biso   1.000  N
  N20      1.0000 0.20390  0.85160  0.55820  Biso   1.000  N
  N21      1.0000 0.10300  0.92020  0.58110  Biso   1.000  N
  N22      1.0000 0.21020  0.95900  0.52400  Biso   1.000  N
  N23      1.0000 0.06590  0.16320  0.55390  Biso   1.000  N
  N24      1.0000 0.02110  0.71960  0.68130  Biso   1.000  N
  Zn7      1.0000 0.76574  0.74112  0.94154  Biso   1.000  Zn
  Zn8      1.0000 0.31391  0.34278  0.76822  Biso   1.000  Zn
  Zn9      1.0000 0.45099  0.15666  0.59778  Biso   1.000  Zn
  Zn10     1.0000 0.97538  0.74112  0.44154  Biso   1.000  Zn
  Zn11     1.0000 0.02887  0.34278  0.26822  Biso   1.000  Zn
  Zn12     1.0000 0.70567  0.15666  0.09778  Biso   1.000  Zn
  H49      1.0000 0.67280  0.62760  0.85600  Biso   1.000  H
  H50      1.0000 0.69210  0.52620  0.80890  Biso   1.000  H
  H51      1.0000 0.94420  0.57300  0.87990  Biso   1.000  H
  H52      1.0000 0.91490  0.67300  0.92640  Biso   1.000  H
  H53      1.0000 0.63530  0.16960  0.63810  Biso   1.000  H
  H54      1.0000 0.75920  0.24540  0.69440  Biso   1.000  H
  H55      1.0000 0.61220  0.38880  0.72180  Biso   1.000  H
  H56      1.0000 0.49710  0.31220  0.66430  Biso   1.000  H
  H57      1.0000 0.24130  0.46020  0.82240  Biso   1.000  H
  H58      1.0000 0.09720  0.48120  0.83110  Biso   1.000  H
  H59      1.0000 0.96240  0.29180  0.73540  Biso   1.000  H
  H60      1.0000 0.11010  0.27800  0.72860  Biso   1.000  H
  H61      1.0000 0.57500  0.22700  0.52730  Biso   1.000  H
  H62      1.0000 0.69440  0.21260  0.48210  Biso   1.000  H
  H63      1.0000 0.65310  0.01140  0.52650  Biso   1.000  H
  H64      1.0000 0.53070  0.02840  0.56920  Biso   1.000  H
  H65      1.0000 0.08390  0.24020  0.31990  Biso   1.000  H
  H66      1.0000 0.02640  0.16340  0.37380  Biso   1.000  H
  H67      1.0000 0.80390  0.23400  0.38440  Biso   1.000  H
  H68      1.0000 0.86460  0.30760  0.33000  Biso   1.000  H
  H69      1.0000 0.89710  0.83980  0.50930  Biso   1.000  H
  H70      1.0000 0.85260  0.94800  0.51100  Biso   1.000  H
  H71      1.0000 0.91750  0.95540  0.38440  Biso   1.000  H
  H72      1.0000 0.96660  0.85300  0.38510  Biso   1.000  H
  H73      1.0000 0.95480  0.62760  0.35600  Biso   1.000  H
  H74      1.0000 0.83410  0.52620  0.30890  Biso   1.000  H
  H75      1.0000 0.62880  0.57300  0.37990  Biso   1.000  H
  H76      1.0000 0.75810  0.67300  0.42640  Biso   1.000  H
  H77      1.0000 0.53430  0.16960  0.13810  Biso   1.000  H
  H78      1.0000 0.48620  0.24540  0.19440  Biso   1.000  H
  H79      1.0000 0.77660  0.38880  0.22180  Biso   1.000  H
  H80      1.0000 0.81510  0.31220  0.16430  Biso   1.000  H
  H81      1.0000 0.21890  0.46020  0.32240  Biso   1.000  H
  H82      1.0000 0.38400  0.48120  0.33110  Biso   1.000  H
  H83      1.0000 0.32940  0.29180  0.23540  Biso   1.000  H
  H84      1.0000 0.16790  0.27800  0.22860  Biso   1.000  H
  H85      1.0000 0.65200  0.22700  0.02730  Biso   1.000  H
  H86      1.0000 0.51820  0.21260  0.98210  Biso   1.000  H
  H87      1.0000 0.35830  0.01140  0.02650  Biso   1.000  H
  H88      1.0000 0.49770  0.02840  0.06920  Biso   1.000  H
  H89      1.0000 0.15630  0.24020  0.81990  Biso   1.000  H
  H90      1.0000 0.13700  0.16340  0.87380  Biso   1.000  H
  H91      1.0000 0.43010  0.23400  0.88440  Biso   1.000  H
  H92      1.0000 0.44300  0.30760  0.83000  Biso   1.000  H
  H93      1.0000 0.94270  0.83980  0.00930  Biso   1.000  H
  H94      1.0000 0.09540  0.94800  0.01100  Biso   1.000  H
  H95      1.0000 0.03790  0.95540  0.88440  Biso   1.000  H
  H96      1.0000 0.88640  0.85300  0.88510  Biso   1.000  H
  C73      1.0000 0.72800  0.61540  0.86130  Biso   1.000  C
  C74      1.0000 0.73950  0.55560  0.83290  Biso   1.000  C
  C75      1.0000 0.81970  0.53900  0.83920  Biso   1.000  C
  C76      1.0000 0.88710  0.58280  0.87450  Biso   1.000  C
  C77      1.0000 0.86850  0.64220  0.90220  Biso   1.000  C
  C78      1.0000 0.83410  0.47420  0.80860  Biso   1.000  C
  C79      1.0000 0.77340  0.37240  0.75080  Biso   1.000  C
  C80      1.0000 0.92170  0.40260  0.78510  Biso   1.000  C
  C81      1.0000 0.63190  0.21580  0.65490  Biso   1.000  C
  C82      1.0000 0.70580  0.25980  0.68910  Biso   1.000  C
  C83      1.0000 0.69740  0.32480  0.71450  Biso   1.000  C
  C84      1.0000 0.61880  0.34420  0.70470  Biso   1.000  C
  C85      1.0000 0.55100  0.29880  0.67050  Biso   1.000  C
  C86      1.0000 0.18350  0.42520  0.80430  Biso   1.000  C
  C87      1.0000 0.09770  0.43860  0.80970  Biso   1.000  C
  C88      1.0000 0.01420  0.38980  0.78390  Biso   1.000  C
  C89      1.0000 0.01920  0.32780  0.75360  Biso   1.000  C
  C90      1.0000 0.10710  0.31960  0.75010  Biso   1.000  C
  C91      1.0000 0.59080  0.18220  0.52710  Biso   1.000  C
  C92      1.0000 0.66160  0.17380  0.49980  Biso   1.000  C
  C93      1.0000 0.68340  0.10940  0.49870  Biso   1.000  C
  C94      1.0000 0.63680  0.05580  0.52560  Biso   1.000  C
  C95      1.0000 0.56550  0.06740  0.55160  Biso   1.000  C
  C96      1.0000 0.76160  0.09940  0.47090  Biso   1.000  C
  C97      1.0000 0.86400  0.13680  0.41670  Biso   1.000  C
  C98      1.0000 0.85550  0.03360  0.44840  Biso   1.000  C
  C99      1.0000 0.02460  0.23800  0.33280  Biso   1.000  C
  C100     1.0000 0.99110  0.19220  0.36470  Biso   1.000  C
  C101     1.0000 0.90490  0.18820  0.38370  Biso   1.000  C
  C102     1.0000 0.86130  0.23300  0.37090  Biso   1.000  C
  C103     1.0000 0.89840  0.27740  0.33860  Biso   1.000  C
  C104     1.0000 0.90190  0.86420  0.48400  Biso   1.000  C
  C105     1.0000 0.87620  0.92880  0.48490  Biso   1.000  C
  C106     1.0000 0.88440  0.96460  0.44950  Biso   1.000  C
  C107     1.0000 0.91520  0.93360  0.41060  Biso   1.000  C
  C108     1.0000 0.94160  0.87180  0.41090  Biso   1.000  C
  C109     1.0000 0.88740  0.61540  0.36130  Biso   1.000  C
  C110     1.0000 0.81610  0.55560  0.33290  Biso   1.000  C
  C111     1.0000 0.71930  0.53900  0.33920  Biso   1.000  C
  C112     1.0000 0.69570  0.58280  0.37450  Biso   1.000  C
  C113     1.0000 0.77370  0.64220  0.40220  Biso   1.000  C
  C114     1.0000 0.64010  0.47420  0.30860  Biso   1.000  C
  C115     1.0000 0.59900  0.37240  0.25080  Biso   1.000  C
  C116     1.0000 0.48090  0.40260  0.28510  Biso   1.000  C
  C117     1.0000 0.58390  0.21580  0.15490  Biso   1.000  C
  C118     1.0000 0.55400  0.25980  0.18910  Biso   1.000  C
  C119     1.0000 0.62740  0.32480  0.21450  Biso   1.000  C
  C120     1.0000 0.72540  0.34420  0.20470  Biso   1.000  C
  C121     1.0000 0.74780  0.29880  0.17050  Biso   1.000  C
  C122     1.0000 0.24170  0.42520  0.30430  Biso   1.000  C
  C123     1.0000 0.34090  0.43860  0.30970  Biso   1.000  C
  C124     1.0000 0.37560  0.38980  0.28390  Biso   1.000  C
  C125     1.0000 0.30860  0.32780  0.25360  Biso   1.000  C
  C126     1.0000 0.21250  0.31960  0.25010  Biso   1.000  C
  C127     1.0000 0.59140  0.18220  0.02710  Biso   1.000  C
  C128     1.0000 0.51220  0.17380  0.99980  Biso   1.000  C
  C129     1.0000 0.42600  0.10940  0.99870  Biso   1.000  C
  C130     1.0000 0.41900  0.05580  0.02560  Biso   1.000  C
  C131     1.0000 0.50190  0.06740  0.05160  Biso   1.000  C
  C132     1.0000 0.33780  0.09940  0.97090  Biso   1.000  C
  C133     1.0000 0.27280  0.13680  0.91670  Biso   1.000  C
  C134     1.0000 0.17810  0.03360  0.94840  Biso   1.000  C
  C135     1.0000 0.21340  0.23800  0.83280  Biso   1.000  C
  C136     1.0000 0.20110  0.19220  0.86470  Biso   1.000  C
  C137     1.0000 0.28330  0.18820  0.88370  Biso   1.000  C
  C138     1.0000 0.37170  0.23300  0.87090  Biso   1.000  C
  C139     1.0000 0.37900  0.27740  0.83860  Biso   1.000  C
  C140     1.0000 0.96230  0.86420  0.98400  Biso   1.000  C
  C141     1.0000 0.05260  0.92880  0.98490  Biso   1.000  C
  C142     1.0000 0.08020  0.96460  0.94950  Biso   1.000  C
  C143     1.0000 0.01840  0.93360  0.91060  Biso   1.000  C
  C144     1.0000 0.93020  0.87180  0.91090  Biso   1.000  C
  I13      1.0000 0.64786  0.78222  0.90138  Biso   1.000  I
  I14      1.0000 0.74458  0.69078  0.01363  Biso   1.000  I
  I15      1.0000 0.46712  0.46866  0.79132  Biso   1.000  I
  I16      1.0000 0.28480  0.24858  0.69473  Biso   1.000  I
  I17      1.0000 0.37552  0.23410  0.56057  Biso   1.000  I
  I18      1.0000 0.36638  0.03506  0.63433  Biso   1.000  I
  I19      1.0000 0.13436  0.78222  0.40138  Biso   1.000  I
  I20      1.0000 0.94620  0.69078  0.51363  Biso   1.000  I
  I21      1.0000 0.00154  0.46866  0.29132  Biso   1.000  I
  I22      1.0000 0.96378  0.24858  0.19473  Biso   1.000  I
  I23      1.0000 0.85858  0.23410  0.06057  Biso   1.000  I
  I24      1.0000 0.66868  0.03506  0.13433  Biso   1.000  I
  N25      1.0000 0.79110  0.65720  0.89660  Biso   1.000  N
  N26      1.0000 0.76230  0.43440  0.77590  Biso   1.000  N
  N27      1.0000 0.85000  0.35340  0.75380  Biso   1.000  N
  N28      1.0000 0.91540  0.46140  0.81460  Biso   1.000  N
  N29      1.0000 0.55890  0.23480  0.64480  Biso   1.000  N
  N30      1.0000 0.18890  0.36720  0.77570  Biso   1.000  N
  N31      1.0000 0.54370  0.12980  0.55300  Biso   1.000  N
  N32      1.0000 0.79610  0.14840  0.44180  Biso   1.000  N
  N33      1.0000 0.89700  0.07980  0.41890  Biso   1.000  N
  N34      1.0000 0.78980  0.04100  0.47600  Biso   1.000  N
  N35      1.0000 0.93410  0.83680  0.44610  Biso   1.000  N
  N36      1.0000 0.97890  0.28040  0.31870  Biso   1.000  N
  N37      1.0000 0.86610  0.65720  0.39660  Biso   1.000  N
  N38      1.0000 0.67210  0.43440  0.27590  Biso   1.000  N
  N39      1.0000 0.50340  0.35340  0.25380  Biso   1.000  N
  N40      1.0000 0.54600  0.46140  0.31460  Biso   1.000  N
  N41      1.0000 0.67590  0.23480  0.14480  Biso   1.000  N
  N42      1.0000 0.17830  0.36720  0.27570  Biso   1.000  N
  N43      1.0000 0.58610  0.12980  0.05300  Biso   1.000  N
  N44      1.0000 0.35230  0.14840  0.94180  Biso   1.000  N
  N45      1.0000 0.18280  0.07980  0.91890  Biso   1.000  N
  N46      1.0000 0.25120  0.04100  0.97600  Biso   1.000  N
  N47      1.0000 0.90270  0.83680  0.94610  Biso   1.000  N
  N48      1.0000 0.30150  0.28040  0.81870  Biso   1.000  N
