data_image0
_cell_length_a       14.95
_cell_length_b       18.8284
_cell_length_c       30.348
_cell_angle_alpha    99.2797
_cell_angle_beta     90
_cell_angle_gamma    113.391

_symmetry_space_group_name_H-M    P 1
_symmetry_int_tables_number       1

loop_
  _symmetry_equiv_pos_as_xyz
  'x, y, z'

loop_
  _atom_site_label
  _atom_site_occupancy
  _atom_site_fract_x
  _atom_site_fract_y
  _atom_site_fract_z
  _atom_site_thermal_displace_type
  _atom_site_B_iso_or_equiv
  _atom_site_type_symbol
  Zn1      1.0000 0.22673  0.25928  0.05641  Biso   1.000  Zn
  Zn2      1.0000 0.29138  0.83466  0.90566  Biso   1.000  Zn
  Zn3      1.0000 0.96618  0.65494  0.72997  Biso   1.000  Zn
  Zn4      1.0000 0.03255  0.25928  0.55641  Biso   1.000  Zn
  Zn5      1.0000 0.54328  0.83466  0.40566  Biso   1.000  Zn
  Zn6      1.0000 0.68876  0.65494  0.22997  Biso   1.000  Zn
  H1       1.0000 0.10490  0.16080  0.11630  Biso   1.000  H
  H2       1.0000 0.95550  0.06280  0.11830  Biso   1.000  H
  H3       1.0000 0.89980  0.05340  0.98830  Biso   1.000  H
  H4       1.0000 0.05230  0.15420  0.98810  Biso   1.000  H
  H5       1.0000 0.57160  0.66860  0.15440  Biso   1.000  H
  H6       1.0000 0.58410  0.74700  0.10160  Biso   1.000  H
  H7       1.0000 0.85760  0.87140  0.14960  Biso   1.000  H
  H8       1.0000 0.84300  0.77680  0.19090  Biso   1.000  H
  H9       1.0000 0.49680  0.96540  0.93260  Biso   1.000  H
  H10      1.0000 0.63640  0.98600  0.97190  Biso   1.000  H
  H11      1.0000 0.48090  0.79300  0.02490  Biso   1.000  H
  H12      1.0000 0.35010  0.77560  0.97930  Biso   1.000  H
  H13      1.0000 0.46520  0.81960  0.86390  Biso   1.000  H
  H14      1.0000 0.51070  0.73760  0.81540  Biso   1.000  H
  H15      1.0000 0.22450  0.60980  0.77700  Biso   1.000  H
  H16      1.0000 0.18760  0.68740  0.83540  Biso   1.000  H
  H17      1.0000 0.82910  0.71900  0.77010  Biso   1.000  H
  H18      1.0000 0.66840  0.69820  0.76930  Biso   1.000  H
  H19      1.0000 0.61630  0.51780  0.66670  Biso   1.000  H
  H20      1.0000 0.77910  0.53980  0.67520  Biso   1.000  H
  H21      1.0000 0.05040  0.37920  0.63890  Biso   1.000  H
  H22      1.0000 0.17170  0.47640  0.69080  Biso   1.000  H
  H23      1.0000 0.37440  0.42560  0.61970  Biso   1.000  H
  H24      1.0000 0.24830  0.33160  0.57110  Biso   1.000  H
  H25      1.0000 0.05590  0.16080  0.61630  Biso   1.000  H
  H26      1.0000 0.10730  0.06280  0.61830  Biso   1.000  H
  H27      1.0000 0.15360  0.05340  0.48830  Biso   1.000  H
  H28      1.0000 0.10190  0.15420  0.48810  Biso   1.000  H
  H29      1.0000 0.09700  0.66860  0.65440  Biso   1.000  H
  H30      1.0000 0.16290  0.74700  0.60160  Biso   1.000  H
  H31      1.0000 0.01380  0.87140  0.64960  Biso   1.000  H
  H32      1.0000 0.93380  0.77680  0.69090  Biso   1.000  H
  H33      1.0000 0.46860  0.96540  0.43260  Biso   1.000  H
  H34      1.0000 0.34960  0.98600  0.47190  Biso   1.000  H
  H35      1.0000 0.31210  0.79300  0.52490  Biso   1.000  H
  H36      1.0000 0.42550  0.77560  0.47930  Biso   1.000  H
  H37      1.0000 0.35440  0.81960  0.36390  Biso   1.000  H
  H38      1.0000 0.22690  0.73760  0.31540  Biso   1.000  H
  H39      1.0000 0.38530  0.60980  0.27700  Biso   1.000  H
  H40      1.0000 0.49980  0.68740  0.33540  Biso   1.000  H
  H41      1.0000 0.88990  0.71900  0.27010  Biso   1.000  H
  H42      1.0000 0.02980  0.69820  0.26930  Biso   1.000  H
  H43      1.0000 0.90150  0.51780  0.16670  Biso   1.000  H
  H44      1.0000 0.76070  0.53980  0.17520  Biso   1.000  H
  H45      1.0000 0.32880  0.37920  0.13890  Biso   1.000  H
  H46      1.0000 0.30470  0.47640  0.19080  Biso   1.000  H
  H47      1.0000 0.05120  0.42560  0.11970  Biso   1.000  H
  H48      1.0000 0.08330  0.33160  0.07110  Biso   1.000  H
  C1       1.0000 0.06290  0.13880  0.08970  Biso   1.000  C
  C2       1.0000 0.97640  0.07880  0.09050  Biso   1.000  C
  C3       1.0000 0.91610  0.04000  0.05240  Biso   1.000  C
  C4       1.0000 0.94280  0.07300  0.01460  Biso   1.000  C
  C5       1.0000 0.03210  0.13480  0.01500  Biso   1.000  C
  C6       1.0000 0.82120  0.97160  0.05280  Biso   1.000  C
  C7       1.0000 0.73190  0.87100  0.08610  Biso   1.000  C
  C8       1.0000 0.66360  0.90400  0.03100  Biso   1.000  C
  C9       1.0000 0.63190  0.71160  0.15300  Biso   1.000  C
  C10      1.0000 0.63870  0.75880  0.12180  Biso   1.000  C
  C11      1.0000 0.72200  0.82100  0.11980  Biso   1.000  C
  C12      1.0000 0.79650  0.82800  0.14850  Biso   1.000  C
  C13      1.0000 0.78620  0.77460  0.17570  Biso   1.000  C
  C14      1.0000 0.49560  0.92780  0.95030  Biso   1.000  C
  C15      1.0000 0.57840  0.94180  0.97440  Biso   1.000  C
  C16      1.0000 0.57860  0.89180  0.00240  Biso   1.000  C
  C17      1.0000 0.48740  0.82820  0.00470  Biso   1.000  C
  C18      1.0000 0.41020  0.81900  0.97770  Biso   1.000  C
  C19      1.0000 0.41530  0.77300  0.84800  Biso   1.000  C
  C20      1.0000 0.44370  0.72840  0.81730  Biso   1.000  C
  C21      1.0000 0.37190  0.66820  0.78850  Biso   1.000  C
  C22      1.0000 0.27540  0.65200  0.79560  Biso   1.000  C
  C23      1.0000 0.25430  0.69840  0.83070  Biso   1.000  C
  C24      1.0000 0.39880  0.62020  0.75100  Biso   1.000  C
  C25      1.0000 0.51820  0.59300  0.71650  Biso   1.000  C
  C26      1.0000 0.35830  0.52240  0.69130  Biso   1.000  C
  C27      1.0000 0.78430  0.67640  0.74930  Biso   1.000  C
  C28      1.0000 0.68940  0.66560  0.74850  Biso   1.000  C
  C29      1.0000 0.62320  0.60660  0.71700  Biso   1.000  C
  C30      1.0000 0.65860  0.55920  0.68890  Biso   1.000  C
  C31      1.0000 0.75580  0.57340  0.69380  Biso   1.000  C
  C32      1.0000 0.11700  0.38820  0.63560  Biso   1.000  C
  C33      1.0000 0.18890  0.44680  0.66650  Biso   1.000  C
  C34      1.0000 0.28380  0.45940  0.66040  Biso   1.000  C
  C35      1.0000 0.30820  0.41660  0.62450  Biso   1.000  C
  C36      1.0000 0.23240  0.36060  0.59620  Biso   1.000  C
  C37      1.0000 0.07590  0.13880  0.58970  Biso   1.000  C
  C38      1.0000 0.10240  0.07880  0.59050  Biso   1.000  C
  C39      1.0000 0.12390  0.04000  0.55240  Biso   1.000  C
  C40      1.0000 0.13020  0.07300  0.51460  Biso   1.000  C
  C41      1.0000 0.10270  0.13480  0.51500  Biso   1.000  C
  C42      1.0000 0.15040  0.97160  0.55280  Biso   1.000  C
  C43      1.0000 0.13910  0.87100  0.58610  Biso   1.000  C
  C44      1.0000 0.24040  0.90400  0.53100  Biso   1.000  C
  C45      1.0000 0.07970  0.71160  0.65300  Biso   1.000  C
  C46      1.0000 0.12010  0.75880  0.62180  Biso   1.000  C
  C47      1.0000 0.09900  0.82100  0.61980  Biso   1.000  C
  C48      1.0000 0.03150  0.82800  0.64850  Biso   1.000  C
  C49      1.0000 0.98840  0.77460  0.67570  Biso   1.000  C
  C50      1.0000 0.43220  0.92780  0.45030  Biso   1.000  C
  C51      1.0000 0.36340  0.94180  0.47440  Biso   1.000  C
  C52      1.0000 0.31320  0.89180  0.50240  Biso   1.000  C
  C53      1.0000 0.34080  0.82820  0.50470  Biso   1.000  C
  C54      1.0000 0.40880  0.81900  0.47770  Biso   1.000  C
  C55      1.0000 0.35770  0.77300  0.34800  Biso   1.000  C
  C56      1.0000 0.28470  0.72840  0.31730  Biso   1.000  C
  C57      1.0000 0.29630  0.66820  0.28850  Biso   1.000  C
  C58      1.0000 0.37660  0.65200  0.29560  Biso   1.000  C
  C59      1.0000 0.44410  0.69840  0.33070  Biso   1.000  C
  C60      1.0000 0.22140  0.62020  0.25100  Biso   1.000  C
  C61      1.0000 0.07480  0.59300  0.21650  Biso   1.000  C
  C62      1.0000 0.16410  0.52240  0.19130  Biso   1.000  C
  C63      1.0000 0.89210  0.67640  0.24930  Biso   1.000  C
  C64      1.0000 0.97620  0.66560  0.24850  Biso   1.000  C
  C65      1.0000 0.98340  0.60660  0.21700  Biso   1.000  C
  C66      1.0000 0.90060  0.55920  0.18890  Biso   1.000  C
  C67      1.0000 0.81760  0.57340  0.19380  Biso   1.000  C
  C68      1.0000 0.27120  0.38820  0.13560  Biso   1.000  C
  C69      1.0000 0.25790  0.44680  0.16650  Biso   1.000  C
  C70      1.0000 0.17560  0.45940  0.16040  Biso   1.000  C
  C71      1.0000 0.10840  0.41660  0.12450  Biso   1.000  C
  C72      1.0000 0.12820  0.36060  0.09620  Biso   1.000  C
  I1       1.0000 0.24876  0.30424  0.98247  Biso   1.000  I
  I2       1.0000 0.34094  0.21742  0.09657  Biso   1.000  I
  I3       1.0000 0.31972  0.95120  0.86706  Biso   1.000  I
  I4       1.0000 0.14406  0.75872  0.94483  Biso   1.000  I
  I5       1.0000 0.03098  0.74064  0.80584  Biso   1.000  I
  I6       1.0000 0.99654  0.53242  0.70462  Biso   1.000  I
  I7       1.0000 0.05548  0.30424  0.48247  Biso   1.000  I
  I8       1.0000 0.87648  0.21742  0.59657  Biso   1.000  I
  I9       1.0000 0.63148  0.95120  0.36706  Biso   1.000  I
  I10      1.0000 0.61466  0.75872  0.44483  Biso   1.000  I
  I11      1.0000 0.70966  0.74064  0.30584  Biso   1.000  I
  I12      1.0000 0.53588  0.53242  0.20462  Biso   1.000  I
  N1       1.0000 0.09190  0.16840  0.05280  Biso   1.000  N
  N2       1.0000 0.81870  0.92760  0.08460  Biso   1.000  N
  N3       1.0000 0.65030  0.85700  0.06090  Biso   1.000  N
  N4       1.0000 0.74930  0.96120  0.02380  Biso   1.000  N
  N5       1.0000 0.70690  0.72400  0.18130  Biso   1.000  N
  N6       1.0000 0.41210  0.86520  0.94950  Biso   1.000  N
  N7       1.0000 0.32260  0.75820  0.85850  Biso   1.000  N
  N8       1.0000 0.49560  0.63920  0.74890  Biso   1.000  N
  N9       1.0000 0.45640  0.53680  0.68800  Biso   1.000  N
  N10      1.0000 0.32950  0.56300  0.72480  Biso   1.000  N
  N11      1.0000 0.81880  0.63200  0.72330  Biso   1.000  N
  N12      1.0000 0.13930  0.34440  0.60150  Biso   1.000  N
  N13      1.0000 0.07650  0.16840  0.55280  Biso   1.000  N
  N14      1.0000 0.10890  0.92760  0.58460  Biso   1.000  N
  N15      1.0000 0.20670  0.85700  0.56090  Biso   1.000  N
  N16      1.0000 0.21190  0.96120  0.52380  Biso   1.000  N
  N17      1.0000 0.01710  0.72400  0.68130  Biso   1.000  N
  N18      1.0000 0.45310  0.86520  0.44950  Biso   1.000  N
  N19      1.0000 0.43560  0.75820  0.35850  Biso   1.000  N
  N20      1.0000 0.14360  0.63920  0.24890  Biso   1.000  N
  N21      1.0000 0.08040  0.53680  0.18800  Biso   1.000  N
  N22      1.0000 0.23350  0.56300  0.22480  Biso   1.000  N
  N23      1.0000 0.81320  0.63200  0.22330  Biso   1.000  N
  N24      1.0000 0.20510  0.34440  0.10150  Biso   1.000  N
  Zn7      1.0000 0.96745  0.74072  0.44359  Biso   1.000  Zn
  Zn8      1.0000 0.45672  0.16534  0.59434  Biso   1.000  Zn
  Zn9      1.0000 0.31124  0.34506  0.77003  Biso   1.000  Zn
  Zn10     1.0000 0.77327  0.74072  0.94359  Biso   1.000  Zn
  Zn11     1.0000 0.70862  0.16534  0.09434  Biso   1.000  Zn
  Zn12     1.0000 0.03382  0.34506  0.27003  Biso   1.000  Zn
  H49      1.0000 0.94410  0.83920  0.38370  Biso   1.000  H
  H50      1.0000 0.89270  0.93720  0.38170  Biso   1.000  H
  H51      1.0000 0.84640  0.94660  0.51170  Biso   1.000  H
  H52      1.0000 0.89810  0.84580  0.51190  Biso   1.000  H
  H53      1.0000 0.90300  0.33140  0.34560  Biso   1.000  H
  H54      1.0000 0.83710  0.25300  0.39840  Biso   1.000  H
  H55      1.0000 0.98620  0.12860  0.35040  Biso   1.000  H
  H56      1.0000 0.06620  0.22320  0.30910  Biso   1.000  H
  H57      1.0000 0.53140  0.03460  0.56740  Biso   1.000  H
  H58      1.0000 0.65040  0.01400  0.52810  Biso   1.000  H
  H59      1.0000 0.68790  0.20700  0.47510  Biso   1.000  H
  H60      1.0000 0.57450  0.22440  0.52070  Biso   1.000  H
  H61      1.0000 0.64560  0.18040  0.63610  Biso   1.000  H
  H62      1.0000 0.77310  0.26240  0.68460  Biso   1.000  H
  H63      1.0000 0.61470  0.39020  0.72300  Biso   1.000  H
  H64      1.0000 0.50020  0.31260  0.66460  Biso   1.000  H
  H65      1.0000 0.11010  0.28100  0.72990  Biso   1.000  H
  H66      1.0000 0.97020  0.30180  0.73070  Biso   1.000  H
  H67      1.0000 0.09850  0.48220  0.83330  Biso   1.000  H
  H68      1.0000 0.23930  0.46020  0.82480  Biso   1.000  H
  H69      1.0000 0.67120  0.62080  0.86110  Biso   1.000  H
  H70      1.0000 0.69530  0.52360  0.80920  Biso   1.000  H
  H71      1.0000 0.94880  0.57440  0.88030  Biso   1.000  H
  H72      1.0000 0.91670  0.66840  0.92890  Biso   1.000  H
  H73      1.0000 0.89510  0.83920  0.88370  Biso   1.000  H
  H74      1.0000 0.04450  0.93720  0.88170  Biso   1.000  H
  H75      1.0000 0.10020  0.94660  0.01170  Biso   1.000  H
  H76      1.0000 0.94770  0.84580  0.01190  Biso   1.000  H
  H77      1.0000 0.42840  0.33140  0.84560  Biso   1.000  H
  H78      1.0000 0.41590  0.25300  0.89840  Biso   1.000  H
  H79      1.0000 0.14240  0.12860  0.85040  Biso   1.000  H
  H80      1.0000 0.15700  0.22320  0.80910  Biso   1.000  H
  H81      1.0000 0.50320  0.03460  0.06740  Biso   1.000  H
  H82      1.0000 0.36360  0.01400  0.02810  Biso   1.000  H
  H83      1.0000 0.51910  0.20700  0.97510  Biso   1.000  H
  H84      1.0000 0.64990  0.22440  0.02070  Biso   1.000  H
  H85      1.0000 0.53480  0.18040  0.13610  Biso   1.000  H
  H86      1.0000 0.48930  0.26240  0.18460  Biso   1.000  H
  H87      1.0000 0.77550  0.39020  0.22300  Biso   1.000  H
  H88      1.0000 0.81240  0.31260  0.16460  Biso   1.000  H
  H89      1.0000 0.17090  0.28100  0.22990  Biso   1.000  H
  H90      1.0000 0.33160  0.30180  0.23070  Biso   1.000  H
  H91      1.0000 0.38370  0.48220  0.33330  Biso   1.000  H
  H92      1.0000 0.22090  0.46020  0.32480  Biso   1.000  H
  H93      1.0000 0.94960  0.62080  0.36110  Biso   1.000  H
  H94      1.0000 0.82830  0.52360  0.30920  Biso   1.000  H
  H95      1.0000 0.62560  0.57440  0.38030  Biso   1.000  H
  H96      1.0000 0.75170  0.66840  0.42890  Biso   1.000  H
  C73      1.0000 0.92410  0.86120  0.41030  Biso   1.000  C
  C74      1.0000 0.89760  0.92120  0.40950  Biso   1.000  C
  C75      1.0000 0.87610  0.96000  0.44760  Biso   1.000  C
  C76      1.0000 0.86980  0.92700  0.48540  Biso   1.000  C
  C77      1.0000 0.89730  0.86520  0.48500  Biso   1.000  C
  C78      1.0000 0.84960  0.02840  0.44720  Biso   1.000  C
  C79      1.0000 0.86090  0.12900  0.41390  Biso   1.000  C
  C80      1.0000 0.75960  0.09600  0.46900  Biso   1.000  C
  C81      1.0000 0.92030  0.28840  0.34700  Biso   1.000  C
  C82      1.0000 0.87990  0.24120  0.37820  Biso   1.000  C
  C83      1.0000 0.90100  0.17900  0.38020  Biso   1.000  C
  C84      1.0000 0.96850  0.17200  0.35150  Biso   1.000  C
  C85      1.0000 0.01160  0.22540  0.32430  Biso   1.000  C
  C86      1.0000 0.56780  0.07220  0.54970  Biso   1.000  C
  C87      1.0000 0.63660  0.05820  0.52560  Biso   1.000  C
  C88      1.0000 0.68680  0.10820  0.49760  Biso   1.000  C
  C89      1.0000 0.65920  0.17180  0.49530  Biso   1.000  C
  C90      1.0000 0.59120  0.18100  0.52230  Biso   1.000  C
  C91      1.0000 0.64230  0.22700  0.65200  Biso   1.000  C
  C92      1.0000 0.71530  0.27160  0.68270  Biso   1.000  C
  C93      1.0000 0.70370  0.33180  0.71150  Biso   1.000  C
  C94      1.0000 0.62340  0.34800  0.70440  Biso   1.000  C
  C95      1.0000 0.55590  0.30160  0.66930  Biso   1.000  C
  C96      1.0000 0.77860  0.37980  0.74900  Biso   1.000  C
  C97      1.0000 0.92520  0.40700  0.78350  Biso   1.000  C
  C98      1.0000 0.83590  0.47760  0.80870  Biso   1.000  C
  C99      1.0000 0.10790  0.32360  0.75070  Biso   1.000  C
  C100     1.0000 0.02380  0.33440  0.75150  Biso   1.000  C
  C101     1.0000 0.01660  0.39340  0.78300  Biso   1.000  C
  C102     1.0000 0.09940  0.44080  0.81110  Biso   1.000  C
  C103     1.0000 0.18240  0.42660  0.80620  Biso   1.000  C
  C104     1.0000 0.72880  0.61180  0.86440  Biso   1.000  C
  C105     1.0000 0.74210  0.55320  0.83350  Biso   1.000  C
  C106     1.0000 0.82440  0.54060  0.83960  Biso   1.000  C
  C107     1.0000 0.89160  0.58340  0.87550  Biso   1.000  C
  C108     1.0000 0.87180  0.63940  0.90380  Biso   1.000  C
  C109     1.0000 0.93710  0.86120  0.91030  Biso   1.000  C
  C110     1.0000 0.02360  0.92120  0.90950  Biso   1.000  C
  C111     1.0000 0.08390  0.96000  0.94760  Biso   1.000  C
  C112     1.0000 0.05720  0.92700  0.98540  Biso   1.000  C
  C113     1.0000 0.96790  0.86520  0.98500  Biso   1.000  C
  C114     1.0000 0.17880  0.02840  0.94720  Biso   1.000  C
  C115     1.0000 0.26810  0.12900  0.91390  Biso   1.000  C
  C116     1.0000 0.33640  0.09600  0.96900  Biso   1.000  C
  C117     1.0000 0.36810  0.28840  0.84700  Biso   1.000  C
  C118     1.0000 0.36130  0.24120  0.87820  Biso   1.000  C
  C119     1.0000 0.27800  0.17900  0.88020  Biso   1.000  C
  C120     1.0000 0.20350  0.17200  0.85150  Biso   1.000  C
  C121     1.0000 0.21380  0.22540  0.82430  Biso   1.000  C
  C122     1.0000 0.50440  0.07220  0.04970  Biso   1.000  C
  C123     1.0000 0.42160  0.05820  0.02560  Biso   1.000  C
  C124     1.0000 0.42140  0.10820  0.99760  Biso   1.000  C
  C125     1.0000 0.51260  0.17180  0.99530  Biso   1.000  C
  C126     1.0000 0.58980  0.18100  0.02230  Biso   1.000  C
  C127     1.0000 0.58470  0.22700  0.15200  Biso   1.000  C
  C128     1.0000 0.55630  0.27160  0.18270  Biso   1.000  C
  C129     1.0000 0.62810  0.33180  0.21150  Biso   1.000  C
  C130     1.0000 0.72460  0.34800  0.20440  Biso   1.000  C
  C131     1.0000 0.74570  0.30160  0.16930  Biso   1.000  C
  C132     1.0000 0.60120  0.37980  0.24900  Biso   1.000  C
  C133     1.0000 0.48180  0.40700  0.28350  Biso   1.000  C
  C134     1.0000 0.64170  0.47760  0.30870  Biso   1.000  C
  C135     1.0000 0.21570  0.32360  0.25070  Biso   1.000  C
  C136     1.0000 0.31060  0.33440  0.25150  Biso   1.000  C
  C137     1.0000 0.37680  0.39340  0.28300  Biso   1.000  C
  C138     1.0000 0.34140  0.44080  0.31110  Biso   1.000  C
  C139     1.0000 0.24420  0.42660  0.30620  Biso   1.000  C
  C140     1.0000 0.88300  0.61180  0.36440  Biso   1.000  C
  C141     1.0000 0.81110  0.55320  0.33350  Biso   1.000  C
  C142     1.0000 0.71620  0.54060  0.33960  Biso   1.000  C
  C143     1.0000 0.69180  0.58340  0.37550  Biso   1.000  C
  C144     1.0000 0.76760  0.63940  0.40380  Biso   1.000  C
  I13      1.0000 0.94452  0.69576  0.51753  Biso   1.000  I
  I14      1.0000 0.12352  0.78258  0.40343  Biso   1.000  I
  I15      1.0000 0.36852  0.04880  0.63294  Biso   1.000  I
  I16      1.0000 0.38534  0.24128  0.55517  Biso   1.000  I
  I17      1.0000 0.29034  0.25936  0.69416  Biso   1.000  I
  I18      1.0000 0.46412  0.46758  0.79538  Biso   1.000  I
  I19      1.0000 0.75124  0.69576  0.01753  Biso   1.000  I
  I20      1.0000 0.65906  0.78258  0.90343  Biso   1.000  I
  I21      1.0000 0.68028  0.04880  0.13294  Biso   1.000  I
  I22      1.0000 0.85594  0.24128  0.05517  Biso   1.000  I
  I23      1.0000 0.96902  0.25936  0.19416  Biso   1.000  I
  I24      1.0000 0.00346  0.46758  0.29538  Biso   1.000  I
  N25      1.0000 0.92350  0.83160  0.44720  Biso   1.000  N
  N26      1.0000 0.89110  0.07240  0.41540  Biso   1.000  N
  N27      1.0000 0.79330  0.14300  0.43910  Biso   1.000  N
  N28      1.0000 0.78810  0.03880  0.47620  Biso   1.000  N
  N29      1.0000 0.98290  0.27600  0.31870  Biso   1.000  N
  N30      1.0000 0.54690  0.13480  0.55050  Biso   1.000  N
  N31      1.0000 0.56440  0.24180  0.64150  Biso   1.000  N
  N32      1.0000 0.85640  0.36080  0.75110  Biso   1.000  N
  N33      1.0000 0.91960  0.46320  0.81200  Biso   1.000  N
  N34      1.0000 0.76650  0.43700  0.77520  Biso   1.000  N
  N35      1.0000 0.18680  0.36800  0.77670  Biso   1.000  N
  N36      1.0000 0.79490  0.65560  0.89850  Biso   1.000  N
  N37      1.0000 0.90810  0.83160  0.94720  Biso   1.000  N
  N38      1.0000 0.18130  0.07240  0.91540  Biso   1.000  N
  N39      1.0000 0.34970  0.14300  0.93910  Biso   1.000  N
  N40      1.0000 0.25070  0.03880  0.97620  Biso   1.000  N
  N41      1.0000 0.29310  0.27600  0.81870  Biso   1.000  N
  N42      1.0000 0.58790  0.13480  0.05050  Biso   1.000  N
  N43      1.0000 0.67740  0.24180  0.14150  Biso   1.000  N
  N44      1.0000 0.50440  0.36080  0.25110  Biso   1.000  N
  N45      1.0000 0.54360  0.46320  0.31200  Biso   1.000  N
  N46      1.0000 0.67050  0.43700  0.27520  Biso   1.000  N
  N47      1.0000 0.18120  0.36800  0.27670  Biso   1.000  N
  N48      1.0000 0.86070  0.65560  0.39850  Biso   1.000  N
