data_image0
_cell_length_a       14.756
_cell_length_b       18.9212
_cell_length_c       30.74
_cell_angle_alpha    101.044
_cell_angle_beta     90
_cell_angle_gamma    112.95

_symmetry_space_group_name_H-M    P 1
_symmetry_int_tables_number       1

loop_
  _symmetry_equiv_pos_as_xyz
  'x, y, z'

loop_
  _atom_site_label
  _atom_site_occupancy
  _atom_site_fract_x
  _atom_site_fract_y
  _atom_site_fract_z
  _atom_site_thermal_displace_type
  _atom_site_B_iso_or_equiv
  _atom_site_type_symbol
  Zn1      1.0000 0.71152  0.16970  0.59109  Biso   1.000  Zn
  Zn2      1.0000 0.97831  0.75324  0.94020  Biso   1.000  Zn
  Zn3      1.0000 0.03145  0.34654  0.76909  Biso   1.000  Zn
  Zn4      1.0000 0.45818  0.16970  0.09109  Biso   1.000  Zn
  Zn5      1.0000 0.77493  0.75324  0.44020  Biso   1.000  Zn
  Zn6      1.0000 0.31509  0.34654  0.26909  Biso   1.000  Zn
  H1       1.0000 0.81830  0.32360  0.65990  Biso   1.000  H
  H2       1.0000 0.78130  0.39880  0.71860  Biso   1.000  H
  H3       1.0000 0.49260  0.25820  0.68900  Biso   1.000  H
  H4       1.0000 0.53940  0.18280  0.63340  Biso   1.000  H
  H5       1.0000 0.75910  0.67160  0.93040  Biso   1.000  H
  H6       1.0000 0.63260  0.57520  0.88370  Biso   1.000  H
  H7       1.0000 0.83860  0.54300  0.80460  Biso   1.000  H
  H8       1.0000 0.95710  0.63980  0.85270  Biso   1.000  H
  H9       1.0000 0.16780  0.27620  0.73260  Biso   1.000  H
  H10      1.0000 0.33150  0.29600  0.73510  Biso   1.000  H
  H11      1.0000 0.38660  0.48520  0.83270  Biso   1.000  H
  H12      1.0000 0.22140  0.46520  0.82360  Biso   1.000  H
  H13      1.0000 0.93060  0.35180  0.85420  Biso   1.000  H
  H14      1.0000 0.85890  0.27240  0.90360  Biso   1.000  H
  H15      1.0000 0.95880  0.11320  0.83610  Biso   1.000  H
  H16      1.0000 0.02550  0.20100  0.79020  Biso   1.000  H
  H17      1.0000 0.53890  0.04180  0.06300  Biso   1.000  H
  H18      1.0000 0.65130  0.01940  0.01720  Biso   1.000  H
  H19      1.0000 0.70300  0.22140  0.97750  Biso   1.000  H
  H20      1.0000 0.58110  0.23540  0.02100  Biso   1.000  H
  H21      1.0000 0.98190  0.86180  0.88480  Biso   1.000  H
  H22      1.0000 0.93600  0.96540  0.88020  Biso   1.000  H
  H23      1.0000 0.84010  0.95200  0.00280  Biso   1.000  H
  H24      1.0000 0.88820  0.84960  0.00180  Biso   1.000  H
  H25      1.0000 0.50530  0.32360  0.15990  Biso   1.000  H
  H26      1.0000 0.61750  0.39880  0.21860  Biso   1.000  H
  H27      1.0000 0.76560  0.25820  0.18900  Biso   1.000  H
  H28      1.0000 0.64340  0.18280  0.13340  Biso   1.000  H
  H29      1.0000 0.91250  0.67160  0.43040  Biso   1.000  H
  H30      1.0000 0.94260  0.57520  0.38370  Biso   1.000  H
  H31      1.0000 0.70440  0.54300  0.30460  Biso   1.000  H
  H32      1.0000 0.68270  0.63980  0.35270  Biso   1.000  H
  H33      1.0000 0.10840  0.27620  0.23260  Biso   1.000  H
  H34      1.0000 0.96450  0.29600  0.23510  Biso   1.000  H
  H35      1.0000 0.09860  0.48520  0.33270  Biso   1.000  H
  H36      1.0000 0.24380  0.46520  0.32360  Biso   1.000  H
  H37      1.0000 0.42120  0.35180  0.35420  Biso   1.000  H
  H38      1.0000 0.41350  0.27240  0.40360  Biso   1.000  H
  H39      1.0000 0.15440  0.11320  0.33610  Biso   1.000  H
  H40      1.0000 0.17550  0.20100  0.29020  Biso   1.000  H
  H41      1.0000 0.50290  0.04180  0.56300  Biso   1.000  H
  H42      1.0000 0.36810  0.01940  0.51720  Biso   1.000  H
  H43      1.0000 0.51840  0.22140  0.47750  Biso   1.000  H
  H44      1.0000 0.65430  0.23540  0.52100  Biso   1.000  H
  H45      1.0000 0.87990  0.86180  0.38480  Biso   1.000  H
  H46      1.0000 0.02940  0.96540  0.38020  Biso   1.000  H
  H47      1.0000 0.11190  0.95200  0.50280  Biso   1.000  H
  H48      1.0000 0.96140  0.84960  0.50180  Biso   1.000  H
  C1       1.0000 0.75130  0.30940  0.66640  Biso   1.000  C
  C2       1.0000 0.72980  0.35440  0.70110  Biso   1.000  C
  C3       1.0000 0.63140  0.33540  0.71120  Biso   1.000  C
  C4       1.0000 0.56050  0.27200  0.68450  Biso   1.000  C
  C5       1.0000 0.58930  0.22840  0.65080  Biso   1.000  C
  C6       1.0000 0.77460  0.64440  0.90410  Biso   1.000  C
  C7       1.0000 0.69900  0.58680  0.87700  Biso   1.000  C
  C8       1.0000 0.72080  0.54540  0.83900  Biso   1.000  C
  C9       1.0000 0.82060  0.56860  0.83070  Biso   1.000  C
  C10      1.0000 0.89000  0.62600  0.85900  Biso   1.000  C
  C11      1.0000 0.21380  0.32040  0.75270  Biso   1.000  C
  C12      1.0000 0.31050  0.33120  0.75440  Biso   1.000  C
  C13      1.0000 0.37830  0.39440  0.78440  Biso   1.000  C
  C14      1.0000 0.34320  0.44240  0.81090  Biso   1.000  C
  C15      1.0000 0.24390  0.42920  0.80600  Biso   1.000  C
  C16      1.0000 0.60350  0.38280  0.74770  Biso   1.000  C
  C17      1.0000 0.64460  0.48220  0.80720  Biso   1.000  C
  C18      1.0000 0.48410  0.40940  0.78370  Biso   1.000  C
  C19      1.0000 0.93320  0.30160  0.85000  Biso   1.000  C
  C20      1.0000 0.89190  0.25540  0.88000  Biso   1.000  C
  C21      1.0000 0.89940  0.18280  0.87500  Biso   1.000  C
  C22      1.0000 0.95030  0.16120  0.84050  Biso   1.000  C
  C23      1.0000 0.98780  0.21400  0.81300  Biso   1.000  C
  C24      1.0000 0.57230  0.07860  0.04520  Biso   1.000  C
  C25      1.0000 0.63940  0.06560  0.01840  Biso   1.000  C
  C26      1.0000 0.69050  0.11800  0.99300  Biso   1.000  C
  C27      1.0000 0.66930  0.18340  0.99450  Biso   1.000  C
  C28      1.0000 0.59810  0.19200  0.02120  Biso   1.000  C
  C29      1.0000 0.95230  0.88080  0.90920  Biso   1.000  C
  C30      1.0000 0.92660  0.94320  0.90600  Biso   1.000  C
  C31      1.0000 0.88710  0.97060  0.94220  Biso   1.000  C
  C32      1.0000 0.87020  0.93480  0.97800  Biso   1.000  C
  C33      1.0000 0.89850  0.87360  0.97670  Biso   1.000  C
  C34      1.0000 0.86140  0.13380  0.90840  Biso   1.000  C
  C35      1.0000 0.76490  0.10360  0.96450  Biso   1.000  C
  C36      1.0000 0.85860  0.03800  0.93990  Biso   1.000  C
  C37      1.0000 0.55810  0.30940  0.16640  Biso   1.000  C
  C38      1.0000 0.62460  0.35440  0.20110  Biso   1.000  C
  C39      1.0000 0.70400  0.33540  0.21120  Biso   1.000  C
  C40      1.0000 0.71150  0.27200  0.18450  Biso   1.000  C
  C41      1.0000 0.63910  0.22840  0.15080  Biso   1.000  C
  C42      1.0000 0.86980  0.64440  0.40410  Biso   1.000  C
  C43      1.0000 0.88780  0.58680  0.37700  Biso   1.000  C
  C44      1.0000 0.82460  0.54540  0.33900  Biso   1.000  C
  C45      1.0000 0.74800  0.56860  0.33070  Biso   1.000  C
  C46      1.0000 0.73600  0.62600  0.35900  Biso   1.000  C
  C47      1.0000 0.10660  0.32040  0.25270  Biso   1.000  C
  C48      1.0000 0.02070  0.33120  0.25440  Biso   1.000  C
  C49      1.0000 0.01610  0.39440  0.28440  Biso   1.000  C
  C50      1.0000 0.09920  0.44240  0.31090  Biso   1.000  C
  C51      1.0000 0.18530  0.42920  0.30600  Biso   1.000  C
  C52      1.0000 0.77930  0.38280  0.24770  Biso   1.000  C
  C53      1.0000 0.83760  0.48220  0.30720  Biso   1.000  C
  C54      1.0000 0.92530  0.40940  0.28370  Biso   1.000  C
  C55      1.0000 0.36840  0.30160  0.35000  Biso   1.000  C
  C56      1.0000 0.36350  0.25540  0.38000  Biso   1.000  C
  C57      1.0000 0.28340  0.18280  0.37500  Biso   1.000  C
  C58      1.0000 0.21090  0.16120  0.34050  Biso   1.000  C
  C59      1.0000 0.22620  0.21400  0.31300  Biso   1.000  C
  C60      1.0000 0.50630  0.07860  0.54520  Biso   1.000  C
  C61      1.0000 0.42620  0.06560  0.51840  Biso   1.000  C
  C62      1.0000 0.42750  0.11800  0.49300  Biso   1.000  C
  C63      1.0000 0.51410  0.18340  0.49450  Biso   1.000  C
  C64      1.0000 0.59390  0.19200  0.52120  Biso   1.000  C
  C65      1.0000 0.92850  0.88080  0.40920  Biso   1.000  C
  C66      1.0000 0.01660  0.94320  0.40600  Biso   1.000  C
  C67      1.0000 0.08350  0.97060  0.44220  Biso   1.000  C
  C68      1.0000 0.06460  0.93480  0.47800  Biso   1.000  C
  C69      1.0000 0.97510  0.87360  0.47670  Biso   1.000  C
  C70      1.0000 0.27240  0.13380  0.40840  Biso   1.000  C
  C71      1.0000 0.33870  0.10360  0.46450  Biso   1.000  C
  C72      1.0000 0.17940  0.03800  0.43990  Biso   1.000  C
  I1       1.0000 0.67839  0.05436  0.62878  Biso   1.000  I
  I2       1.0000 0.86092  0.24452  0.55477  Biso   1.000  I
  I3       1.0000 0.95115  0.71304  0.01347  Biso   1.000  I
  I4       1.0000 0.13638  0.78534  0.90202  Biso   1.000  I
  I5       1.0000 0.00311  0.47072  0.79468  Biso   1.000  I
  I6       1.0000 0.97102  0.26020  0.69213  Biso   1.000  I
  I7       1.0000 0.37597  0.05436  0.12878  Biso   1.000  I
  I8       1.0000 0.38360  0.24452  0.05477  Biso   1.000  I
  I9       1.0000 0.76189  0.71304  0.51347  Biso   1.000  I
  I10      1.0000 0.64896  0.78534  0.40202  Biso   1.000  I
  I11      1.0000 0.46761  0.47072  0.29468  Biso   1.000  I
  I12      1.0000 0.28918  0.26020  0.19213  Biso   1.000  I
  N1       1.0000 0.68167  0.24534  0.64080  Biso   1.000  N
  N2       1.0000 0.86971  0.66542  0.89620  Biso   1.000  N
  N3       1.0000 0.18097  0.36954  0.77820  Biso   1.000  N
  N4       1.0000 0.67620  0.44280  0.77415  Biso   1.000  N
  N5       1.0000 0.54807  0.46754  0.81430  Biso   1.000  N
  N6       1.0000 0.50680  0.36160  0.75151  Biso   1.000  N
  N7       1.0000 0.97717  0.27914  0.81500  Biso   1.000  N
  N8       1.0000 0.55150  0.14300  0.04720  Biso   1.000  N
  N9       1.0000 0.93904  0.84588  0.94310  Biso   1.000  N
  N10      1.0000 0.79486  0.14952  0.93380  Biso   1.000  N
  N11      1.0000 0.79573  0.05026  0.97034  Biso   1.000  N
  N12      1.0000 0.89149  0.07718  0.90850  Biso   1.000  N
  N13      1.0000 0.56367  0.24534  0.14080  Biso   1.000  N
  N14      1.0000 0.79571  0.66542  0.39620  Biso   1.000  N
  N15      1.0000 0.18857  0.36954  0.27820  Biso   1.000  N
  N16      1.0000 0.76660  0.44280  0.27415  Biso   1.000  N
  N17      1.0000 0.91947  0.46754  0.31430  Biso   1.000  N
  N18      1.0000 0.85480  0.36160  0.25151  Biso   1.000  N
  N19      1.0000 0.30197  0.27914  0.31500  Biso   1.000  N
  N20      1.0000 0.59150  0.14300  0.54720  Biso   1.000  N
  N21      1.0000 0.90684  0.84588  0.44310  Biso   1.000  N
  N22      1.0000 0.35466  0.14952  0.43380  Biso   1.000  N
  N23      1.0000 0.25453  0.05026  0.47034  Biso   1.000  N
  N24      1.0000 0.18569  0.07718  0.40850  Biso   1.000  N
  Zn7      1.0000 0.54182  0.83030  0.90891  Biso   1.000  Zn
  Zn8      1.0000 0.22507  0.24676  0.55980  Biso   1.000  Zn
  Zn9      1.0000 0.68491  0.65346  0.73091  Biso   1.000  Zn
  Zn10     1.0000 0.28848  0.83030  0.40891  Biso   1.000  Zn
  Zn11     1.0000 0.02169  0.24676  0.05980  Biso   1.000  Zn
  Zn12     1.0000 0.96855  0.65346  0.23091  Biso   1.000  Zn
  H49      1.0000 0.49470  0.67640  0.84010  Biso   1.000  H
  H50      1.0000 0.38250  0.60120  0.78140  Biso   1.000  H
  H51      1.0000 0.23440  0.74180  0.81100  Biso   1.000  H
  H52      1.0000 0.35660  0.81720  0.86660  Biso   1.000  H
  H53      1.0000 0.08750  0.32840  0.56960  Biso   1.000  H
  H54      1.0000 0.05740  0.42480  0.61630  Biso   1.000  H
  H55      1.0000 0.29560  0.45700  0.69540  Biso   1.000  H
  H56      1.0000 0.31730  0.36020  0.64730  Biso   1.000  H
  H57      1.0000 0.89160  0.72380  0.76740  Biso   1.000  H
  H58      1.0000 0.03550  0.70400  0.76490  Biso   1.000  H
  H59      1.0000 0.90140  0.51480  0.66730  Biso   1.000  H
  H60      1.0000 0.75620  0.53480  0.67640  Biso   1.000  H
  H61      1.0000 0.57880  0.64820  0.64580  Biso   1.000  H
  H62      1.0000 0.58650  0.72760  0.59640  Biso   1.000  H
  H63      1.0000 0.84560  0.88680  0.66390  Biso   1.000  H
  H64      1.0000 0.82450  0.79900  0.70980  Biso   1.000  H
  H65      1.0000 0.49710  0.95820  0.43700  Biso   1.000  H
  H66      1.0000 0.63190  0.98060  0.48280  Biso   1.000  H
  H67      1.0000 0.48160  0.77860  0.52250  Biso   1.000  H
  H68      1.0000 0.34570  0.76460  0.47900  Biso   1.000  H
  H69      1.0000 0.12010  0.13820  0.61520  Biso   1.000  H
  H70      1.0000 0.97060  0.03460  0.61980  Biso   1.000  H
  H71      1.0000 0.88810  0.04800  0.49720  Biso   1.000  H
  H72      1.0000 0.03860  0.15040  0.49820  Biso   1.000  H
  H73      1.0000 0.18170  0.67640  0.34010  Biso   1.000  H
  H74      1.0000 0.21870  0.60120  0.28140  Biso   1.000  H
  H75      1.0000 0.50740  0.74180  0.31100  Biso   1.000  H
  H76      1.0000 0.46060  0.81720  0.36660  Biso   1.000  H
  H77      1.0000 0.24090  0.32840  0.06960  Biso   1.000  H
  H78      1.0000 0.36740  0.42480  0.11630  Biso   1.000  H
  H79      1.0000 0.16140  0.45700  0.19540  Biso   1.000  H
  H80      1.0000 0.04290  0.36020  0.14730  Biso   1.000  H
  H81      1.0000 0.83220  0.72380  0.26740  Biso   1.000  H
  H82      1.0000 0.66850  0.70400  0.26490  Biso   1.000  H
  H83      1.0000 0.61340  0.51480  0.16730  Biso   1.000  H
  H84      1.0000 0.77860  0.53480  0.17640  Biso   1.000  H
  H85      1.0000 0.06940  0.64820  0.14580  Biso   1.000  H
  H86      1.0000 0.14110  0.72760  0.09640  Biso   1.000  H
  H87      1.0000 0.04120  0.88680  0.16390  Biso   1.000  H
  H88      1.0000 0.97450  0.79900  0.20980  Biso   1.000  H
  H89      1.0000 0.46110  0.95820  0.93700  Biso   1.000  H
  H90      1.0000 0.34870  0.98060  0.98280  Biso   1.000  H
  H91      1.0000 0.29700  0.77860  0.02250  Biso   1.000  H
  H92      1.0000 0.41890  0.76460  0.97900  Biso   1.000  H
  H93      1.0000 0.01810  0.13820  0.11520  Biso   1.000  H
  H94      1.0000 0.06400  0.03460  0.11980  Biso   1.000  H
  H95      1.0000 0.15990  0.04800  0.99720  Biso   1.000  H
  H96      1.0000 0.11180  0.15040  0.99820  Biso   1.000  H
  C73      1.0000 0.44190  0.69060  0.83360  Biso   1.000  C
  C74      1.0000 0.37540  0.64560  0.79890  Biso   1.000  C
  C75      1.0000 0.29600  0.66460  0.78880  Biso   1.000  C
  C76      1.0000 0.28850  0.72800  0.81550  Biso   1.000  C
  C77      1.0000 0.36090  0.77160  0.84920  Biso   1.000  C
  C78      1.0000 0.13020  0.35560  0.59590  Biso   1.000  C
  C79      1.0000 0.11220  0.41320  0.62300  Biso   1.000  C
  C80      1.0000 0.17540  0.45460  0.66100  Biso   1.000  C
  C81      1.0000 0.25200  0.43140  0.66930  Biso   1.000  C
  C82      1.0000 0.26400  0.37400  0.64100  Biso   1.000  C
  C83      1.0000 0.89340  0.67960  0.74730  Biso   1.000  C
  C84      1.0000 0.97930  0.66880  0.74560  Biso   1.000  C
  C85      1.0000 0.98390  0.60560  0.71560  Biso   1.000  C
  C86      1.0000 0.90080  0.55760  0.68910  Biso   1.000  C
  C87      1.0000 0.81470  0.57080  0.69400  Biso   1.000  C
  C88      1.0000 0.22070  0.61720  0.75230  Biso   1.000  C
  C89      1.0000 0.16240  0.51780  0.69280  Biso   1.000  C
  C90      1.0000 0.07470  0.59060  0.71630  Biso   1.000  C
  C91      1.0000 0.63160  0.69840  0.65000  Biso   1.000  C
  C92      1.0000 0.63650  0.74460  0.62000  Biso   1.000  C
  C93      1.0000 0.71660  0.81720  0.62500  Biso   1.000  C
  C94      1.0000 0.78910  0.83880  0.65950  Biso   1.000  C
  C95      1.0000 0.77380  0.78600  0.68700  Biso   1.000  C
  C96      1.0000 0.49370  0.92140  0.45480  Biso   1.000  C
  C97      1.0000 0.57380  0.93440  0.48160  Biso   1.000  C
  C98      1.0000 0.57250  0.88200  0.50700  Biso   1.000  C
  C99      1.0000 0.48590  0.81660  0.50550  Biso   1.000  C
  C100     1.0000 0.40610  0.80800  0.47880  Biso   1.000  C
  C101     1.0000 0.07150  0.11920  0.59080  Biso   1.000  C
  C102     1.0000 0.98340  0.05680  0.59400  Biso   1.000  C
  C103     1.0000 0.91650  0.02940  0.55780  Biso   1.000  C
  C104     1.0000 0.93540  0.06520  0.52200  Biso   1.000  C
  C105     1.0000 0.02490  0.12640  0.52330  Biso   1.000  C
  C106     1.0000 0.72760  0.86620  0.59160  Biso   1.000  C
  C107     1.0000 0.66130  0.89640  0.53550  Biso   1.000  C
  C108     1.0000 0.82060  0.96200  0.56010  Biso   1.000  C
  C109     1.0000 0.24870  0.69060  0.33360  Biso   1.000  C
  C110     1.0000 0.27020  0.64560  0.29890  Biso   1.000  C
  C111     1.0000 0.36860  0.66460  0.28880  Biso   1.000  C
  C112     1.0000 0.43950  0.72800  0.31550  Biso   1.000  C
  C113     1.0000 0.41070  0.77160  0.34920  Biso   1.000  C
  C114     1.0000 0.22540  0.35560  0.09590  Biso   1.000  C
  C115     1.0000 0.30100  0.41320  0.12300  Biso   1.000  C
  C116     1.0000 0.27920  0.45460  0.16100  Biso   1.000  C
  C117     1.0000 0.17940  0.43140  0.16930  Biso   1.000  C
  C118     1.0000 0.11000  0.37400  0.14100  Biso   1.000  C
  C119     1.0000 0.78620  0.67960  0.24730  Biso   1.000  C
  C120     1.0000 0.68950  0.66880  0.24560  Biso   1.000  C
  C121     1.0000 0.62170  0.60560  0.21560  Biso   1.000  C
  C122     1.0000 0.65680  0.55760  0.18910  Biso   1.000  C
  C123     1.0000 0.75610  0.57080  0.19400  Biso   1.000  C
  C124     1.0000 0.39650  0.61720  0.25230  Biso   1.000  C
  C125     1.0000 0.35540  0.51780  0.19280  Biso   1.000  C
  C126     1.0000 0.51590  0.59060  0.21630  Biso   1.000  C
  C127     1.0000 0.06680  0.69840  0.15000  Biso   1.000  C
  C128     1.0000 0.10810  0.74460  0.12000  Biso   1.000  C
  C129     1.0000 0.10060  0.81720  0.12500  Biso   1.000  C
  C130     1.0000 0.04970  0.83880  0.15950  Biso   1.000  C
  C131     1.0000 0.01220  0.78600  0.18700  Biso   1.000  C
  C132     1.0000 0.42770  0.92140  0.95480  Biso   1.000  C
  C133     1.0000 0.36060  0.93440  0.98160  Biso   1.000  C
  C134     1.0000 0.30950  0.88200  0.00700  Biso   1.000  C
  C135     1.0000 0.33070  0.81660  0.00550  Biso   1.000  C
  C136     1.0000 0.40190  0.80800  0.97880  Biso   1.000  C
  C137     1.0000 0.04770  0.11920  0.09080  Biso   1.000  C
  C138     1.0000 0.07340  0.05680  0.09400  Biso   1.000  C
  C139     1.0000 0.11290  0.02940  0.05780  Biso   1.000  C
  C140     1.0000 0.12980  0.06520  0.02200  Biso   1.000  C
  C141     1.0000 0.10150  0.12640  0.02330  Biso   1.000  C
  C142     1.0000 0.13860  0.86620  0.09160  Biso   1.000  C
  C143     1.0000 0.23510  0.89640  0.03550  Biso   1.000  C
  C144     1.0000 0.14140  0.96200  0.06010  Biso   1.000  C
  I13      1.0000 0.62403  0.94564  0.87122  Biso   1.000  I
  I14      1.0000 0.61640  0.75548  0.94523  Biso   1.000  I
  I15      1.0000 0.23811  0.28696  0.48653  Biso   1.000  I
  I16      1.0000 0.35104  0.21466  0.59798  Biso   1.000  I
  I17      1.0000 0.53239  0.52928  0.70532  Biso   1.000  I
  I18      1.0000 0.71082  0.73980  0.80787  Biso   1.000  I
  I19      1.0000 0.32161  0.94564  0.37122  Biso   1.000  I
  I20      1.0000 0.13908  0.75548  0.44523  Biso   1.000  I
  I21      1.0000 0.04885  0.28696  0.98653  Biso   1.000  I
  I22      1.0000 0.86362  0.21466  0.09798  Biso   1.000  I
  I23      1.0000 0.99689  0.52928  0.20532  Biso   1.000  I
  I24      1.0000 0.02898  0.73980  0.30787  Biso   1.000  I
  N25      1.0000 0.43633  0.75466  0.85920  Biso   1.000  N
  N26      1.0000 0.20429  0.33458  0.60380  Biso   1.000  N
  N27      1.0000 0.81143  0.63046  0.72180  Biso   1.000  N
  N28      1.0000 0.23340  0.55720  0.72585  Biso   1.000  N
  N29      1.0000 0.08053  0.53246  0.68570  Biso   1.000  N
  N30      1.0000 0.14520  0.63840  0.74849  Biso   1.000  N
  N31      1.0000 0.69803  0.72086  0.68500  Biso   1.000  N
  N32      1.0000 0.40850  0.85700  0.45280  Biso   1.000  N
  N33      1.0000 0.09316  0.15412  0.55690  Biso   1.000  N
  N34      1.0000 0.64534  0.85048  0.56620  Biso   1.000  N
  N35      1.0000 0.74547  0.94974  0.52966  Biso   1.000  N
  N36      1.0000 0.81431  0.92282  0.59150  Biso   1.000  N
  N37      1.0000 0.31833  0.75466  0.35920  Biso   1.000  N
  N38      1.0000 0.13029  0.33458  0.10380  Biso   1.000  N
  N39      1.0000 0.81903  0.63046  0.22180  Biso   1.000  N
  N40      1.0000 0.32380  0.55720  0.22585  Biso   1.000  N
  N41      1.0000 0.45193  0.53246  0.18570  Biso   1.000  N
  N42      1.0000 0.49320  0.63840  0.24849  Biso   1.000  N
  N43      1.0000 0.02283  0.72086  0.18500  Biso   1.000  N
  N44      1.0000 0.44850  0.85700  0.95280  Biso   1.000  N
  N45      1.0000 0.06096  0.15412  0.05690  Biso   1.000  N
  N46      1.0000 0.20514  0.85048  0.06620  Biso   1.000  N
  N47      1.0000 0.20427  0.94974  0.02966  Biso   1.000  N
  N48      1.0000 0.10851  0.92282  0.09150  Biso   1.000  N
