data_image0
_cell_length_a       14.902
_cell_length_b       19.4175
_cell_length_c       31.358
_cell_angle_alpha    101.708
_cell_angle_beta     90
_cell_angle_gamma    112.565

_symmetry_space_group_name_H-M    P 1
_symmetry_int_tables_number       1

loop_
  _symmetry_equiv_pos_as_xyz
  'x, y, z'

loop_
  _atom_site_label
  _atom_site_occupancy
  _atom_site_fract_x
  _atom_site_fract_y
  _atom_site_fract_z
  _atom_site_thermal_displace_type
  _atom_site_B_iso_or_equiv
  _atom_site_type_symbol
  Zn1      1.0000 0.52955  0.34996  0.28260  Biso   1.000  Zn
  Zn2      1.0000 0.47776  0.75592  0.42971  Biso   1.000  Zn
  Zn3      1.0000 0.95603  0.14584  0.60145  Biso   1.000  Zn
  Zn4      1.0000 0.82041  0.34996  0.78260  Biso   1.000  Zn
  Zn5      1.0000 0.27816  0.75592  0.92971  Biso   1.000  Zn
  Zn6      1.0000 0.18981  0.14584  0.10145  Biso   1.000  Zn
  H1       1.0000 0.72640  0.47720  0.32590  Biso   1.000  H
  H2       1.0000 0.88990  0.49840  0.32610  Biso   1.000  H
  H3       1.0000 0.82620  0.30040  0.23970  Biso   1.000  H
  H4       1.0000 0.66140  0.27880  0.24410  Biso   1.000  H
  H5       1.0000 0.45560  0.63840  0.34610  Biso   1.000  H
  H6       1.0000 0.33720  0.53720  0.30070  Biso   1.000  H
  H7       1.0000 0.13710  0.60000  0.36560  Biso   1.000  H
  H8       1.0000 0.26220  0.69520  0.41200  Biso   1.000  H
  H9       1.0000 0.02160  0.17140  0.14000  Biso   1.000  H
  H10      1.0000 0.98400  0.25580  0.19430  Biso   1.000  H
  H11      1.0000 0.27280  0.38820  0.21890  Biso   1.000  H
  H12      1.0000 0.30180  0.30160  0.16310  Biso   1.000  H
  H13      1.0000 0.39720  0.85240  0.49530  Biso   1.000  H
  H14      1.0000 0.36140  0.95920  0.50340  Biso   1.000  H
  H15      1.0000 0.41300  0.96160  0.37680  Biso   1.000  H
  H16      1.0000 0.44230  0.85040  0.37210  Biso   1.000  H
  H17      1.0000 0.06740  0.21340  0.53190  Biso   1.000  H
  H18      1.0000 0.19800  0.21240  0.49270  Biso   1.000  H
  H19      1.0000 0.16320  0.01320  0.52420  Biso   1.000  H
  H20      1.0000 0.03820  0.02380  0.56400  Biso   1.000  H
  H21      1.0000 0.49560  0.19520  0.29340  Biso   1.000  H
  H22      1.0000 0.43160  0.11240  0.33890  Biso   1.000  H
  H23      1.0000 0.37770  0.27840  0.41810  Biso   1.000  H
  H24      1.0000 0.43780  0.35660  0.36980  Biso   1.000  H
  H25      1.0000 0.75080  0.47720  0.82590  Biso   1.000  H
  H26      1.0000 0.60850  0.49840  0.82610  Biso   1.000  H
  H27      1.0000 0.47420  0.30040  0.73970  Biso   1.000  H
  H28      1.0000 0.61740  0.27880  0.74410  Biso   1.000  H
  H29      1.0000 0.18280  0.63840  0.84610  Biso   1.000  H
  H30      1.0000 0.20000  0.53720  0.80070  Biso   1.000  H
  H31      1.0000 0.46290  0.60000  0.86560  Biso   1.000  H
  H32      1.0000 0.43300  0.69520  0.91200  Biso   1.000  H
  H33      1.0000 0.14980  0.17140  0.64000  Biso   1.000  H
  H34      1.0000 0.27180  0.25580  0.69430  Biso   1.000  H
  H35      1.0000 0.11540  0.38820  0.71890  Biso   1.000  H
  H36      1.0000 0.99980  0.30160  0.66310  Biso   1.000  H
  H37      1.0000 0.45520  0.85240  0.99530  Biso   1.000  H
  H38      1.0000 0.59780  0.95920  0.00340  Biso   1.000  H
  H39      1.0000 0.54860  0.96160  0.87680  Biso   1.000  H
  H40      1.0000 0.40810  0.85040  0.87210  Biso   1.000  H
  H41      1.0000 0.14600  0.21340  0.03190  Biso   1.000  H
  H42      1.0000 0.01440  0.21240  0.99270  Biso   1.000  H
  H43      1.0000 0.85000  0.01320  0.02420  Biso   1.000  H
  H44      1.0000 0.98560  0.02380  0.06400  Biso   1.000  H
  H45      1.0000 0.69960  0.19520  0.79340  Biso   1.000  H
  H46      1.0000 0.68080  0.11240  0.83890  Biso   1.000  H
  H47      1.0000 0.90070  0.27840  0.91810  Biso   1.000  H
  H48      1.0000 0.91880  0.35660  0.86980  Biso   1.000  H
  C1       1.0000 0.74630  0.44000  0.30900  Biso   1.000  C
  C2       1.0000 0.84370  0.45300  0.30820  Biso   1.000  C
  C3       1.0000 0.87680  0.40300  0.28250  Biso   1.000  C
  C4       1.0000 0.80770  0.33720  0.25810  Biso   1.000  C
  C5       1.0000 0.70920  0.32480  0.26090  Biso   1.000  C
  C6       1.0000 0.98240  0.41960  0.27930  Biso   1.000  C
  C7       1.0000 0.14130  0.49160  0.29860  Biso   1.000  C
  C8       1.0000 0.09710  0.38640  0.24590  Biso   1.000  C
  C9       1.0000 0.38920  0.62860  0.35080  Biso   1.000  C
  C10      1.0000 0.31970  0.56980  0.32290  Biso   1.000  C
  C11      1.0000 0.22180  0.55760  0.32740  Biso   1.000  C
  C12      1.0000 0.20250  0.60600  0.36130  Biso   1.000  C
  C13      1.0000 0.27740  0.66260  0.38880  Biso   1.000  C
  C14      1.0000 0.07290  0.21540  0.15660  Biso   1.000  C
  C15      1.0000 0.05000  0.26680  0.18830  Biso   1.000  C
  C16      1.0000 0.12320  0.33320  0.21090  Biso   1.000  C
  C17      1.0000 0.22010  0.34500  0.20270  Biso   1.000  C
  C18      1.0000 0.23680  0.29180  0.17050  Biso   1.000  C
  C19      1.0000 0.40400  0.87660  0.47140  Biso   1.000  C
  C20      1.0000 0.38040  0.93880  0.47640  Biso   1.000  C
  C21      1.0000 0.38550  0.97000  0.44110  Biso   1.000  C
  C22      1.0000 0.41030  0.93960  0.40150  Biso   1.000  C
  C23      1.0000 0.43090  0.87560  0.39950  Biso   1.000  C
  C24      1.0000 0.35600  0.03660  0.44320  Biso   1.000  C
  C25      1.0000 0.26210  0.10160  0.47180  Biso   1.000  C
  C26      1.0000 0.36190  0.13640  0.41650  Biso   1.000  C
  C27      1.0000 0.08970  0.17360  0.53180  Biso   1.000  C
  C28      1.0000 0.16400  0.17100  0.50620  Biso   1.000  C
  C29      1.0000 0.18860  0.11000  0.50030  Biso   1.000  C
  C30      1.0000 0.14440  0.05480  0.52490  Biso   1.000  C
  C31      1.0000 0.07290  0.06400  0.54990  Biso   1.000  C
  C32      1.0000 0.47340  0.21320  0.32010  Biso   1.000  C
  C33      1.0000 0.43500  0.16340  0.34690  Biso   1.000  C
  C34      1.0000 0.40150  0.18740  0.38490  Biso   1.000  C
  C35      1.0000 0.40340  0.26040  0.39250  Biso   1.000  C
  C36      1.0000 0.44090  0.30760  0.36430  Biso   1.000  C
  C37      1.0000 0.69370  0.44000  0.80900  Biso   1.000  C
  C38      1.0000 0.60930  0.45300  0.80820  Biso   1.000  C
  C39      1.0000 0.52620  0.40300  0.78250  Biso   1.000  C
  C40      1.0000 0.52950  0.33720  0.75810  Biso   1.000  C
  C41      1.0000 0.61560  0.32480  0.76090  Biso   1.000  C
  C42      1.0000 0.43720  0.41960  0.77930  Biso   1.000  C
  C43      1.0000 0.35030  0.49160  0.79860  Biso   1.000  C
  C44      1.0000 0.28930  0.38640  0.74590  Biso   1.000  C
  C45      1.0000 0.23940  0.62860  0.85080  Biso   1.000  C
  C46      1.0000 0.25010  0.56980  0.82290  Biso   1.000  C
  C47      1.0000 0.33580  0.55760  0.82740  Biso   1.000  C
  C48      1.0000 0.40350  0.60600  0.86130  Biso   1.000  C
  C49      1.0000 0.38520  0.66260  0.88880  Biso   1.000  C
  C50      1.0000 0.14250  0.21540  0.65660  Biso   1.000  C
  C51      1.0000 0.21680  0.26680  0.68830  Biso   1.000  C
  C52      1.0000 0.21000  0.33320  0.71090  Biso   1.000  C
  C53      1.0000 0.12490  0.34500  0.70270  Biso   1.000  C
  C54      1.0000 0.05500  0.29180  0.67050  Biso   1.000  C
  C55      1.0000 0.47260  0.87660  0.97140  Biso   1.000  C
  C56      1.0000 0.55840  0.93880  0.97640  Biso   1.000  C
  C57      1.0000 0.58450  0.97000  0.94110  Biso   1.000  C
  C58      1.0000 0.52930  0.93960  0.90150  Biso   1.000  C
  C59      1.0000 0.44470  0.87560  0.89950  Biso   1.000  C
  C60      1.0000 0.68060  0.03660  0.94320  Biso   1.000  C
  C61      1.0000 0.83950  0.10160  0.97180  Biso   1.000  C
  C62      1.0000 0.77450  0.13640  0.91650  Biso   1.000  C
  C63      1.0000 0.08390  0.17360  0.03180  Biso   1.000  C
  C64      1.0000 0.00700  0.17100  0.00620  Biso   1.000  C
  C65      1.0000 0.92140  0.11000  0.00030  Biso   1.000  C
  C66      1.0000 0.91040  0.05480  0.02490  Biso   1.000  C
  C67      1.0000 0.99110  0.06400  0.04990  Biso   1.000  C
  C68      1.0000 0.73980  0.21320  0.82010  Biso   1.000  C
  C69      1.0000 0.72840  0.16340  0.84690  Biso   1.000  C
  C70      1.0000 0.78590  0.18740  0.88490  Biso   1.000  C
  C71      1.0000 0.85700  0.26040  0.89250  Biso   1.000  C
  C72      1.0000 0.86670  0.30760  0.86430  Biso   1.000  C
  I1       1.0000 0.45673  0.26110  0.20823  Biso   1.000  I
  I2       1.0000 0.50646  0.47426  0.30838  Biso   1.000  I
  I3       1.0000 0.45450  0.71066  0.50071  Biso   1.000  I
  I4       1.0000 0.63487  0.79168  0.39246  Biso   1.000  I
  I5       1.0000 0.87357  0.03076  0.63494  Biso   1.000  I
  I6       1.0000 0.86746  0.21110  0.56842  Biso   1.000  I
  I7       1.0000 0.80437  0.26110  0.70823  Biso   1.000  I
  I8       1.0000 0.96780  0.47426  0.80838  Biso   1.000  I
  I9       1.0000 0.25616  0.71066  0.00071  Biso   1.000  I
  I10      1.0000 0.15681  0.79168  0.89246  Biso   1.000  I
  I11      1.0000 0.15719  0.03076  0.13494  Biso   1.000  I
  I12      1.0000 0.34364  0.21110  0.06842  Biso   1.000  I
  N1       1.0000 0.68000  0.37440  0.28590  Biso   1.000  N
  N2       1.0000 0.05030  0.48140  0.30640  Biso   1.000  N
  N3       1.0000 0.16980  0.44720  0.26950  Biso   1.000  N
  N4       1.0000 0.00170  0.36800  0.24960  Biso   1.000  N
  N5       1.0000 0.37020  0.67400  0.38460  Biso   1.000  N
  N6       1.0000 0.16450  0.22680  0.14920  Biso   1.000  N
  N7       1.0000 0.43560  0.84720  0.43550  Biso   1.000  N
  N8       1.0000 0.29610  0.04620  0.47340  Biso   1.000  N
  N9       1.0000 0.29810  0.15000  0.44450  Biso   1.000  N
  N10      1.0000 0.39000  0.07900  0.41400  Biso   1.000  N
  N11      1.0000 0.04710  0.12320  0.55650  Biso   1.000  N
  N12      1.0000 0.48170  0.28560  0.32940  Biso   1.000  N
  N13      1.0000 0.69440  0.37440  0.78590  Biso   1.000  N
  N14      1.0000 0.43110  0.48140  0.80640  Biso   1.000  N
  N15      1.0000 0.27740  0.44720  0.76950  Biso   1.000  N
  N16      1.0000 0.36630  0.36800  0.74960  Biso   1.000  N
  N17      1.0000 0.30380  0.67400  0.88460  Biso   1.000  N
  N18      1.0000 0.06230  0.22680  0.64920  Biso   1.000  N
  N19      1.0000 0.41160  0.84720  0.93550  Biso   1.000  N
  N20      1.0000 0.75010  0.04620  0.97340  Biso   1.000  N
  N21      1.0000 0.85190  0.15000  0.94450  Biso   1.000  N
  N22      1.0000 0.68900  0.07900  0.91400  Biso   1.000  N
  N23      1.0000 0.07610  0.12320  0.05650  Biso   1.000  N
  N24      1.0000 0.80390  0.28560  0.82940  Biso   1.000  N
  Zn7      1.0000 0.17959  0.65004  0.21740  Biso   1.000  Zn
  Zn8      1.0000 0.72184  0.24408  0.07029  Biso   1.000  Zn
  Zn9      1.0000 0.81019  0.85416  0.89855  Biso   1.000  Zn
  Zn10     1.0000 0.47045  0.65004  0.71740  Biso   1.000  Zn
  Zn11     1.0000 0.52224  0.24408  0.57029  Biso   1.000  Zn
  Zn12     1.0000 0.04397  0.85416  0.39855  Biso   1.000  Zn
  H49      1.0000 0.24920  0.52280  0.17410  Biso   1.000  H
  H50      1.0000 0.39150  0.50160  0.17390  Biso   1.000  H
  H51      1.0000 0.52580  0.69960  0.26030  Biso   1.000  H
  H52      1.0000 0.38260  0.72120  0.25590  Biso   1.000  H
  H53      1.0000 0.81720  0.36160  0.15390  Biso   1.000  H
  H54      1.0000 0.80000  0.46280  0.19930  Biso   1.000  H
  H55      1.0000 0.53710  0.40000  0.13440  Biso   1.000  H
  H56      1.0000 0.56700  0.30480  0.08800  Biso   1.000  H
  H57      1.0000 0.85020  0.82860  0.36000  Biso   1.000  H
  H58      1.0000 0.72820  0.74420  0.30570  Biso   1.000  H
  H59      1.0000 0.88460  0.61180  0.28110  Biso   1.000  H
  H60      1.0000 0.00020  0.69840  0.33690  Biso   1.000  H
  H61      1.0000 0.54480  0.14760  0.00470  Biso   1.000  H
  H62      1.0000 0.40220  0.04080  0.99660  Biso   1.000  H
  H63      1.0000 0.45140  0.03840  0.12320  Biso   1.000  H
  H64      1.0000 0.59190  0.14960  0.12790  Biso   1.000  H
  H65      1.0000 0.85400  0.78660  0.96810  Biso   1.000  H
  H66      1.0000 0.98560  0.78760  0.00730  Biso   1.000  H
  H67      1.0000 0.15000  0.98680  0.97580  Biso   1.000  H
  H68      1.0000 0.01440  0.97620  0.93600  Biso   1.000  H
  H69      1.0000 0.30040  0.80480  0.20660  Biso   1.000  H
  H70      1.0000 0.31920  0.88760  0.16110  Biso   1.000  H
  H71      1.0000 0.09930  0.72160  0.08190  Biso   1.000  H
  H72      1.0000 0.08120  0.64340  0.13020  Biso   1.000  H
  H73      1.0000 0.27360  0.52280  0.67410  Biso   1.000  H
  H74      1.0000 0.11010  0.50160  0.67390  Biso   1.000  H
  H75      1.0000 0.17380  0.69960  0.76030  Biso   1.000  H
  H76      1.0000 0.33860  0.72120  0.75590  Biso   1.000  H
  H77      1.0000 0.54440  0.36160  0.65390  Biso   1.000  H
  H78      1.0000 0.66280  0.46280  0.69930  Biso   1.000  H
  H79      1.0000 0.86290  0.40000  0.63440  Biso   1.000  H
  H80      1.0000 0.73780  0.30480  0.58800  Biso   1.000  H
  H81      1.0000 0.97840  0.82860  0.86000  Biso   1.000  H
  H82      1.0000 0.01600  0.74420  0.80570  Biso   1.000  H
  H83      1.0000 0.72720  0.61180  0.78110  Biso   1.000  H
  H84      1.0000 0.69820  0.69840  0.83690  Biso   1.000  H
  H85      1.0000 0.60280  0.14760  0.50470  Biso   1.000  H
  H86      1.0000 0.63860  0.04080  0.49660  Biso   1.000  H
  H87      1.0000 0.58700  0.03840  0.62320  Biso   1.000  H
  H88      1.0000 0.55770  0.14960  0.62790  Biso   1.000  H
  H89      1.0000 0.93260  0.78660  0.46810  Biso   1.000  H
  H90      1.0000 0.80200  0.78760  0.50730  Biso   1.000  H
  H91      1.0000 0.83680  0.98680  0.47580  Biso   1.000  H
  H92      1.0000 0.96180  0.97620  0.43600  Biso   1.000  H
  H93      1.0000 0.50440  0.80480  0.70660  Biso   1.000  H
  H94      1.0000 0.56840  0.88760  0.66110  Biso   1.000  H
  H95      1.0000 0.62230  0.72160  0.58190  Biso   1.000  H
  H96      1.0000 0.56220  0.64340  0.63020  Biso   1.000  H
  C73      1.0000 0.30630  0.56000  0.19100  Biso   1.000  C
  C74      1.0000 0.39070  0.54700  0.19180  Biso   1.000  C
  C75      1.0000 0.47380  0.59700  0.21750  Biso   1.000  C
  C76      1.0000 0.47050  0.66280  0.24190  Biso   1.000  C
  C77      1.0000 0.38440  0.67520  0.23910  Biso   1.000  C
  C78      1.0000 0.56280  0.58040  0.22070  Biso   1.000  C
  C79      1.0000 0.64970  0.50840  0.20140  Biso   1.000  C
  C80      1.0000 0.71070  0.61360  0.25410  Biso   1.000  C
  C81      1.0000 0.76060  0.37140  0.14920  Biso   1.000  C
  C82      1.0000 0.74990  0.43020  0.17710  Biso   1.000  C
  C83      1.0000 0.66420  0.44240  0.17260  Biso   1.000  C
  C84      1.0000 0.59650  0.39400  0.13870  Biso   1.000  C
  C85      1.0000 0.61480  0.33740  0.11120  Biso   1.000  C
  C86      1.0000 0.85750  0.78460  0.34340  Biso   1.000  C
  C87      1.0000 0.78320  0.73320  0.31170  Biso   1.000  C
  C88      1.0000 0.79000  0.66680  0.28910  Biso   1.000  C
  C89      1.0000 0.87510  0.65500  0.29730  Biso   1.000  C
  C90      1.0000 0.94500  0.70820  0.32950  Biso   1.000  C
  C91      1.0000 0.52740  0.12340  0.02860  Biso   1.000  C
  C92      1.0000 0.44160  0.06120  0.02360  Biso   1.000  C
  C93      1.0000 0.41550  0.03000  0.05890  Biso   1.000  C
  C94      1.0000 0.47070  0.06040  0.09850  Biso   1.000  C
  C95      1.0000 0.55530  0.12440  0.10050  Biso   1.000  C
  C96      1.0000 0.31940  0.96340  0.05680  Biso   1.000  C
  C97      1.0000 0.16050  0.89840  0.02820  Biso   1.000  C
  C98      1.0000 0.22550  0.86360  0.08350  Biso   1.000  C
  C99      1.0000 0.91610  0.82640  0.96820  Biso   1.000  C
  C100     1.0000 0.99300  0.82900  0.99380  Biso   1.000  C
  C101     1.0000 0.07860  0.89000  0.99970  Biso   1.000  C
  C102     1.0000 0.08960  0.94520  0.97510  Biso   1.000  C
  C103     1.0000 0.00890  0.93600  0.95010  Biso   1.000  C
  C104     1.0000 0.26020  0.78680  0.17990  Biso   1.000  C
  C105     1.0000 0.27160  0.83660  0.15310  Biso   1.000  C
  C106     1.0000 0.21410  0.81260  0.11510  Biso   1.000  C
  C107     1.0000 0.14300  0.73960  0.10750  Biso   1.000  C
  C108     1.0000 0.13330  0.69240  0.13570  Biso   1.000  C
  C109     1.0000 0.25370  0.56000  0.69100  Biso   1.000  C
  C110     1.0000 0.15630  0.54700  0.69180  Biso   1.000  C
  C111     1.0000 0.12320  0.59700  0.71750  Biso   1.000  C
  C112     1.0000 0.19230  0.66280  0.74190  Biso   1.000  C
  C113     1.0000 0.29080  0.67520  0.73910  Biso   1.000  C
  C114     1.0000 0.01760  0.58040  0.72070  Biso   1.000  C
  C115     1.0000 0.85870  0.50840  0.70140  Biso   1.000  C
  C116     1.0000 0.90290  0.61360  0.75410  Biso   1.000  C
  C117     1.0000 0.61080  0.37140  0.64920  Biso   1.000  C
  C118     1.0000 0.68030  0.43020  0.67710  Biso   1.000  C
  C119     1.0000 0.77820  0.44240  0.67260  Biso   1.000  C
  C120     1.0000 0.79750  0.39400  0.63870  Biso   1.000  C
  C121     1.0000 0.72260  0.33740  0.61120  Biso   1.000  C
  C122     1.0000 0.92710  0.78460  0.84340  Biso   1.000  C
  C123     1.0000 0.95000  0.73320  0.81170  Biso   1.000  C
  C124     1.0000 0.87680  0.66680  0.78910  Biso   1.000  C
  C125     1.0000 0.77990  0.65500  0.79730  Biso   1.000  C
  C126     1.0000 0.76320  0.70820  0.82950  Biso   1.000  C
  C127     1.0000 0.59600  0.12340  0.52860  Biso   1.000  C
  C128     1.0000 0.61960  0.06120  0.52360  Biso   1.000  C
  C129     1.0000 0.61450  0.03000  0.55890  Biso   1.000  C
  C130     1.0000 0.58970  0.06040  0.59850  Biso   1.000  C
  C131     1.0000 0.56910  0.12440  0.60050  Biso   1.000  C
  C132     1.0000 0.64400  0.96340  0.55680  Biso   1.000  C
  C133     1.0000 0.73790  0.89840  0.52820  Biso   1.000  C
  C134     1.0000 0.63810  0.86360  0.58350  Biso   1.000  C
  C135     1.0000 0.91030  0.82640  0.46820  Biso   1.000  C
  C136     1.0000 0.83600  0.82900  0.49380  Biso   1.000  C
  C137     1.0000 0.81140  0.89000  0.49970  Biso   1.000  C
  C138     1.0000 0.85560  0.94520  0.47510  Biso   1.000  C
  C139     1.0000 0.92710  0.93600  0.45010  Biso   1.000  C
  C140     1.0000 0.52660  0.78680  0.67990  Biso   1.000  C
  C141     1.0000 0.56500  0.83660  0.65310  Biso   1.000  C
  C142     1.0000 0.59850  0.81260  0.61510  Biso   1.000  C
  C143     1.0000 0.59660  0.73960  0.60750  Biso   1.000  C
  C144     1.0000 0.55910  0.69240  0.63570  Biso   1.000  C
  I13      1.0000 0.19563  0.73890  0.29177  Biso   1.000  I
  I14      1.0000 0.03220  0.52574  0.19162  Biso   1.000  I
  I15      1.0000 0.74384  0.28934  0.99929  Biso   1.000  I
  I16      1.0000 0.84319  0.20832  0.10754  Biso   1.000  I
  I17      1.0000 0.84281  0.96924  0.86506  Biso   1.000  I
  I18      1.0000 0.65636  0.78890  0.93158  Biso   1.000  I
  I19      1.0000 0.54327  0.73890  0.79177  Biso   1.000  I
  I20      1.0000 0.49354  0.52574  0.69162  Biso   1.000  I
  I21      1.0000 0.54550  0.28934  0.49929  Biso   1.000  I
  I22      1.0000 0.36513  0.20832  0.60754  Biso   1.000  I
  I23      1.0000 0.12643  0.96924  0.36506  Biso   1.000  I
  I24      1.0000 0.13254  0.78890  0.43158  Biso   1.000  I
  N25      1.0000 0.30560  0.62560  0.21410  Biso   1.000  N
  N26      1.0000 0.56890  0.51860  0.19360  Biso   1.000  N
  N27      1.0000 0.72260  0.55280  0.23050  Biso   1.000  N
  N28      1.0000 0.63370  0.63200  0.25040  Biso   1.000  N
  N29      1.0000 0.69620  0.32600  0.11540  Biso   1.000  N
  N30      1.0000 0.93770  0.77320  0.35080  Biso   1.000  N
  N31      1.0000 0.58840  0.15280  0.06450  Biso   1.000  N
  N32      1.0000 0.24990  0.95380  0.02660  Biso   1.000  N
  N33      1.0000 0.14810  0.85000  0.05550  Biso   1.000  N
  N34      1.0000 0.31100  0.92100  0.08600  Biso   1.000  N
  N35      1.0000 0.92390  0.87680  0.94350  Biso   1.000  N
  N36      1.0000 0.19610  0.71440  0.17060  Biso   1.000  N
  N37      1.0000 0.32000  0.62560  0.71410  Biso   1.000  N
  N38      1.0000 0.94970  0.51860  0.69360  Biso   1.000  N
  N39      1.0000 0.83020  0.55280  0.73050  Biso   1.000  N
  N40      1.0000 0.99830  0.63200  0.75040  Biso   1.000  N
  N41      1.0000 0.62980  0.32600  0.61540  Biso   1.000  N
  N42      1.0000 0.83550  0.77320  0.85080  Biso   1.000  N
  N43      1.0000 0.56440  0.15280  0.56450  Biso   1.000  N
  N44      1.0000 0.70390  0.95380  0.52660  Biso   1.000  N
  N45      1.0000 0.70190  0.85000  0.55550  Biso   1.000  N
  N46      1.0000 0.61000  0.92100  0.58600  Biso   1.000  N
  N47      1.0000 0.95290  0.87680  0.44350  Biso   1.000  N
  N48      1.0000 0.51830  0.71440  0.67060  Biso   1.000  N
