data_image0
_cell_length_a       14.952
_cell_length_b       18.584
_cell_length_c       30.2316
_cell_angle_alpha    98.8197
_cell_angle_beta     92.0868
_cell_angle_gamma    111.615

_symmetry_space_group_name_H-M    P 1
_symmetry_int_tables_number       1

loop_
  _symmetry_equiv_pos_as_xyz
  'x, y, z'

loop_
  _atom_site_label
  _atom_site_occupancy
  _atom_site_fract_x
  _atom_site_fract_y
  _atom_site_fract_z
  _atom_site_thermal_displace_type
  _atom_site_B_iso_or_equiv
  _atom_site_type_symbol
  Zn1      1.0000 0.46501  0.67401  0.21501  Biso   1.000  Zn
  Zn2      1.0000 0.55641  0.29671  0.02771  Biso   1.000  Zn
  Zn3      1.0000 0.04889  0.84358  0.90797  Biso   1.000  Zn
  Zn4      1.0000 0.17652  0.64262  0.73952  Biso   1.000  Zn
  Zn5      1.0000 0.71437  0.24375  0.56625  Biso   1.000  Zn
  Zn6      1.0000 0.79265  0.84137  0.40367  Biso   1.000  Zn
  H1       1.0000 0.33430  0.74810  0.25750  Biso   1.000  H
  H2       1.0000 0.17050  0.72800  0.25690  Biso   1.000  H
  H3       1.0000 0.11460  0.54310  0.15670  Biso   1.000  H
  H4       1.0000 0.27860  0.56460  0.16010  Biso   1.000  H
  H5       1.0000 0.69050  0.70850  0.32410  Biso   1.000  H
  H6       1.0000 0.72440  0.62320  0.26980  Biso   1.000  H
  H7       1.0000 0.00630  0.74650  0.30690  Biso   1.000  H
  H8       1.0000 0.95980  0.82030  0.36200  Biso   1.000  H
  H9       1.0000 0.76360  0.34400  0.06000  Biso   1.000  H
  H10      1.0000 0.87560  0.42940  0.11710  Biso   1.000  H
  H11      1.0000 0.67350  0.49590  0.17460  Biso   1.000  H
  H12      1.0000 0.56970  0.41130  0.11480  Biso   1.000  H
  H13      1.0000 0.62170  0.18200  0.97220  Biso   1.000  H
  H14      1.0000 0.66600  0.07730  0.97140  Biso   1.000  H
  H15      1.0000 0.56620  0.06840  0.09300  Biso   1.000  H
  H16      1.0000 0.54200  0.18160  0.09090  Biso   1.000  H
  H17      1.0000 0.95030  0.80440  0.98790  Biso   1.000  H
  H18      1.0000 0.81540  0.81110  0.02210  Biso   1.000  H
  H19      1.0000 0.84860  0.00390  0.96240  Biso   1.000  H
  H20      1.0000 0.97170  0.97840  0.92670  Biso   1.000  H
  H21      1.0000 0.45590  0.81470  0.18500  Biso   1.000  H
  H22      1.0000 0.50310  0.89330  0.13320  Biso   1.000  H
  H23      1.0000 0.65630  0.76610  0.09140  Biso   1.000  H
  H24      1.0000 0.59300  0.68460  0.14030  Biso   1.000  H
  H25      1.0000 0.86000  0.82690  0.86660  Biso   1.000  H
  H26      1.0000 0.72880  0.74220  0.81420  Biso   1.000  H
  H27      1.0000 0.87530  0.59290  0.79630  Biso   1.000  H
  H28      1.0000 0.99590  0.68280  0.84940  Biso   1.000  H
  H29      1.0000 0.25300  0.52990  0.68110  Biso   1.000  H
  H30      1.0000 0.39640  0.50960  0.67760  Biso   1.000  H
  H31      1.0000 0.51410  0.68150  0.78440  Biso   1.000  H
  H32      1.0000 0.36530  0.68980  0.78920  Biso   1.000  H
  H33      1.0000 0.81720  0.35900  0.65110  Biso   1.000  H
  H34      1.0000 0.79440  0.45360  0.70270  Biso   1.000  H
  H35      1.0000 0.53620  0.40700  0.63650  Biso   1.000  H
  H36      1.0000 0.57010  0.31770  0.58210  Biso   1.000  H
  H37      1.0000 0.52970  0.15080  0.49790  Biso   1.000  H
  H38      1.0000 0.39280  0.03960  0.49570  Biso   1.000  H
  H39      1.0000 0.45900  0.03020  0.62270  Biso   1.000  H
  H40      1.0000 0.60670  0.12840  0.62230  Biso   1.000  H
  H41      1.0000 0.86520  0.76540  0.46990  Biso   1.000  H
  H42      1.0000 0.99120  0.77550  0.52050  Biso   1.000  H
  H43      1.0000 0.13630  0.98140  0.47560  Biso   1.000  H
  H44      1.0000 0.99740  0.96380  0.43130  Biso   1.000  H
  H45      1.0000 0.30930  0.79120  0.72010  Biso   1.000  H
  H46      1.0000 0.35010  0.85050  0.65830  Biso   1.000  H
  H47      1.0000 0.08990  0.71670  0.59580  Biso   1.000  H
  H48      1.0000 0.07240  0.63770  0.65060  Biso   1.000  H
  C1       1.0000 0.28790  0.70460  0.23780  Biso   1.000  C
  C2       1.0000 0.19170  0.69320  0.23780  Biso   1.000  C
  C3       1.0000 0.12780  0.62900  0.20880  Biso   1.000  C
  C4       1.0000 0.15930  0.58370  0.17870  Biso   1.000  C
  C5       1.0000 0.25590  0.59690  0.18030  Biso   1.000  C
  C6       1.0000 0.01980  0.60930  0.20830  Biso   1.000  C
  C7       1.0000 0.89850  0.63490  0.24380  Biso   1.000  C
  C8       1.0000 0.86710  0.54490  0.18200  Biso   1.000  C
  C9       1.0000 0.75530  0.71180  0.32320  Biso   1.000  C
  C10      1.0000 0.77550  0.66460  0.28870  Biso   1.000  C
  C11      1.0000 0.86940  0.67750  0.28170  Biso   1.000  C
  C12      1.0000 0.93970  0.73500  0.31020  Biso   1.000  C
  C13      1.0000 0.91030  0.77600  0.34420  Biso   1.000  C
  C14      1.0000 0.74440  0.37540  0.08250  Biso   1.000  C
  C15      1.0000 0.81100  0.42720  0.11650  Biso   1.000  C
  C16      1.0000 0.78970  0.47600  0.14970  Biso   1.000  C
  C17      1.0000 0.69530  0.46800  0.15120  Biso   1.000  C
  C18      1.0000 0.63490  0.41540  0.11530  Biso   1.000  C
  C19      1.0000 0.61220  0.15940  0.99860  Biso   1.000  C
  C20      1.0000 0.63760  0.09520  0.99620  Biso   1.000  C
  C21      1.0000 0.61840  0.05960  0.03290  Biso   1.000  C
  C22      1.0000 0.58100  0.09260  0.06730  Biso   1.000  C
  C23      1.0000 0.56430  0.15950  0.06520  Biso   1.000  C
  C24      1.0000 0.64780  0.98890  0.03950  Biso   1.000  C
  C25      1.0000 0.73660  0.92310  0.02200  Biso   1.000  C
  C26      1.0000 0.63590  0.89090  0.07500  Biso   1.000  C
  C27      1.0000 0.92320  0.84050  0.98060  Biso   1.000  C
  C28      1.0000 0.84770  0.84730  0.00340  Biso   1.000  C
  C29      1.0000 0.82150  0.90940  0.99760  Biso   1.000  C
  C30      1.0000 0.86620  0.96130  0.96710  Biso   1.000  C
  C31      1.0000 0.93660  0.94370  0.94560  Biso   1.000  C
  C32      1.0000 0.49690  0.80250  0.16440  Biso   1.000  C
  C33      1.0000 0.52730  0.85290  0.13430  Biso   1.000  C
  C34      1.0000 0.59380  0.84360  0.10560  Biso   1.000  C
  C35      1.0000 0.61280  0.77820  0.11050  Biso   1.000  C
  C36      1.0000 0.57550  0.72880  0.14030  Biso   1.000  C
  C37      1.0000 0.86110  0.77820  0.85190  Biso   1.000  C
  C38      1.0000 0.78350  0.72980  0.82060  Biso   1.000  C
  C39      1.0000 0.79360  0.66110  0.79940  Biso   1.000  C
  C40      1.0000 0.87090  0.64090  0.81010  Biso   1.000  C
  C41      1.0000 0.94110  0.69460  0.84200  Biso   1.000  C
  C42      1.0000 0.71040  0.60810  0.76370  Biso   1.000  C
  C43      1.0000 0.56320  0.57460  0.73140  Biso   1.000  C
  C44      1.0000 0.65030  0.50580  0.70720  Biso   1.000  C
  C45      1.0000 0.30540  0.55930  0.70350  Biso   1.000  C
  C46      1.0000 0.39110  0.54720  0.70140  Biso   1.000  C
  C47      1.0000 0.46850  0.58830  0.73290  Biso   1.000  C
  C48      1.0000 0.46020  0.64650  0.76420  Biso   1.000  C
  C49      1.0000 0.37210  0.65270  0.76550  Biso   1.000  C
  C50      1.0000 0.75960  0.36890  0.64760  Biso   1.000  C
  C51      1.0000 0.74540  0.42530  0.67860  Biso   1.000  C
  C52      1.0000 0.66400  0.44260  0.67630  Biso   1.000  C
  C53      1.0000 0.59530  0.39940  0.63980  Biso   1.000  C
  C54      1.0000 0.61510  0.34410  0.60790  Biso   1.000  C
  C55      1.0000 0.51830  0.12400  0.52270  Biso   1.000  C
  C56      1.0000 0.43610  0.05900  0.52240  Biso   1.000  C
  C57      1.0000 0.41170  0.01980  0.55780  Biso   1.000  C
  C58      1.0000 0.47530  0.05110  0.59600  Biso   1.000  C
  C59      1.0000 0.56200  0.11230  0.59620  Biso   1.000  C
  C60      1.0000 0.32160  0.95470  0.55600  Biso   1.000  C
  C61      1.0000 0.16240  0.89490  0.53300  Biso   1.000  C
  C62      1.0000 0.22620  0.85460  0.59010  Biso   1.000  C
  C63      1.0000 0.92120  0.81230  0.47320  Biso   1.000  C
  C64      1.0000 0.99570  0.81470  0.50290  Biso   1.000  C
  C65      1.0000 0.07680  0.88100  0.50360  Biso   1.000  C
  C66      1.0000 0.07860  0.93700  0.47580  Biso   1.000  C
  C67      1.0000 0.99590  0.92590  0.44940  Biso   1.000  C
  C68      1.0000 0.27100  0.77050  0.69200  Biso   1.000  C
  C69      1.0000 0.28760  0.81170  0.65860  Biso   1.000  C
  C70      1.0000 0.21790  0.80040  0.62510  Biso   1.000  C
  C71      1.0000 0.13820  0.73130  0.62040  Biso   1.000  C
  C72      1.0000 0.12960  0.68330  0.65210  Biso   1.000  C
  I1       1.0000 0.53519  0.75751  0.29261  Biso   1.000  I
  I2       1.0000 0.48502  0.54523  0.18541  Biso   1.000  I
  I3       1.0000 0.62347  0.35227  0.95937  Biso   1.000  I
  I4       1.0000 0.39027  0.27057  0.05817  Biso   1.000  I
  I5       1.0000 0.12353  0.76964  0.95147  Biso   1.000  I
  I6       1.0000 0.13476  0.95538  0.86703  Biso   1.000  I
  I7       1.0000 0.20261  0.73910  0.81328  Biso   1.000  I
  I8       1.0000 0.02395  0.52169  0.71392  Biso   1.000  I
  I9       1.0000 0.83940  0.20285  0.60323  Biso   1.000  I
  I10      1.0000 0.72621  0.29513  0.49228  Biso   1.000  I
  I11      1.0000 0.64750  0.76539  0.44045  Biso   1.000  I
  I12      1.0000 0.81757  0.96003  0.36782  Biso   1.000  I
  N1       1.0000 0.31740  0.65600  0.21060  Biso   1.000  N
  N2       1.0000 0.99290  0.65170  0.24090  Biso   1.000  N
  N3       1.0000 0.83030  0.57730  0.21530  Biso   1.000  N
  N4       1.0000 0.95570  0.55460  0.17750  Biso   1.000  N
  N5       1.0000 0.82120  0.76150  0.35530  Biso   1.000  N
  N6       1.0000 0.65280  0.36960  0.08140  Biso   1.000  N
  N7       1.0000 0.57720  0.19640  0.03020  Biso   1.000  N
  N8       1.0000 0.71450  0.98280  0.01250  Biso   1.000  N
  N9       1.0000 0.70140  0.87600  0.05090  Biso   1.000  N
  N10      1.0000 0.60620  0.94830  0.06920  Biso   1.000  N
  N11      1.0000 0.95990  0.88190  0.94890  Biso   1.000  N
  N12      1.0000 0.51500  0.74090  0.16920  Biso   1.000  N
  N13      1.0000 0.93850  0.76000  0.86280  Biso   1.000  N
  N14      1.0000 0.63200  0.62630  0.76260  Biso   1.000  N
  N15      1.0000 0.56660  0.51650  0.70220  Biso   1.000  N
  N16      1.0000 0.72620  0.54580  0.73710  Biso   1.000  N
  N17      1.0000 0.29540  0.61120  0.73630  Biso   1.000  N
  N18      1.0000 0.69390  0.32760  0.61260  Biso   1.000  N
  N19      1.0000 0.58690  0.15010  0.56200  Biso   1.000  N
  N20      1.0000 0.24730  0.94760  0.52690  Biso   1.000  N
  N21      1.0000 0.15090  0.84380  0.56110  Biso   1.000  N
  N22      1.0000 0.31740  0.90820  0.58800  Biso   1.000  N
  N23      1.0000 0.91400  0.86410  0.44840  Biso   1.000  N
  N24      1.0000 0.20090  0.70020  0.68490  Biso   1.000  N
  Zn7      1.0000 0.53499  0.32599  0.78499  Biso   1.000  Zn
  Zn8      1.0000 0.44359  0.70329  0.97229  Biso   1.000  Zn
  Zn9      1.0000 0.95111  0.15642  0.09203  Biso   1.000  Zn
  Zn10     1.0000 0.82348  0.35738  0.26048  Biso   1.000  Zn
  Zn11     1.0000 0.28563  0.75625  0.43375  Biso   1.000  Zn
  Zn12     1.0000 0.20735  0.15863  0.59633  Biso   1.000  Zn
  H49      1.0000 0.66570  0.25190  0.74250  Biso   1.000  H
  H50      1.0000 0.82950  0.27200  0.74310  Biso   1.000  H
  H51      1.0000 0.88540  0.45690  0.84330  Biso   1.000  H
  H52      1.0000 0.72140  0.43540  0.83990  Biso   1.000  H
  H53      1.0000 0.30950  0.29150  0.67590  Biso   1.000  H
  H54      1.0000 0.27560  0.37680  0.73020  Biso   1.000  H
  H55      1.0000 0.99370  0.25350  0.69310  Biso   1.000  H
  H56      1.0000 0.04020  0.17970  0.63800  Biso   1.000  H
  H57      1.0000 0.23640  0.65600  0.94000  Biso   1.000  H
  H58      1.0000 0.12440  0.57060  0.88290  Biso   1.000  H
  H59      1.0000 0.32650  0.50410  0.82540  Biso   1.000  H
  H60      1.0000 0.43030  0.58870  0.88520  Biso   1.000  H
  H61      1.0000 0.37830  0.81800  0.02780  Biso   1.000  H
  H62      1.0000 0.33400  0.92270  0.02860  Biso   1.000  H
  H63      1.0000 0.43380  0.93160  0.90700  Biso   1.000  H
  H64      1.0000 0.45800  0.81840  0.90910  Biso   1.000  H
  H65      1.0000 0.04970  0.19560  0.01210  Biso   1.000  H
  H66      1.0000 0.18460  0.18890  0.97790  Biso   1.000  H
  H67      1.0000 0.15140  0.99610  0.03760  Biso   1.000  H
  H68      1.0000 0.02830  0.02160  0.07330  Biso   1.000  H
  H69      1.0000 0.54410  0.18530  0.81500  Biso   1.000  H
  H70      1.0000 0.49690  0.10670  0.86680  Biso   1.000  H
  H71      1.0000 0.34370  0.23390  0.90860  Biso   1.000  H
  H72      1.0000 0.40700  0.31540  0.85970  Biso   1.000  H
  H73      1.0000 0.14000  0.17310  0.13340  Biso   1.000  H
  H74      1.0000 0.27120  0.25780  0.18580  Biso   1.000  H
  H75      1.0000 0.12470  0.40710  0.20370  Biso   1.000  H
  H76      1.0000 0.00410  0.31720  0.15060  Biso   1.000  H
  H77      1.0000 0.74700  0.47010  0.31890  Biso   1.000  H
  H78      1.0000 0.60360  0.49040  0.32240  Biso   1.000  H
  H79      1.0000 0.48590  0.31850  0.21560  Biso   1.000  H
  H80      1.0000 0.63470  0.31020  0.21080  Biso   1.000  H
  H81      1.0000 0.18280  0.64100  0.34890  Biso   1.000  H
  H82      1.0000 0.20560  0.54640  0.29730  Biso   1.000  H
  H83      1.0000 0.46380  0.59300  0.36350  Biso   1.000  H
  H84      1.0000 0.42990  0.68230  0.41790  Biso   1.000  H
  H85      1.0000 0.47030  0.84920  0.50210  Biso   1.000  H
  H86      1.0000 0.60720  0.96040  0.50430  Biso   1.000  H
  H87      1.0000 0.54100  0.96980  0.37730  Biso   1.000  H
  H88      1.0000 0.39330  0.87160  0.37770  Biso   1.000  H
  H89      1.0000 0.13480  0.23460  0.53010  Biso   1.000  H
  H90      1.0000 0.00880  0.22450  0.47950  Biso   1.000  H
  H91      1.0000 0.86370  0.01860  0.52440  Biso   1.000  H
  H92      1.0000 0.00260  0.03620  0.56870  Biso   1.000  H
  H93      1.0000 0.69070  0.20880  0.27990  Biso   1.000  H
  H94      1.0000 0.64990  0.14950  0.34170  Biso   1.000  H
  H95      1.0000 0.91010  0.28330  0.40420  Biso   1.000  H
  H96      1.0000 0.92760  0.36230  0.34940  Biso   1.000  H
  C73      1.0000 0.71210  0.29540  0.76220  Biso   1.000  C
  C74      1.0000 0.80830  0.30680  0.76220  Biso   1.000  C
  C75      1.0000 0.87220  0.37100  0.79120  Biso   1.000  C
  C76      1.0000 0.84070  0.41630  0.82130  Biso   1.000  C
  C77      1.0000 0.74410  0.40310  0.81970  Biso   1.000  C
  C78      1.0000 0.98020  0.39070  0.79170  Biso   1.000  C
  C79      1.0000 0.10150  0.36510  0.75620  Biso   1.000  C
  C80      1.0000 0.13290  0.45510  0.81800  Biso   1.000  C
  C81      1.0000 0.24470  0.28820  0.67680  Biso   1.000  C
  C82      1.0000 0.22450  0.33540  0.71130  Biso   1.000  C
  C83      1.0000 0.13060  0.32250  0.71830  Biso   1.000  C
  C84      1.0000 0.06030  0.26500  0.68980  Biso   1.000  C
  C85      1.0000 0.08970  0.22400  0.65580  Biso   1.000  C
  C86      1.0000 0.25560  0.62460  0.91750  Biso   1.000  C
  C87      1.0000 0.18900  0.57280  0.88350  Biso   1.000  C
  C88      1.0000 0.21030  0.52400  0.85030  Biso   1.000  C
  C89      1.0000 0.30470  0.53200  0.84880  Biso   1.000  C
  C90      1.0000 0.36510  0.58460  0.88470  Biso   1.000  C
  C91      1.0000 0.38780  0.84060  0.00140  Biso   1.000  C
  C92      1.0000 0.36240  0.90480  0.00380  Biso   1.000  C
  C93      1.0000 0.38160  0.94040  0.96710  Biso   1.000  C
  C94      1.0000 0.41900  0.90740  0.93270  Biso   1.000  C
  C95      1.0000 0.43570  0.84050  0.93480  Biso   1.000  C
  C96      1.0000 0.35220  0.01110  0.96050  Biso   1.000  C
  C97      1.0000 0.26340  0.07690  0.97800  Biso   1.000  C
  C98      1.0000 0.36410  0.10910  0.92500  Biso   1.000  C
  C99      1.0000 0.07680  0.15950  0.01940  Biso   1.000  C
  C100     1.0000 0.15230  0.15270  0.99660  Biso   1.000  C
  C101     1.0000 0.17850  0.09060  0.00240  Biso   1.000  C
  C102     1.0000 0.13380  0.03870  0.03290  Biso   1.000  C
  C103     1.0000 0.06340  0.05630  0.05440  Biso   1.000  C
  C104     1.0000 0.50310  0.19750  0.83560  Biso   1.000  C
  C105     1.0000 0.47270  0.14710  0.86570  Biso   1.000  C
  C106     1.0000 0.40620  0.15640  0.89440  Biso   1.000  C
  C107     1.0000 0.38720  0.22180  0.88950  Biso   1.000  C
  C108     1.0000 0.42450  0.27120  0.85970  Biso   1.000  C
  C109     1.0000 0.13890  0.22180  0.14810  Biso   1.000  C
  C110     1.0000 0.21650  0.27020  0.17940  Biso   1.000  C
  C111     1.0000 0.20640  0.33890  0.20060  Biso   1.000  C
  C112     1.0000 0.12910  0.35910  0.18990  Biso   1.000  C
  C113     1.0000 0.05890  0.30540  0.15800  Biso   1.000  C
  C114     1.0000 0.28960  0.39190  0.23630  Biso   1.000  C
  C115     1.0000 0.43680  0.42540  0.26860  Biso   1.000  C
  C116     1.0000 0.34970  0.49420  0.29280  Biso   1.000  C
  C117     1.0000 0.69460  0.44070  0.29650  Biso   1.000  C
  C118     1.0000 0.60890  0.45280  0.29860  Biso   1.000  C
  C119     1.0000 0.53150  0.41170  0.26710  Biso   1.000  C
  C120     1.0000 0.53980  0.35350  0.23580  Biso   1.000  C
  C121     1.0000 0.62790  0.34730  0.23450  Biso   1.000  C
  C122     1.0000 0.24040  0.63110  0.35240  Biso   1.000  C
  C123     1.0000 0.25460  0.57470  0.32140  Biso   1.000  C
  C124     1.0000 0.33600  0.55740  0.32370  Biso   1.000  C
  C125     1.0000 0.40470  0.60060  0.36020  Biso   1.000  C
  C126     1.0000 0.38490  0.65590  0.39210  Biso   1.000  C
  C127     1.0000 0.48170  0.87600  0.47730  Biso   1.000  C
  C128     1.0000 0.56390  0.94100  0.47760  Biso   1.000  C
  C129     1.0000 0.58830  0.98020  0.44220  Biso   1.000  C
  C130     1.0000 0.52470  0.94890  0.40400  Biso   1.000  C
  C131     1.0000 0.43800  0.88770  0.40380  Biso   1.000  C
  C132     1.0000 0.67840  0.04530  0.44400  Biso   1.000  C
  C133     1.0000 0.83760  0.10510  0.46700  Biso   1.000  C
  C134     1.0000 0.77380  0.14540  0.40990  Biso   1.000  C
  C135     1.0000 0.07880  0.18770  0.52680  Biso   1.000  C
  C136     1.0000 0.00430  0.18530  0.49710  Biso   1.000  C
  C137     1.0000 0.92320  0.11900  0.49640  Biso   1.000  C
  C138     1.0000 0.92140  0.06300  0.52420  Biso   1.000  C
  C139     1.0000 0.00410  0.07410  0.55060  Biso   1.000  C
  C140     1.0000 0.72900  0.22950  0.30800  Biso   1.000  C
  C141     1.0000 0.71240  0.18830  0.34140  Biso   1.000  C
  C142     1.0000 0.78210  0.19960  0.37490  Biso   1.000  C
  C143     1.0000 0.86180  0.26870  0.37960  Biso   1.000  C
  C144     1.0000 0.87040  0.31670  0.34790  Biso   1.000  C
  I13      1.0000 0.46481  0.24249  0.70739  Biso   1.000  I
  I14      1.0000 0.51498  0.45477  0.81459  Biso   1.000  I
  I15      1.0000 0.37653  0.64773  0.04063  Biso   1.000  I
  I16      1.0000 0.60973  0.72943  0.94183  Biso   1.000  I
  I17      1.0000 0.87647  0.23036  0.04853  Biso   1.000  I
  I18      1.0000 0.86524  0.04462  0.13297  Biso   1.000  I
  I19      1.0000 0.79739  0.26090  0.18672  Biso   1.000  I
  I20      1.0000 0.97605  0.47831  0.28608  Biso   1.000  I
  I21      1.0000 0.16060  0.79715  0.39677  Biso   1.000  I
  I22      1.0000 0.27379  0.70487  0.50772  Biso   1.000  I
  I23      1.0000 0.35250  0.23461  0.55955  Biso   1.000  I
  I24      1.0000 0.18243  0.03997  0.63218  Biso   1.000  I
  N25      1.0000 0.68260  0.34400  0.78940  Biso   1.000  N
  N26      1.0000 0.00710  0.34830  0.75910  Biso   1.000  N
  N27      1.0000 0.16970  0.42270  0.78470  Biso   1.000  N
  N28      1.0000 0.04430  0.44540  0.82250  Biso   1.000  N
  N29      1.0000 0.17880  0.23850  0.64470  Biso   1.000  N
  N30      1.0000 0.34720  0.63040  0.91860  Biso   1.000  N
  N31      1.0000 0.42280  0.80360  0.96980  Biso   1.000  N
  N32      1.0000 0.28550  0.01720  0.98750  Biso   1.000  N
  N33      1.0000 0.29860  0.12400  0.94910  Biso   1.000  N
  N34      1.0000 0.39380  0.05170  0.93080  Biso   1.000  N
  N35      1.0000 0.04010  0.11810  0.05110  Biso   1.000  N
  N36      1.0000 0.48500  0.25910  0.83080  Biso   1.000  N
  N37      1.0000 0.06150  0.24000  0.13720  Biso   1.000  N
  N38      1.0000 0.36800  0.37370  0.23740  Biso   1.000  N
  N39      1.0000 0.43340  0.48350  0.29780  Biso   1.000  N
  N40      1.0000 0.27380  0.45420  0.26290  Biso   1.000  N
  N41      1.0000 0.70460  0.38880  0.26370  Biso   1.000  N
  N42      1.0000 0.30610  0.67240  0.38740  Biso   1.000  N
  N43      1.0000 0.41310  0.84990  0.43800  Biso   1.000  N
  N44      1.0000 0.75270  0.05240  0.47310  Biso   1.000  N
  N45      1.0000 0.84910  0.15620  0.43890  Biso   1.000  N
  N46      1.0000 0.68260  0.09180  0.41200  Biso   1.000  N
  N47      1.0000 0.08600  0.13590  0.55160  Biso   1.000  N
  N48      1.0000 0.79910  0.29980  0.31510  Biso   1.000  N
