data_image0
_cell_length_a       14.879
_cell_length_b       19.293
_cell_length_c       30.538
_cell_angle_alpha    102.12
_cell_angle_beta     90
_cell_angle_gamma    112.681

_symmetry_space_group_name_H-M    P 1
_symmetry_int_tables_number       1

loop_
  _symmetry_equiv_pos_as_xyz
  'x, y, z'

loop_
  _atom_site_label
  _atom_site_occupancy
  _atom_site_fract_x
  _atom_site_fract_y
  _atom_site_fract_z
  _atom_site_thermal_displace_type
  _atom_site_B_iso_or_equiv
  _atom_site_type_symbol
  Zn1      1.0000 0.54185  0.82996  0.41172  Biso   1.000  Zn
  Zn2      1.0000 0.02446  0.23952  0.55775  Biso   1.000  Zn
  Zn3      1.0000 0.96184  0.65460  0.73153  Biso   1.000  Zn
  Zn4      1.0000 0.28811  0.82996  0.91172  Biso   1.000  Zn
  Zn5      1.0000 0.21506  0.23952  0.05775  Biso   1.000  Zn
  Zn6      1.0000 0.69276  0.65460  0.23153  Biso   1.000  Zn
  H1       1.0000 0.41500  0.76520  0.48080  Biso   1.000  H
  H2       1.0000 0.30820  0.78760  0.53110  Biso   1.000  H
  H3       1.0000 0.34030  0.97440  0.48360  Biso   1.000  H
  H4       1.0000 0.45700  0.95320  0.44010  Biso   1.000  H
  H5       1.0000 0.92880  0.77820  0.69590  Biso   1.000  H
  H6       1.0000 0.99490  0.85840  0.64790  Biso   1.000  H
  H7       1.0000 0.19750  0.77060  0.62470  Biso   1.000  H
  H8       1.0000 0.12180  0.68540  0.66910  Biso   1.000  H
  H9       1.0000 0.10110  0.13280  0.49580  Biso   1.000  H
  H10      1.0000 0.14900  0.03420  0.49720  Biso   1.000  H
  H11      1.0000 0.07860  0.04580  0.62610  Biso   1.000  H
  H12      1.0000 0.02470  0.13980  0.61860  Biso   1.000  H
  H13      1.0000 0.04050  0.35780  0.64550  Biso   1.000  H
  H14      1.0000 0.16140  0.46100  0.69330  Biso   1.000  H
  H15      1.0000 0.36730  0.41820  0.61980  Biso   1.000  H
  H16      1.0000 0.23910  0.32240  0.56730  Biso   1.000  H
  H17      1.0000 0.45650  0.80020  0.87820  Biso   1.000  H
  H18      1.0000 0.50220  0.72620  0.81720  Biso   1.000  H
  H19      1.0000 0.21430  0.60460  0.77940  Biso   1.000  H
  H20      1.0000 0.17900  0.68060  0.84160  Biso   1.000  H
  H21      1.0000 0.77080  0.53180  0.67700  Biso   1.000  H
  H22      1.0000 0.60800  0.51400  0.66780  Biso   1.000  H
  H23      1.0000 0.66120  0.69860  0.76820  Biso   1.000  H
  H24      1.0000 0.82470  0.72400  0.76840  Biso   1.000  H
  H25      1.0000 0.35020  0.76520  0.98080  Biso   1.000  H
  H26      1.0000 0.47940  0.78760  0.03110  Biso   1.000  H
  H27      1.0000 0.63410  0.97440  0.98360  Biso   1.000  H
  H28      1.0000 0.49620  0.95320  0.94010  Biso   1.000  H
  H29      1.0000 0.84940  0.77820  0.19590  Biso   1.000  H
  H30      1.0000 0.86350  0.85840  0.14790  Biso   1.000  H
  H31      1.0000 0.57310  0.77060  0.12470  Biso   1.000  H
  H32      1.0000 0.56360  0.68540  0.16910  Biso   1.000  H
  H33      1.0000 0.03170  0.13280  0.99580  Biso   1.000  H
  H34      1.0000 0.88520  0.03420  0.99720  Biso   1.000  H
  H35      1.0000 0.96720  0.04580  0.12610  Biso   1.000  H
  H36      1.0000 0.11510  0.13980  0.11860  Biso   1.000  H
  H37      1.0000 0.31730  0.35780  0.14550  Biso   1.000  H
  H38      1.0000 0.29960  0.46100  0.19330  Biso   1.000  H
  H39      1.0000 0.05090  0.41820  0.11980  Biso   1.000  H
  H40      1.0000 0.08330  0.32240  0.06730  Biso   1.000  H
  H41      1.0000 0.34370  0.80020  0.37820  Biso   1.000  H
  H42      1.0000 0.22400  0.72620  0.31720  Biso   1.000  H
  H43      1.0000 0.39030  0.60460  0.27940  Biso   1.000  H
  H44      1.0000 0.50160  0.68060  0.34160  Biso   1.000  H
  H45      1.0000 0.76100  0.53180  0.17700  Biso   1.000  H
  H46      1.0000 0.90600  0.51400  0.16780  Biso   1.000  H
  H47      1.0000 0.03740  0.69860  0.26820  Biso   1.000  H
  H48      1.0000 0.89930  0.72400  0.26840  Biso   1.000  H
  C1       1.0000 0.40120  0.80980  0.48250  Biso   1.000  C
  C2       1.0000 0.33550  0.82080  0.51130  Biso   1.000  C
  C3       1.0000 0.31030  0.88200  0.51030  Biso   1.000  C
  C4       1.0000 0.35590  0.93120  0.48400  Biso   1.000  C
  C5       1.0000 0.42440  0.91780  0.45800  Biso   1.000  C
  C6       1.0000 0.23650  0.89640  0.54130  Biso   1.000  C
  C7       1.0000 0.14360  0.86960  0.59770  Biso   1.000  C
  C8       1.0000 0.14320  0.96160  0.56350  Biso   1.000  C
  C9       1.0000 0.98280  0.77480  0.68030  Biso   1.000  C
  C10      1.0000 0.02250  0.82280  0.65160  Biso   1.000  C
  C11      1.0000 0.09820  0.82140  0.62880  Biso   1.000  C
  C12      1.0000 0.13960  0.77080  0.63770  Biso   1.000  C
  C13      1.0000 0.09610  0.72200  0.66510  Biso   1.000  C
  C14      1.0000 0.09600  0.11460  0.52270  Biso   1.000  C
  C15      1.0000 0.12380  0.05500  0.52290  Biso   1.000  C
  C16      1.0000 0.11530  0.02540  0.56040  Biso   1.000  C
  C17      1.0000 0.08130  0.06140  0.59840  Biso   1.000  C
  C18      1.0000 0.05290  0.11920  0.59400  Biso   1.000  C
  C19      1.0000 0.10690  0.37060  0.63950  Biso   1.000  C
  C20      1.0000 0.17910  0.43180  0.66830  Biso   1.000  C
  C21      1.0000 0.27650  0.45100  0.66130  Biso   1.000  C
  C22      1.0000 0.30080  0.40820  0.62460  Biso   1.000  C
  C23      1.0000 0.22350  0.34860  0.59420  Biso   1.000  C
  C24      1.0000 0.35150  0.51460  0.69280  Biso   1.000  C
  C25      1.0000 0.38960  0.61300  0.75360  Biso   1.000  C
  C26      1.0000 0.50920  0.58440  0.71790  Biso   1.000  C
  C27      1.0000 0.40720  0.76020  0.85710  Biso   1.000  C
  C28      1.0000 0.43540  0.71640  0.82100  Biso   1.000  C
  C29      1.0000 0.36210  0.65900  0.79190  Biso   1.000  C
  C30      1.0000 0.26590  0.64500  0.79920  Biso   1.000  C
  C31      1.0000 0.24550  0.69160  0.83620  Biso   1.000  C
  C32      1.0000 0.74880  0.56800  0.69460  Biso   1.000  C
  C33      1.0000 0.65090  0.55560  0.69040  Biso   1.000  C
  C34      1.0000 0.61420  0.60240  0.71850  Biso   1.000  C
  C35      1.0000 0.68220  0.66440  0.74790  Biso   1.000  C
  C36      1.0000 0.77970  0.67840  0.74880  Biso   1.000  C
  C37      1.0000 0.40860  0.80980  0.98250  Biso   1.000  C
  C38      1.0000 0.48530  0.82080  0.01130  Biso   1.000  C
  C39      1.0000 0.57170  0.88200  0.01030  Biso   1.000  C
  C40      1.0000 0.57530  0.93120  0.98400  Biso   1.000  C
  C41      1.0000 0.49340  0.91780  0.95800  Biso   1.000  C
  C42      1.0000 0.65990  0.89640  0.04130  Biso   1.000  C
  C43      1.0000 0.72600  0.86960  0.09770  Biso   1.000  C
  C44      1.0000 0.81840  0.96160  0.06350  Biso   1.000  C
  C45      1.0000 0.79200  0.77480  0.18030  Biso   1.000  C
  C46      1.0000 0.80030  0.82280  0.15160  Biso   1.000  C
  C47      1.0000 0.72320  0.82140  0.12880  Biso   1.000  C
  C48      1.0000 0.63120  0.77080  0.13770  Biso   1.000  C
  C49      1.0000 0.62590  0.72200  0.16510  Biso   1.000  C
  C50      1.0000 0.01860  0.11460  0.02270  Biso   1.000  C
  C51      1.0000 0.93120  0.05500  0.02290  Biso   1.000  C
  C52      1.0000 0.91010  0.02540  0.06040  Biso   1.000  C
  C53      1.0000 0.98010  0.06140  0.09840  Biso   1.000  C
  C54      1.0000 0.06630  0.11920  0.09400  Biso   1.000  C
  C55      1.0000 0.26370  0.37060  0.13950  Biso   1.000  C
  C56      1.0000 0.25270  0.43180  0.16830  Biso   1.000  C
  C57      1.0000 0.17450  0.45100  0.16130  Biso   1.000  C
  C58      1.0000 0.10740  0.40820  0.12460  Biso   1.000  C
  C59      1.0000 0.12510  0.34860  0.09420  Biso   1.000  C
  C60      1.0000 0.16310  0.51460  0.19280  Biso   1.000  C
  C61      1.0000 0.22340  0.61300  0.25360  Biso   1.000  C
  C62      1.0000 0.07520  0.58440  0.21790  Biso   1.000  C
  C63      1.0000 0.35300  0.76020  0.35710  Biso   1.000  C
  C64      1.0000 0.28100  0.71640  0.32100  Biso   1.000  C
  C65      1.0000 0.29690  0.65900  0.29190  Biso   1.000  C
  C66      1.0000 0.37910  0.64500  0.29920  Biso   1.000  C
  C67      1.0000 0.44610  0.69160  0.33620  Biso   1.000  C
  C68      1.0000 0.81920  0.56800  0.19460  Biso   1.000  C
  C69      1.0000 0.90470  0.55560  0.19040  Biso   1.000  C
  C70      1.0000 0.98820  0.60240  0.21850  Biso   1.000  C
  C71      1.0000 0.98220  0.66440  0.24790  Biso   1.000  C
  C72      1.0000 0.89870  0.67840  0.24880  Biso   1.000  C
  I1       1.0000 0.62970  0.76996  0.45113  Biso   1.000  I
  I2       1.0000 0.61606  0.93946  0.37229  Biso   1.000  I
  I3       1.0000 0.86450  0.21108  0.59448  Biso   1.000  I
  I4       1.0000 0.05182  0.27092  0.48141  Biso   1.000  I
  I5       1.0000 0.99421  0.53352  0.70249  Biso   1.000  I
  I6       1.0000 0.02574  0.74122  0.80959  Biso   1.000  I
  I7       1.0000 0.14026  0.76996  0.95113  Biso   1.000  I
  I8       1.0000 0.32340  0.93946  0.87229  Biso   1.000  I
  I9       1.0000 0.34658  0.21108  0.09448  Biso   1.000  I
  I10      1.0000 0.21910  0.27092  0.98141  Biso   1.000  I
  I11      1.0000 0.53931  0.53352  0.20249  Biso   1.000  I
  I12      1.0000 0.71548  0.74122  0.30959  Biso   1.000  I
  N1       1.0000 0.44770  0.85820  0.45660  Biso   1.000  N
  N2       1.0000 0.20880  0.85400  0.57160  Biso   1.000  N
  N3       1.0000 0.11030  0.92420  0.59610  Biso   1.000  N
  N4       1.0000 0.20330  0.94780  0.53350  Biso   1.000  N
  N5       1.0000 0.01810  0.72420  0.68670  Biso   1.000  N
  N6       1.0000 0.06190  0.14920  0.55740  Biso   1.000  N
  N7       1.0000 0.12860  0.32820  0.60270  Biso   1.000  N
  N8       1.0000 0.32050  0.55360  0.72700  Biso   1.000  N
  N9       1.0000 0.48590  0.63200  0.75260  Biso   1.000  N
  N10      1.0000 0.44800  0.52760  0.68710  Biso   1.000  N
  N11      1.0000 0.31120  0.74720  0.86280  Biso   1.000  N
  N12      1.0000 0.81380  0.63100  0.72350  Biso   1.000  N
  N13      1.0000 0.41050  0.85820  0.95660  Biso   1.000  N
  N14      1.0000 0.64520  0.85400  0.07160  Biso   1.000  N
  N15      1.0000 0.81390  0.92420  0.09610  Biso   1.000  N
  N16      1.0000 0.74450  0.94780  0.03350  Biso   1.000  N
  N17      1.0000 0.70610  0.72420  0.18670  Biso   1.000  N
  N18      1.0000 0.08730  0.14920  0.05740  Biso   1.000  N
  N19      1.0000 0.19960  0.32820  0.10270  Biso   1.000  N
  N20      1.0000 0.23310  0.55360  0.22700  Biso   1.000  N
  N21      1.0000 0.14610  0.63200  0.25260  Biso   1.000  N
  N22      1.0000 0.07960  0.52760  0.18710  Biso   1.000  N
  N23      1.0000 0.43600  0.74720  0.36280  Biso   1.000  N
  N24      1.0000 0.81720  0.63100  0.22350  Biso   1.000  N
  Zn7      1.0000 0.71189  0.17004  0.08828  Biso   1.000  Zn
  Zn8      1.0000 0.78494  0.76048  0.94225  Biso   1.000  Zn
  Zn9      1.0000 0.30724  0.34540  0.76847  Biso   1.000  Zn
  Zn10     1.0000 0.45815  0.17004  0.58828  Biso   1.000  Zn
  Zn11     1.0000 0.97554  0.76048  0.44225  Biso   1.000  Zn
  Zn12     1.0000 0.03816  0.34540  0.26847  Biso   1.000  Zn
  H49      1.0000 0.64980  0.23480  0.01920  Biso   1.000  H
  H50      1.0000 0.52060  0.21240  0.96890  Biso   1.000  H
  H51      1.0000 0.36590  0.02560  0.01640  Biso   1.000  H
  H52      1.0000 0.50380  0.04680  0.05990  Biso   1.000  H
  H53      1.0000 0.15060  0.22180  0.80410  Biso   1.000  H
  H54      1.0000 0.13650  0.14160  0.85210  Biso   1.000  H
  H55      1.0000 0.42690  0.22940  0.87530  Biso   1.000  H
  H56      1.0000 0.43640  0.31460  0.83090  Biso   1.000  H
  H57      1.0000 0.96830  0.86720  0.00420  Biso   1.000  H
  H58      1.0000 0.11480  0.96580  0.00280  Biso   1.000  H
  H59      1.0000 0.03280  0.95420  0.87390  Biso   1.000  H
  H60      1.0000 0.88490  0.86020  0.88140  Biso   1.000  H
  H61      1.0000 0.68270  0.64220  0.85450  Biso   1.000  H
  H62      1.0000 0.70040  0.53900  0.80670  Biso   1.000  H
  H63      1.0000 0.94910  0.58180  0.88020  Biso   1.000  H
  H64      1.0000 0.91670  0.67760  0.93270  Biso   1.000  H
  H65      1.0000 0.65630  0.19980  0.62180  Biso   1.000  H
  H66      1.0000 0.77600  0.27380  0.68280  Biso   1.000  H
  H67      1.0000 0.60970  0.39540  0.72060  Biso   1.000  H
  H68      1.0000 0.49840  0.31940  0.65840  Biso   1.000  H
  H69      1.0000 0.23900  0.46820  0.82300  Biso   1.000  H
  H70      1.0000 0.09400  0.48600  0.83220  Biso   1.000  H
  H71      1.0000 0.96260  0.30140  0.73180  Biso   1.000  H
  H72      1.0000 0.10070  0.27600  0.73160  Biso   1.000  H
  H73      1.0000 0.58500  0.23480  0.51920  Biso   1.000  H
  H74      1.0000 0.69180  0.21240  0.46890  Biso   1.000  H
  H75      1.0000 0.65970  0.02560  0.51640  Biso   1.000  H
  H76      1.0000 0.54300  0.04680  0.55990  Biso   1.000  H
  H77      1.0000 0.07120  0.22180  0.30410  Biso   1.000  H
  H78      1.0000 0.00510  0.14160  0.35210  Biso   1.000  H
  H79      1.0000 0.80250  0.22940  0.37530  Biso   1.000  H
  H80      1.0000 0.87820  0.31460  0.33090  Biso   1.000  H
  H81      1.0000 0.89890  0.86720  0.50420  Biso   1.000  H
  H82      1.0000 0.85100  0.96580  0.50280  Biso   1.000  H
  H83      1.0000 0.92140  0.95420  0.37390  Biso   1.000  H
  H84      1.0000 0.97530  0.86020  0.38140  Biso   1.000  H
  H85      1.0000 0.95950  0.64220  0.35450  Biso   1.000  H
  H86      1.0000 0.83860  0.53900  0.30670  Biso   1.000  H
  H87      1.0000 0.63270  0.58180  0.38020  Biso   1.000  H
  H88      1.0000 0.76090  0.67760  0.43270  Biso   1.000  H
  H89      1.0000 0.54350  0.19980  0.12180  Biso   1.000  H
  H90      1.0000 0.49780  0.27380  0.18280  Biso   1.000  H
  H91      1.0000 0.78570  0.39540  0.22060  Biso   1.000  H
  H92      1.0000 0.82100  0.31940  0.15840  Biso   1.000  H
  H93      1.0000 0.22920  0.46820  0.32300  Biso   1.000  H
  H94      1.0000 0.39200  0.48600  0.33220  Biso   1.000  H
  H95      1.0000 0.33880  0.30140  0.23180  Biso   1.000  H
  H96      1.0000 0.17530  0.27600  0.23160  Biso   1.000  H
  C73      1.0000 0.59140  0.19020  0.01750  Biso   1.000  C
  C74      1.0000 0.51470  0.17920  0.98870  Biso   1.000  C
  C75      1.0000 0.42830  0.11800  0.98970  Biso   1.000  C
  C76      1.0000 0.42470  0.06880  0.01600  Biso   1.000  C
  C77      1.0000 0.50660  0.08220  0.04200  Biso   1.000  C
  C78      1.0000 0.34010  0.10360  0.95870  Biso   1.000  C
  C79      1.0000 0.27400  0.13040  0.90230  Biso   1.000  C
  C80      1.0000 0.18160  0.03840  0.93650  Biso   1.000  C
  C81      1.0000 0.20800  0.22520  0.81970  Biso   1.000  C
  C82      1.0000 0.19970  0.17720  0.84840  Biso   1.000  C
  C83      1.0000 0.27680  0.17860  0.87120  Biso   1.000  C
  C84      1.0000 0.36880  0.22920  0.86230  Biso   1.000  C
  C85      1.0000 0.37410  0.27800  0.83490  Biso   1.000  C
  C86      1.0000 0.98140  0.88540  0.97730  Biso   1.000  C
  C87      1.0000 0.06880  0.94500  0.97710  Biso   1.000  C
  C88      1.0000 0.08990  0.97460  0.93960  Biso   1.000  C
  C89      1.0000 0.01990  0.93860  0.90160  Biso   1.000  C
  C90      1.0000 0.93370  0.88080  0.90600  Biso   1.000  C
  C91      1.0000 0.73630  0.62940  0.86050  Biso   1.000  C
  C92      1.0000 0.74730  0.56820  0.83170  Biso   1.000  C
  C93      1.0000 0.82550  0.54900  0.83870  Biso   1.000  C
  C94      1.0000 0.89260  0.59180  0.87540  Biso   1.000  C
  C95      1.0000 0.87490  0.65140  0.90580  Biso   1.000  C
  C96      1.0000 0.83690  0.48540  0.80720  Biso   1.000  C
  C97      1.0000 0.77660  0.38700  0.74640  Biso   1.000  C
  C98      1.0000 0.92480  0.41560  0.78210  Biso   1.000  C
  C99      1.0000 0.64700  0.23980  0.64290  Biso   1.000  C
  C100     1.0000 0.71900  0.28360  0.67900  Biso   1.000  C
  C101     1.0000 0.70310  0.34100  0.70810  Biso   1.000  C
  C102     1.0000 0.62090  0.35500  0.70080  Biso   1.000  C
  C103     1.0000 0.55390  0.30840  0.66380  Biso   1.000  C
  C104     1.0000 0.18080  0.43200  0.80540  Biso   1.000  C
  C105     1.0000 0.09530  0.44440  0.80960  Biso   1.000  C
  C106     1.0000 0.01180  0.39760  0.78150  Biso   1.000  C
  C107     1.0000 0.01780  0.33560  0.75210  Biso   1.000  C
  C108     1.0000 0.10130  0.32160  0.75120  Biso   1.000  C
  C109     1.0000 0.59880  0.19020  0.51750  Biso   1.000  C
  C110     1.0000 0.66450  0.17920  0.48870  Biso   1.000  C
  C111     1.0000 0.68970  0.11800  0.48970  Biso   1.000  C
  C112     1.0000 0.64410  0.06880  0.51600  Biso   1.000  C
  C113     1.0000 0.57560  0.08220  0.54200  Biso   1.000  C
  C114     1.0000 0.76350  0.10360  0.45870  Biso   1.000  C
  C115     1.0000 0.85640  0.13040  0.40230  Biso   1.000  C
  C116     1.0000 0.85680  0.03840  0.43650  Biso   1.000  C
  C117     1.0000 0.01720  0.22520  0.31970  Biso   1.000  C
  C118     1.0000 0.97750  0.17720  0.34840  Biso   1.000  C
  C119     1.0000 0.90180  0.17860  0.37120  Biso   1.000  C
  C120     1.0000 0.86040  0.22920  0.36230  Biso   1.000  C
  C121     1.0000 0.90390  0.27800  0.33490  Biso   1.000  C
  C122     1.0000 0.90400  0.88540  0.47730  Biso   1.000  C
  C123     1.0000 0.87620  0.94500  0.47710  Biso   1.000  C
  C124     1.0000 0.88470  0.97460  0.43960  Biso   1.000  C
  C125     1.0000 0.91870  0.93860  0.40160  Biso   1.000  C
  C126     1.0000 0.94710  0.88080  0.40600  Biso   1.000  C
  C127     1.0000 0.89310  0.62940  0.36050  Biso   1.000  C
  C128     1.0000 0.82090  0.56820  0.33170  Biso   1.000  C
  C129     1.0000 0.72350  0.54900  0.33870  Biso   1.000  C
  C130     1.0000 0.69920  0.59180  0.37540  Biso   1.000  C
  C131     1.0000 0.77650  0.65140  0.40580  Biso   1.000  C
  C132     1.0000 0.64850  0.48540  0.30720  Biso   1.000  C
  C133     1.0000 0.61040  0.38700  0.24640  Biso   1.000  C
  C134     1.0000 0.49080  0.41560  0.28210  Biso   1.000  C
  C135     1.0000 0.59280  0.23980  0.14290  Biso   1.000  C
  C136     1.0000 0.56460  0.28360  0.17900  Biso   1.000  C
  C137     1.0000 0.63790  0.34100  0.20810  Biso   1.000  C
  C138     1.0000 0.73410  0.35500  0.20080  Biso   1.000  C
  C139     1.0000 0.75450  0.30840  0.16380  Biso   1.000  C
  C140     1.0000 0.25120  0.43200  0.30540  Biso   1.000  C
  C141     1.0000 0.34910  0.44440  0.30960  Biso   1.000  C
  C142     1.0000 0.38580  0.39760  0.28150  Biso   1.000  C
  C143     1.0000 0.31780  0.33560  0.25210  Biso   1.000  C
  C144     1.0000 0.22030  0.32160  0.25120  Biso   1.000  C
  I13      1.0000 0.85974  0.23004  0.04887  Biso   1.000  I
  I14      1.0000 0.67660  0.06054  0.12771  Biso   1.000  I
  I15      1.0000 0.65342  0.78892  0.90552  Biso   1.000  I
  I16      1.0000 0.78090  0.72908  0.01859  Biso   1.000  I
  I17      1.0000 0.46069  0.46648  0.79751  Biso   1.000  I
  I18      1.0000 0.28452  0.25878  0.69041  Biso   1.000  I
  I19      1.0000 0.37030  0.23004  0.54887  Biso   1.000  I
  I20      1.0000 0.38394  0.06054  0.62771  Biso   1.000  I
  I21      1.0000 0.13550  0.78892  0.40552  Biso   1.000  I
  I22      1.0000 0.94818  0.72908  0.51859  Biso   1.000  I
  I23      1.0000 0.00579  0.46648  0.29751  Biso   1.000  I
  I24      1.0000 0.97426  0.25878  0.19041  Biso   1.000  I
  N25      1.0000 0.58950  0.14180  0.04340  Biso   1.000  N
  N26      1.0000 0.35480  0.14600  0.92840  Biso   1.000  N
  N27      1.0000 0.18610  0.07580  0.90390  Biso   1.000  N
  N28      1.0000 0.25550  0.05220  0.96650  Biso   1.000  N
  N29      1.0000 0.29390  0.27580  0.81330  Biso   1.000  N
  N30      1.0000 0.91270  0.85080  0.94260  Biso   1.000  N
  N31      1.0000 0.80040  0.67180  0.89730  Biso   1.000  N
  N32      1.0000 0.76690  0.44640  0.77300  Biso   1.000  N
  N33      1.0000 0.85390  0.36800  0.74740  Biso   1.000  N
  N34      1.0000 0.92040  0.47240  0.81290  Biso   1.000  N
  N35      1.0000 0.56400  0.25280  0.63720  Biso   1.000  N
  N36      1.0000 0.18280  0.36900  0.77650  Biso   1.000  N
  N37      1.0000 0.55230  0.14180  0.54340  Biso   1.000  N
  N38      1.0000 0.79120  0.14600  0.42840  Biso   1.000  N
  N39      1.0000 0.88970  0.07580  0.40390  Biso   1.000  N
  N40      1.0000 0.79670  0.05220  0.46650  Biso   1.000  N
  N41      1.0000 0.98190  0.27580  0.31330  Biso   1.000  N
  N42      1.0000 0.93810  0.85080  0.44260  Biso   1.000  N
  N43      1.0000 0.87140  0.67180  0.39730  Biso   1.000  N
  N44      1.0000 0.67950  0.44640  0.27300  Biso   1.000  N
  N45      1.0000 0.51410  0.36800  0.24740  Biso   1.000  N
  N46      1.0000 0.55200  0.47240  0.31290  Biso   1.000  N
  N47      1.0000 0.68880  0.25280  0.13720  Biso   1.000  N
  N48      1.0000 0.18620  0.36900  0.27650  Biso   1.000  N
