data_image0
_cell_length_a       14.884
_cell_length_b       18.8218
_cell_length_c       30.646
_cell_angle_alpha    100.249
_cell_angle_beta     90
_cell_angle_gamma    113.29

_symmetry_space_group_name_H-M    P 1
_symmetry_int_tables_number       1

loop_
  _symmetry_equiv_pos_as_xyz
  'x, y, z'

loop_
  _atom_site_label
  _atom_site_occupancy
  _atom_site_fract_x
  _atom_site_fract_y
  _atom_site_fract_z
  _atom_site_thermal_displace_type
  _atom_site_B_iso_or_equiv
  _atom_site_type_symbol
  Zn1      1.0000 0.35554  0.95948  0.23151  Biso   1.000  Zn
  Zn2      1.0000 0.21191  0.14502  0.40958  Biso   1.000  Zn
  Zn3      1.0000 0.66830  0.54240  0.58266  Biso   1.000  Zn
  Zn4      1.0000 0.60394  0.95948  0.73151  Biso   1.000  Zn
  Zn5      1.0000 0.93311  0.14502  0.90958  Biso   1.000  Zn
  Zn6      1.0000 0.87410  0.54240  0.08266  Biso   1.000  Zn
  H1       1.0000 0.55820  0.98900  0.27120  Biso   1.000  H
  H2       1.0000 0.70400  0.10400  0.30810  Biso   1.000  H
  H3       1.0000 0.51870  0.20020  0.35450  Biso   1.000  H
  H4       1.0000 0.38340  0.09120  0.30840  Biso   1.000  H
  H5       1.0000 0.13660  0.26740  0.46990  Biso   1.000  H
  H6       1.0000 0.98420  0.28280  0.47370  Biso   1.000  H
  H7       1.0000 0.86990  0.09140  0.37900  Biso   1.000  H
  H8       1.0000 0.03110  0.08800  0.37660  Biso   1.000  H
  H9       1.0000 0.57330  0.43780  0.49530  Biso   1.000  H
  H10      1.0000 0.58930  0.32780  0.44960  Biso   1.000  H
  H11      1.0000 0.85300  0.38520  0.51630  Biso   1.000  H
  H12      1.0000 0.79920  0.46220  0.57210  Biso   1.000  H
  H13      1.0000 0.05920  0.00400  0.43740  Biso   1.000  H
  H14      1.0000 0.05210  0.90200  0.47760  Biso   1.000  H
  H15      1.0000 0.30860  0.08960  0.54590  Biso   1.000  H
  H16      1.0000 0.29780  0.15320  0.49010  Biso   1.000  H
  H17      1.0000 0.85360  0.64120  0.64700  Biso   1.000  H
  H18      1.0000 0.99810  0.72540  0.64170  Biso   1.000  H
  H19      1.0000 0.95420  0.73780  0.52190  Biso   1.000  H
  H20      1.0000 0.79090  0.63580  0.51800  Biso   1.000  H
  H21      1.0000 0.40440  0.99540  0.61410  Biso   1.000  H
  H22      1.0000 0.25620  0.81040  0.66300  Biso   1.000  H
  H23      1.0000 0.55770  0.01200  0.65690  Biso   1.000  H
  H24      1.0000 0.40190  0.83320  0.70510  Biso   1.000  H
  H25      1.0000 0.43080  0.98900  0.77120  Biso   1.000  H
  H26      1.0000 0.40000  0.10400  0.80810  Biso   1.000  H
  H27      1.0000 0.68150  0.20020  0.85450  Biso   1.000  H
  H28      1.0000 0.70780  0.09120  0.80840  Biso   1.000  H
  H29      1.0000 0.13080  0.26740  0.96990  Biso   1.000  H
  H30      1.0000 0.29860  0.28280  0.97370  Biso   1.000  H
  H31      1.0000 0.22150  0.09140  0.87900  Biso   1.000  H
  H32      1.0000 0.05690  0.08800  0.87660  Biso   1.000  H
  H33      1.0000 0.86450  0.43780  0.99530  Biso   1.000  H
  H34      1.0000 0.73850  0.32780  0.94960  Biso   1.000  H
  H35      1.0000 0.53220  0.38520  0.01630  Biso   1.000  H
  H36      1.0000 0.66300  0.46220  0.07210  Biso   1.000  H
  H37      1.0000 0.94480  0.00400  0.93740  Biso   1.000  H
  H38      1.0000 0.84990  0.90200  0.97760  Biso   1.000  H
  H39      1.0000 0.78100  0.08960  0.04590  Biso   1.000  H
  H40      1.0000 0.85540  0.15320  0.99010  Biso   1.000  H
  H41      1.0000 0.78760  0.64120  0.14700  Biso   1.000  H
  H42      1.0000 0.72730  0.72540  0.14170  Biso   1.000  H
  H43      1.0000 0.78360  0.73780  0.02190  Biso   1.000  H
  H44      1.0000 0.84490  0.63580  0.01800  Biso   1.000  H
  H45      1.0000 0.59100  0.99540  0.11410  Biso   1.000  H
  H46      1.0000 0.55420  0.81040  0.16300  Biso   1.000  H
  H47      1.0000 0.45430  0.01200  0.15690  Biso   1.000  H
  H48      1.0000 0.43130  0.83320  0.20510  Biso   1.000  H
  C1       1.0000 0.55120  0.03440  0.28710  Biso   1.000  C
  C2       1.0000 0.63730  0.09240  0.31360  Biso   1.000  C
  C3       1.0000 0.60020  0.12880  0.35030  Biso   1.000  C
  C4       1.0000 0.52140  0.15160  0.34120  Biso   1.000  C
  C5       1.0000 0.44710  0.09100  0.30930  Biso   1.000  C
  C6       1.0000 0.67780  0.17740  0.38590  Biso   1.000  C
  C7       1.0000 0.82640  0.21400  0.42290  Biso   1.000  C
  C8       1.0000 0.72860  0.27140  0.44480  Biso   1.000  C
  C9       1.0000 0.08240  0.23160  0.44990  Biso   1.000  C
  C10      1.0000 0.98850  0.24120  0.45250  Biso   1.000  C
  C11      1.0000 0.91280  0.19440  0.42660  Biso   1.000  C
  C12      1.0000 0.92380  0.13120  0.39760  Biso   1.000  C
  C13      1.0000 0.02480  0.12940  0.39730  Biso   1.000  C
  C14      1.0000 0.62690  0.42440  0.50070  Biso   1.000  C
  C15      1.0000 0.63960  0.35940  0.47230  Biso   1.000  C
  C16      1.0000 0.72210  0.33900  0.47580  Biso   1.000  C
  C17      1.0000 0.79130  0.38820  0.51260  Biso   1.000  C
  C18      1.0000 0.76430  0.44220  0.54370  Biso   1.000  C
  C19      1.0000 0.11490  0.01160  0.45580  Biso   1.000  C
  C20      1.0000 0.10360  0.95320  0.48240  Biso   1.000  C
  C21      1.0000 0.18000  0.98280  0.51670  Biso   1.000  C
  C22      1.0000 0.25950  0.06540  0.52180  Biso   1.000  C
  C23      1.0000 0.25200  0.10040  0.48810  Biso   1.000  C
  C24      1.0000 0.16160  0.92960  0.55120  Biso   1.000  C
  C25      1.0000 0.07190  0.82780  0.58040  Biso   1.000  C
  C26      1.0000 0.86670  0.66420  0.62120  Biso   1.000  C
  C27      1.0000 0.94920  0.71700  0.61910  Biso   1.000  C
  C28      1.0000 0.98070  0.76920  0.58500  Biso   1.000  C
  C29      1.0000 0.23940  0.89740  0.60440  Biso   1.000  C
  C30      1.0000 0.92710  0.72600  0.54910  Biso   1.000  C
  C31      1.0000 0.83050  0.66160  0.54510  Biso   1.000  C
  C32      1.0000 0.32170  0.90240  0.63440  Biso   1.000  C
  C33      1.0000 0.40180  0.95920  0.63260  Biso   1.000  C
  C34      1.0000 0.31590  0.85360  0.66080  Biso   1.000  C
  C35      1.0000 0.49540  0.97180  0.65950  Biso   1.000  C
  C36      1.0000 0.40410  0.86880  0.68620  Biso   1.000  C
  C37      1.0000 0.48320  0.03440  0.78710  Biso   1.000  C
  C38      1.0000 0.45510  0.09240  0.81360  Biso   1.000  C
  C39      1.0000 0.52860  0.12880  0.85030  Biso   1.000  C
  C40      1.0000 0.63020  0.15160  0.84120  Biso   1.000  C
  C41      1.0000 0.64390  0.09100  0.80930  Biso   1.000  C
  C42      1.0000 0.49960  0.17740  0.88590  Biso   1.000  C
  C43      1.0000 0.38760  0.21400  0.92290  Biso   1.000  C
  C44      1.0000 0.54280  0.27140  0.94480  Biso   1.000  C
  C45      1.0000 0.14920  0.23160  0.94990  Biso   1.000  C
  C46      1.0000 0.25270  0.24120  0.95250  Biso   1.000  C
  C47      1.0000 0.28160  0.19440  0.92660  Biso   1.000  C
  C48      1.0000 0.20740  0.13120  0.89760  Biso   1.000  C
  C49      1.0000 0.10460  0.12940  0.89730  Biso   1.000  C
  C50      1.0000 0.79750  0.42440  0.00070  Biso   1.000  C
  C51      1.0000 0.71980  0.35940  0.97230  Biso   1.000  C
  C52      1.0000 0.61690  0.33900  0.97580  Biso   1.000  C
  C53      1.0000 0.59690  0.38820  0.01260  Biso   1.000  C
  C54      1.0000 0.67790  0.44220  0.04370  Biso   1.000  C
  C55      1.0000 0.89670  0.01160  0.95580  Biso   1.000  C
  C56      1.0000 0.84960  0.95320  0.98240  Biso   1.000  C
  C57      1.0000 0.80280  0.98280  0.01670  Biso   1.000  C
  C58      1.0000 0.80590  0.06540  0.02180  Biso   1.000  C
  C59      1.0000 0.84840  0.10040  0.98810  Biso   1.000  C
  C60      1.0000 0.76800  0.92960  0.05120  Biso   1.000  C
  C61      1.0000 0.75590  0.82780  0.08040  Biso   1.000  C
  C62      1.0000 0.79750  0.66420  0.12120  Biso   1.000  C
  C63      1.0000 0.76780  0.71700  0.11910  Biso   1.000  C
  C64      1.0000 0.78850  0.76920  0.08500  Biso   1.000  C
  C65      1.0000 0.65800  0.89740  0.10440  Biso   1.000  C
  C66      1.0000 0.79890  0.72600  0.04910  Biso   1.000  C
  C67      1.0000 0.83110  0.66160  0.04510  Biso   1.000  C
  C68      1.0000 0.58070  0.90240  0.13440  Biso   1.000  C
  C69      1.0000 0.55740  0.95920  0.13260  Biso   1.000  C
  C70      1.0000 0.53770  0.85360  0.16080  Biso   1.000  C
  C71      1.0000 0.47640  0.97180  0.15950  Biso   1.000  C
  C72      1.0000 0.46470  0.86880  0.18620  Biso   1.000  C
  I1       1.0000 0.27868  0.03432  0.19552  Biso   1.000  I
  I2       1.0000 0.26809  0.84436  0.27141  Biso   1.000  I
  I3       1.0000 0.19377  0.06248  0.33680  Biso   1.000  I
  I4       1.0000 0.36324  0.27646  0.44179  Biso   1.000  I
  I5       1.0000 0.65705  0.49550  0.65334  Biso   1.000  I
  I6       1.0000 0.54711  0.57688  0.54625  Biso   1.000  I
  I7       1.0000 0.75564  0.03432  0.69552  Biso   1.000  I
  I8       1.0000 0.57627  0.84436  0.77141  Biso   1.000  I
  I9       1.0000 0.86871  0.06248  0.83680  Biso   1.000  I
  I10      1.0000 0.91322  0.27646  0.94179  Biso   1.000  I
  I11      1.0000 0.83845  0.49550  0.15334  Biso   1.000  I
  I12      1.0000 0.02977  0.57688  0.04625  Biso   1.000  I
  N1       1.0000 0.46100  0.03580  0.28160  Biso   1.000  N
  N2       1.0000 0.75910  0.16540  0.39080  Biso   1.000  N
  N3       1.0000 0.81710  0.27200  0.45240  Biso   1.000  N
  N4       1.0000 0.66090  0.23520  0.41040  Biso   1.000  N
  N5       1.0000 0.09490  0.17220  0.41910  Biso   1.000  N
  N6       1.0000 0.69510  0.46500  0.53530  Biso   1.000  N
  N7       1.0000 0.19300  0.07260  0.45470  Biso   1.000  N
  N8       1.0000 0.07280  0.87360  0.55190  Biso   1.000  N
  N9       1.0000 0.15030  0.84220  0.60720  Biso   1.000  N
  N10      1.0000 0.24340  0.94400  0.57550  Biso   1.000  N
  N11      1.0000 0.80160  0.64100  0.59070  Biso   1.000  N
  N12      1.0000 0.48260  0.92440  0.68530  Biso   1.000  N
  N13      1.0000 0.57480  0.03580  0.78160  Biso   1.000  N
  N14      1.0000 0.40630  0.16540  0.89080  Biso   1.000  N
  N15      1.0000 0.45490  0.27200  0.95240  Biso   1.000  N
  N16      1.0000 0.57430  0.23520  0.91040  Biso   1.000  N
  N17      1.0000 0.07730  0.17220  0.91910  Biso   1.000  N
  N18      1.0000 0.76990  0.46500  0.03530  Biso   1.000  N
  N19      1.0000 0.87960  0.07260  0.95470  Biso   1.000  N
  N20      1.0000 0.80080  0.87360  0.05190  Biso   1.000  N
  N21      1.0000 0.69190  0.84220  0.10720  Biso   1.000  N
  N22      1.0000 0.70060  0.94400  0.07550  Biso   1.000  N
  N23      1.0000 0.83940  0.64100  0.09070  Biso   1.000  N
  N24      1.0000 0.44180  0.92440  0.18530  Biso   1.000  N
  Zn7      1.0000 0.92342  0.05104  0.19419  Biso   1.000  Zn
  Zn8      1.0000 0.19140  0.63684  0.54300  Biso   1.000  Zn
  Zn9      1.0000 0.86296  0.44652  0.36451  Biso   1.000  Zn
  Zn10     1.0000 0.12762  0.05104  0.69419  Biso   1.000  Zn
  Zn11     1.0000 0.44544  0.63684  0.04300  Biso   1.000  Zn
  Zn12     1.0000 0.58356  0.44652  0.86451  Biso   1.000  Zn
  H49      1.0000 0.94910  0.17780  0.28310  Biso   1.000  H
  H50      1.0000 0.06900  0.25900  0.33240  Biso   1.000  H
  H51      1.0000 0.27200  0.22960  0.25320  Biso   1.000  H
  H52      1.0000 0.15220  0.11680  0.21350  Biso   1.000  H
  H53      1.0000 0.36260  0.60920  0.51540  Biso   1.000  H
  H54      1.0000 0.40720  0.53520  0.45430  Biso   1.000  H
  H55      1.0000 0.12850  0.43000  0.40990  Biso   1.000  H
  H56      1.0000 0.08500  0.48200  0.47660  Biso   1.000  H
  H57      1.0000 0.68810  0.33920  0.31480  Biso   1.000  H
  H58      1.0000 0.51240  0.29900  0.31510  Biso   1.000  H
  H59      1.0000 0.55390  0.48800  0.40180  Biso   1.000  H
  H60      1.0000 0.72290  0.53660  0.40000  Biso   1.000  H
  H61      1.0000 0.89620  0.58820  0.34490  Biso   1.000  H
  H62      1.0000 0.93920  0.67200  0.29700  Biso   1.000  H
  H63      1.0000 0.05660  0.53840  0.22470  Biso   1.000  H
  H64      1.0000 0.96600  0.43480  0.27130  Biso   1.000  H
  H65      1.0000 0.01870  0.96460  0.13840  Biso   1.000  H
  H66      1.0000 0.05380  0.84860  0.12910  Biso   1.000  H
  H67      1.0000 0.91540  0.81980  0.24210  Biso   1.000  H
  H68      1.0000 0.88020  0.91880  0.23670  Biso   1.000  H
  H69      1.0000 0.33790  0.58020  0.12670  Biso   1.000  H
  H70      1.0000 0.22260  0.59200  0.16900  Biso   1.000  H
  H71      1.0000 0.23120  0.77660  0.11090  Biso   1.000  H
  H72      1.0000 0.34940  0.75320  0.06390  Biso   1.000  H
  H73      1.0000 0.22870  0.17780  0.78310  Biso   1.000  H
  H74      1.0000 0.19000  0.25900  0.83240  Biso   1.000  H
  H75      1.0000 0.95760  0.22960  0.75320  Biso   1.000  H
  H76      1.0000 0.96460  0.11680  0.71350  Biso   1.000  H
  H77      1.0000 0.24660  0.60920  0.01540  Biso   1.000  H
  H78      1.0000 0.12800  0.53520  0.95430  Biso   1.000  H
  H79      1.0000 0.30150  0.43000  0.90990  Biso   1.000  H
  H80      1.0000 0.39700  0.48200  0.97660  Biso   1.000  H
  H81      1.0000 0.65110  0.33920  0.81480  Biso   1.000  H
  H82      1.0000 0.78660  0.29900  0.81510  Biso   1.000  H
  H83      1.0000 0.93410  0.48800  0.90180  Biso   1.000  H
  H84      1.0000 0.81370  0.53660  0.90000  Biso   1.000  H
  H85      1.0000 0.69200  0.58820  0.84490  Biso   1.000  H
  H86      1.0000 0.73280  0.67200  0.79700  Biso   1.000  H
  H87      1.0000 0.48180  0.53840  0.72470  Biso   1.000  H
  H88      1.0000 0.46880  0.43480  0.77130  Biso   1.000  H
  H89      1.0000 0.94590  0.96460  0.63840  Biso   1.000  H
  H90      1.0000 0.79480  0.84860  0.62910  Biso   1.000  H
  H91      1.0000 0.90440  0.81980  0.74210  Biso   1.000  H
  H92      1.0000 0.03860  0.91880  0.73670  Biso   1.000  H
  H93      1.0000 0.24230  0.58020  0.62670  Biso   1.000  H
  H94      1.0000 0.36940  0.59200  0.66900  Biso   1.000  H
  H95      1.0000 0.54540  0.77660  0.61090  Biso   1.000  H
  H96      1.0000 0.40380  0.75320  0.56390  Biso   1.000  H
  C73      1.0000 0.01390  0.18240  0.27780  Biso   1.000  C
  C74      1.0000 0.08410  0.23320  0.30560  Biso   1.000  C
  C75      1.0000 0.17850  0.25020  0.29760  Biso   1.000  C
  C76      1.0000 0.20560  0.21240  0.26040  Biso   1.000  C
  C77      1.0000 0.13530  0.15120  0.23530  Biso   1.000  C
  C78      1.0000 0.25680  0.31300  0.33000  Biso   1.000  C
  C79      1.0000 0.29780  0.41460  0.38990  Biso   1.000  C
  C80      1.0000 0.41430  0.38860  0.35690  Biso   1.000  C
  C81      1.0000 0.31310  0.56880  0.49490  Biso   1.000  C
  C82      1.0000 0.33980  0.52280  0.45820  Biso   1.000  C
  C83      1.0000 0.26690  0.45880  0.42740  Biso   1.000  C
  C84      1.0000 0.17820  0.45880  0.43340  Biso   1.000  C
  C85      1.0000 0.15210  0.49660  0.47090  Biso   1.000  C
  C86      1.0000 0.66080  0.36980  0.33390  Biso   1.000  C
  C87      1.0000 0.55580  0.34820  0.33200  Biso   1.000  C
  C88      1.0000 0.51870  0.40080  0.35550  Biso   1.000  C
  C89      1.0000 0.58020  0.45860  0.38130  Biso   1.000  C
  C90      1.0000 0.68100  0.48560  0.38430  Biso   1.000  C
  C91      1.0000 0.92230  0.57240  0.31840  Biso   1.000  C
  C92      1.0000 0.95170  0.62560  0.29140  Biso   1.000  C
  C93      1.0000 0.00080  0.60920  0.25510  Biso   1.000  C
  C94      1.0000 0.01680  0.54740  0.24740  Biso   1.000  C
  C95      1.0000 0.96690  0.48640  0.27780  Biso   1.000  C
  C96      1.0000 0.03540  0.66140  0.22150  Biso   1.000  C
  C97      1.0000 0.03930  0.76440  0.18750  Biso   1.000  C
  C98      1.0000 0.13410  0.70080  0.16830  Biso   1.000  C
  C99      1.0000 0.00460  0.93480  0.16150  Biso   1.000  C
  C100     1.0000 0.02880  0.86700  0.15520  Biso   1.000  C
  C101     1.0000 0.01210  0.83460  0.18970  Biso   1.000  C
  C102     1.0000 0.94450  0.85200  0.22100  Biso   1.000  C
  C103     1.0000 0.92790  0.91020  0.21850  Biso   1.000  C
  C104     1.0000 0.31180  0.61740  0.12250  Biso   1.000  C
  C105     1.0000 0.24750  0.62440  0.14760  Biso   1.000  C
  C106     1.0000 0.21280  0.68680  0.14180  Biso   1.000  C
  C107     1.0000 0.25040  0.73480  0.11280  Biso   1.000  C
  C108     1.0000 0.32090  0.72060  0.08500  Biso   1.000  C
  C109     1.0000 0.16850  0.18240  0.77780  Biso   1.000  C
  C110     1.0000 0.14910  0.23320  0.80560  Biso   1.000  C
  C111     1.0000 0.07170  0.25020  0.79760  Biso   1.000  C
  C112     1.0000 0.00680  0.21240  0.76040  Biso   1.000  C
  C113     1.0000 0.01590  0.15120  0.73530  Biso   1.000  C
  C114     1.0000 0.05620  0.31300  0.83000  Biso   1.000  C
  C115     1.0000 0.11680  0.41460  0.88990  Biso   1.000  C
  C116     1.0000 0.97430  0.38860  0.85690  Biso   1.000  C
  C117     1.0000 0.25570  0.56880  0.99490  Biso   1.000  C
  C118     1.0000 0.18300  0.52280  0.95820  Biso   1.000  C
  C119     1.0000 0.19190  0.45880  0.92740  Biso   1.000  C
  C120     1.0000 0.28060  0.45880  0.93340  Biso   1.000  C
  C121     1.0000 0.34450  0.49660  0.97090  Biso   1.000  C
  C122     1.0000 0.70900  0.36980  0.83390  Biso   1.000  C
  C123     1.0000 0.79240  0.34820  0.83200  Biso   1.000  C
  C124     1.0000 0.88210  0.40080  0.85550  Biso   1.000  C
  C125     1.0000 0.87840  0.45860  0.88130  Biso   1.000  C
  C126     1.0000 0.80460  0.48560  0.88430  Biso   1.000  C
  C127     1.0000 0.65010  0.57240  0.81840  Biso   1.000  C
  C128     1.0000 0.67390  0.62560  0.79140  Biso   1.000  C
  C129     1.0000 0.60840  0.60920  0.75510  Biso   1.000  C
  C130     1.0000 0.53060  0.54740  0.74740  Biso   1.000  C
  C131     1.0000 0.51950  0.48640  0.77780  Biso   1.000  C
  C132     1.0000 0.62600  0.66140  0.72150  Biso   1.000  C
  C133     1.0000 0.72510  0.76440  0.68750  Biso   1.000  C
  C134     1.0000 0.56670  0.70080  0.66830  Biso   1.000  C
  C135     1.0000 0.93020  0.93480  0.66150  Biso   1.000  C
  C136     1.0000 0.83820  0.86700  0.65520  Biso   1.000  C
  C137     1.0000 0.82250  0.83460  0.68970  Biso   1.000  C
  C138     1.0000 0.90750  0.85200  0.72100  Biso   1.000  C
  C139     1.0000 0.98230  0.91020  0.71850  Biso   1.000  C
  C140     1.0000 0.30560  0.61740  0.62250  Biso   1.000  C
  C141     1.0000 0.37690  0.62440  0.64760  Biso   1.000  C
  C142     1.0000 0.47400  0.68680  0.64180  Biso   1.000  C
  C143     1.0000 0.48440  0.73480  0.61280  Biso   1.000  C
  C144     1.0000 0.39970  0.72060  0.58500  Biso   1.000  C
  I13      1.0000 0.76675  0.01826  0.23022  Biso   1.000  I
  I14      1.0000 0.95972  0.09944  0.12251  Biso   1.000  I
  I15      1.0000 0.04153  0.56142  0.58112  Biso   1.000  I
  I16      1.0000 0.22052  0.74964  0.50486  Biso   1.000  I
  I17      1.0000 0.89689  0.33032  0.34520  Biso   1.000  I
  I18      1.0000 0.92820  0.54264  0.44392  Biso   1.000  I
  I19      1.0000 0.25151  0.01826  0.73022  Biso   1.000  I
  I20      1.0000 0.13972  0.09944  0.62251  Biso   1.000  I
  I21      1.0000 0.51989  0.56142  0.08112  Biso   1.000  I
  I22      1.0000 0.52912  0.74964  0.00486  Biso   1.000  I
  I23      1.0000 0.43343  0.33032  0.84520  Biso   1.000  I
  I24      1.0000 0.61444  0.54264  0.94392  Biso   1.000  I
  N25      1.0000 0.02580  0.13440  0.24060  Biso   1.000  N
  N26      1.0000 0.22600  0.35320  0.36290  Biso   1.000  N
  N27      1.0000 0.39600  0.44200  0.38710  Biso   1.000  N
  N28      1.0000 0.35340  0.33160  0.32430  Biso   1.000  N
  N29      1.0000 0.22360  0.55480  0.49950  Biso   1.000  N
  N30      1.0000 0.71610  0.43140  0.36210  Biso   1.000  N
  N31      1.0000 0.92420  0.50980  0.31420  Biso   1.000  N
  N32      1.0000 0.01410  0.72680  0.22080  Biso   1.000  N
  N33      1.0000 0.10480  0.75760  0.16030  Biso   1.000  N
  N34      1.0000 0.10590  0.65220  0.19650  Biso   1.000  N
  N35      1.0000 0.96680  0.95860  0.19450  Biso   1.000  N
  N36      1.0000 0.34710  0.66000  0.08890  Biso   1.000  N
  N37      1.0000 0.10860  0.13440  0.74060  Biso   1.000  N
  N38      1.0000 0.12720  0.35320  0.86290  Biso   1.000  N
  N39      1.0000 0.04600  0.44200  0.88710  Biso   1.000  N
  N40      1.0000 0.97820  0.33160  0.82430  Biso   1.000  N
  N41      1.0000 0.33120  0.55480  0.99950  Biso   1.000  N
  N42      1.0000 0.71530  0.43140  0.86210  Biso   1.000  N
  N43      1.0000 0.58560  0.50980  0.81420  Biso   1.000  N
  N44      1.0000 0.71270  0.72680  0.72080  Biso   1.000  N
  N45      1.0000 0.65280  0.75760  0.66030  Biso   1.000  N
  N46      1.0000 0.54630  0.65220  0.69650  Biso   1.000  N
  N47      1.0000 0.99180  0.95860  0.69450  Biso   1.000  N
  N48      1.0000 0.31290  0.66000  0.58890  Biso   1.000  N
