data_image0
_cell_length_a       14.774
_cell_length_b       19.3422
_cell_length_c       30.594
_cell_angle_alpha    100.753
_cell_angle_beta     90
_cell_angle_gamma    112.452

_symmetry_space_group_name_H-M    P 1
_symmetry_int_tables_number       1

loop_
  _symmetry_equiv_pos_as_xyz
  'x, y, z'

loop_
  _atom_site_label
  _atom_site_occupancy
  _atom_site_fract_x
  _atom_site_fract_y
  _atom_site_fract_z
  _atom_site_thermal_displace_type
  _atom_site_B_iso_or_equiv
  _atom_site_type_symbol
  Zn1      1.0000 0.19061  0.66726  0.72454  Biso   1.000  Zn
  Zn2      1.0000 0.73055  0.25090  0.56968  Biso   1.000  Zn
  Zn3      1.0000 0.79441  0.85114  0.40001  Biso   1.000  Zn
  Zn4      1.0000 0.47665  0.66726  0.22454  Biso   1.000  Zn
  Zn5      1.0000 0.52035  0.25090  0.06968  Biso   1.000  Zn
  Zn6      1.0000 0.05673  0.85114  0.90001  Biso   1.000  Zn
  H1       1.0000 0.34560  0.78220  0.68580  Biso   1.000  H
  H2       1.0000 0.36730  0.85720  0.63400  Biso   1.000  H
  H3       1.0000 0.07970  0.75160  0.59530  Biso   1.000  H
  H4       1.0000 0.06580  0.67480  0.64730  Biso   1.000  H
  H5       1.0000 0.56260  0.15140  0.49470  Biso   1.000  H
  H6       1.0000 0.41210  0.04720  0.48730  Biso   1.000  H
  H7       1.0000 0.45400  0.04940  0.61950  Biso   1.000  H
  H8       1.0000 0.59470  0.15820  0.62270  Biso   1.000  H
  H9       1.0000 0.86060  0.77840  0.46330  Biso   1.000  H
  H10      1.0000 0.99800  0.78500  0.50340  Biso   1.000  H
  H11      1.0000 0.14600  0.99180  0.47270  Biso   1.000  H
  H12      1.0000 0.99990  0.97600  0.43320  Biso   1.000  H
  H13      1.0000 0.95970  0.83960  0.35160  Biso   1.000  H
  H14      1.0000 0.00530  0.75800  0.29930  Biso   1.000  H
  H15      1.0000 0.72320  0.60440  0.28710  Biso   1.000  H
  H16      1.0000 0.68700  0.69020  0.34100  Biso   1.000  H
  H17      1.0000 0.28580  0.54160  0.17710  Biso   1.000  H
  H18      1.0000 0.12070  0.51680  0.17210  Biso   1.000  H
  H19      1.0000 0.16990  0.70640  0.26450  Biso   1.000  H
  H20      1.0000 0.33610  0.73160  0.26520  Biso   1.000  H
  H21      1.0000 0.54350  0.36180  0.15760  Biso   1.000  H
  H22      1.0000 0.66710  0.46560  0.20160  Biso   1.000  H
  H23      1.0000 0.86740  0.41080  0.13010  Biso   1.000  H
  H24      1.0000 0.73940  0.31300  0.08380  Biso   1.000  H
  H25      1.0000 0.43660  0.78220  0.18580  Biso   1.000  H
  H26      1.0000 0.48990  0.85720  0.13400  Biso   1.000  H
  H27      1.0000 0.67190  0.75160  0.09530  Biso   1.000  H
  H28      1.0000 0.60900  0.67480  0.14730  Biso   1.000  H
  H29      1.0000 0.58880  0.15140  0.99470  Biso   1.000  H
  H30      1.0000 0.63510  0.04720  0.98730  Biso   1.000  H
  H31      1.0000 0.59540  0.04940  0.11950  Biso   1.000  H
  H32      1.0000 0.56350  0.15820  0.12270  Biso   1.000  H
  H33      1.0000 0.91780  0.77840  0.96330  Biso   1.000  H
  H34      1.0000 0.78700  0.78500  0.00340  Biso   1.000  H
  H35      1.0000 0.84580  0.99180  0.97270  Biso   1.000  H
  H36      1.0000 0.97610  0.97600  0.93320  Biso   1.000  H
  H37      1.0000 0.87990  0.83960  0.85160  Biso   1.000  H
  H38      1.0000 0.75270  0.75800  0.79930  Biso   1.000  H
  H39      1.0000 0.88120  0.60440  0.78710  Biso   1.000  H
  H40      1.0000 0.00320  0.69020  0.84100  Biso   1.000  H
  H41      1.0000 0.25580  0.54160  0.67710  Biso   1.000  H
  H42      1.0000 0.39610  0.51680  0.67210  Biso   1.000  H
  H43      1.0000 0.53650  0.70640  0.76450  Biso   1.000  H
  H44      1.0000 0.39550  0.73160  0.76520  Biso   1.000  H
  H45      1.0000 0.81830  0.36180  0.65760  Biso   1.000  H
  H46      1.0000 0.79850  0.46560  0.70160  Biso   1.000  H
  H47      1.0000 0.54340  0.41080  0.63010  Biso   1.000  H
  H48      1.0000 0.57360  0.31300  0.58380  Biso   1.000  H
  C1       1.0000 0.28980  0.77680  0.66790  Biso   1.000  C
  C2       1.0000 0.30330  0.82160  0.63710  Biso   1.000  C
  C3       1.0000 0.22490  0.81560  0.61050  Biso   1.000  C
  C4       1.0000 0.13540  0.75960  0.61420  Biso   1.000  C
  C5       1.0000 0.12700  0.71500  0.64550  Biso   1.000  C
  C6       1.0000 0.23530  0.86980  0.57940  Biso   1.000  C
  C7       1.0000 0.32800  0.96860  0.54970  Biso   1.000  C
  C8       1.0000 0.17040  0.90300  0.52330  Biso   1.000  C
  C9       1.0000 0.53910  0.13000  0.52000  Biso   1.000  C
  C10      1.0000 0.45110  0.06800  0.51490  Biso   1.000  C
  C11      1.0000 0.42280  0.03740  0.55320  Biso   1.000  C
  C12      1.0000 0.47490  0.06980  0.59360  Biso   1.000  C
  C13      1.0000 0.55850  0.13280  0.59470  Biso   1.000  C
  C14      1.0000 0.91980  0.82200  0.46460  Biso   1.000  C
  C15      1.0000 0.00030  0.82600  0.49000  Biso   1.000  C
  C16      1.0000 0.08380  0.89200  0.49490  Biso   1.000  C
  C17      1.0000 0.08750  0.94760  0.47200  Biso   1.000  C
  C18      1.0000 0.00000  0.93600  0.44710  Biso   1.000  C
  C19      1.0000 0.91210  0.79060  0.33870  Biso   1.000  C
  C20      1.0000 0.93950  0.74220  0.30750  Biso   1.000  C
  C21      1.0000 0.87160  0.67200  0.28880  Biso   1.000  C
  C22      1.0000 0.77320  0.65200  0.30070  Biso   1.000  C
  C23      1.0000 0.75220  0.70320  0.33240  Biso   1.000  C
  C24      1.0000 0.89960  0.61760  0.25590  Biso   1.000  C
  C25      1.0000 0.01560  0.58980  0.21980  Biso   1.000  C
  C26      1.0000 0.85970  0.51440  0.20050  Biso   1.000  C
  C27      1.0000 0.26220  0.57640  0.19450  Biso   1.000  C
  C28      1.0000 0.16380  0.56100  0.19210  Biso   1.000  C
  C29      1.0000 0.12550  0.60800  0.21800  Biso   1.000  C
  C30      1.0000 0.19230  0.67220  0.24570  Biso   1.000  C
  C31      1.0000 0.29110  0.68680  0.24620  Biso   1.000  C
  C32      1.0000 0.61000  0.37400  0.15100  Biso   1.000  C
  C33      1.0000 0.68300  0.43380  0.17790  Biso   1.000  C
  C34      1.0000 0.77960  0.44760  0.17050  Biso   1.000  C
  C35      1.0000 0.80110  0.40240  0.13550  Biso   1.000  C
  C36      1.0000 0.72530  0.34480  0.10810  Biso   1.000  C
  C37      1.0000 0.48700  0.77680  0.16790  Biso   1.000  C
  C38      1.0000 0.51830  0.82160  0.13710  Biso   1.000  C
  C39      1.0000 0.59070  0.81560  0.11050  Biso   1.000  C
  C40      1.0000 0.62420  0.75960  0.11420  Biso   1.000  C
  C41      1.0000 0.58800  0.71500  0.14550  Biso   1.000  C
  C42      1.0000 0.63450  0.86980  0.07940  Biso   1.000  C
  C43      1.0000 0.64060  0.96860  0.04970  Biso   1.000  C
  C44      1.0000 0.73260  0.90300  0.02330  Biso   1.000  C
  C45      1.0000 0.59090  0.13000  0.02000  Biso   1.000  C
  C46      1.0000 0.61690  0.06800  0.01490  Biso   1.000  C
  C47      1.0000 0.61460  0.03740  0.05320  Biso   1.000  C
  C48      1.0000 0.59490  0.06980  0.09360  Biso   1.000  C
  C49      1.0000 0.57430  0.13280  0.09470  Biso   1.000  C
  C50      1.0000 0.90220  0.82200  0.96460  Biso   1.000  C
  C51      1.0000 0.82570  0.82600  0.99000  Biso   1.000  C
  C52      1.0000 0.80820  0.89200  0.99490  Biso   1.000  C
  C53      1.0000 0.86010  0.94760  0.97200  Biso   1.000  C
  C54      1.0000 0.93600  0.93600  0.94710  Biso   1.000  C
  C55      1.0000 0.87850  0.79060  0.83870  Biso   1.000  C
  C56      1.0000 0.80270  0.74220  0.80750  Biso   1.000  C
  C57      1.0000 0.80040  0.67200  0.78880  Biso   1.000  C
  C58      1.0000 0.87880  0.65200  0.80070  Biso   1.000  C
  C59      1.0000 0.95100  0.70320  0.83240  Biso   1.000  C
  C60      1.0000 0.71800  0.61760  0.75590  Biso   1.000  C
  C61      1.0000 0.57420  0.58980  0.71980  Biso   1.000  C
  C62      1.0000 0.65470  0.51440  0.70050  Biso   1.000  C
  C63      1.0000 0.31420  0.57640  0.69450  Biso   1.000  C
  C64      1.0000 0.39720  0.56100  0.69210  Biso   1.000  C
  C65      1.0000 0.48250  0.60800  0.71800  Biso   1.000  C
  C66      1.0000 0.47990  0.67220  0.74570  Biso   1.000  C
  C67      1.0000 0.39570  0.68680  0.74620  Biso   1.000  C
  C68      1.0000 0.76400  0.37400  0.65100  Biso   1.000  C
  C69      1.0000 0.75080  0.43380  0.67790  Biso   1.000  C
  C70      1.0000 0.66800  0.44760  0.67050  Biso   1.000  C
  C71      1.0000 0.60130  0.40240  0.63550  Biso   1.000  C
  C72      1.0000 0.61950  0.34480  0.60810  Biso   1.000  C
  I1       1.0000 0.03379  0.54690  0.70600  Biso   1.000  I
  I2       1.0000 0.21800  0.76438  0.79765  Biso   1.000  I
  I3       1.0000 0.83698  0.20568  0.61381  Biso   1.000  I
  I4       1.0000 0.77733  0.30518  0.50092  Biso   1.000  I
  I5       1.0000 0.64988  0.78336  0.44206  Biso   1.000  I
  I6       1.0000 0.82825  0.96732  0.36614  Biso   1.000  I
  I7       1.0000 0.51311  0.54690  0.20600  Biso   1.000  I
  I8       1.0000 0.54638  0.76438  0.29765  Biso   1.000  I
  I9       1.0000 0.36870  0.20568  0.11381  Biso   1.000  I
  I10      1.0000 0.52785  0.30518  0.00092  Biso   1.000  I
  I11      1.0000 0.13348  0.78336  0.94206  Biso   1.000  I
  I12      1.0000 0.13907  0.96732  0.86614  Biso   1.000  I
  N1       1.0000 0.20590  0.72780  0.67410  Biso   1.000  N
  N2       1.0000 0.32360  0.92460  0.57930  Biso   1.000  N
  N3       1.0000 0.25520  0.95960  0.52060  Biso   1.000  N
  N4       1.0000 0.15680  0.85560  0.55200  Biso   1.000  N
  N5       1.0000 0.59300  0.16160  0.55890  Biso   1.000  N
  N6       1.0000 0.91860  0.87380  0.44200  Biso   1.000  N
  N7       1.0000 0.82080  0.77040  0.35110  Biso   1.000  N
  N8       1.0000 0.99550  0.63900  0.25110  Biso   1.000  N
  N9       1.0000 0.95320  0.52800  0.19240  Biso   1.000  N
  N10      1.0000 0.82680  0.55460  0.23320  Biso   1.000  N
  N11      1.0000 0.32550  0.63980  0.22070  Biso   1.000  N
  N12      1.0000 0.63130  0.33280  0.11570  Biso   1.000  N
  N13      1.0000 0.52190  0.72780  0.17410  Biso   1.000  N
  N14      1.0000 0.60100  0.92460  0.07930  Biso   1.000  N
  N15      1.0000 0.70440  0.95960  0.02060  Biso   1.000  N
  N16      1.0000 0.69880  0.85560  0.05200  Biso   1.000  N
  N17      1.0000 0.56860  0.16160  0.05890  Biso   1.000  N
  N18      1.0000 0.95520  0.87380  0.94200  Biso   1.000  N
  N19      1.0000 0.94960  0.77040  0.85110  Biso   1.000  N
  N20      1.0000 0.64350  0.63900  0.75110  Biso   1.000  N
  N21      1.0000 0.57480  0.52800  0.69240  Biso   1.000  N
  N22      1.0000 0.72780  0.55460  0.73320  Biso   1.000  N
  N23      1.0000 0.31430  0.63980  0.72070  Biso   1.000  N
  N24      1.0000 0.70150  0.33280  0.61570  Biso   1.000  N
  Zn7      1.0000 0.52335  0.33274  0.77546  Biso   1.000  Zn
  Zn8      1.0000 0.47965  0.74910  0.93032  Biso   1.000  Zn
  Zn9      1.0000 0.94327  0.14886  0.09999  Biso   1.000  Zn
  Zn10     1.0000 0.80939  0.33274  0.27546  Biso   1.000  Zn
  Zn11     1.0000 0.26945  0.74910  0.43032  Biso   1.000  Zn
  Zn12     1.0000 0.20559  0.14886  0.59999  Biso   1.000  Zn
  H49      1.0000 0.56340  0.21780  0.81420  Biso   1.000  H
  H50      1.0000 0.51010  0.14280  0.86600  Biso   1.000  H
  H51      1.0000 0.32810  0.24840  0.90470  Biso   1.000  H
  H52      1.0000 0.39100  0.32520  0.85270  Biso   1.000  H
  H53      1.0000 0.41120  0.84860  0.00530  Biso   1.000  H
  H54      1.0000 0.36490  0.95280  0.01270  Biso   1.000  H
  H55      1.0000 0.40460  0.95060  0.88050  Biso   1.000  H
  H56      1.0000 0.43650  0.84180  0.87730  Biso   1.000  H
  H57      1.0000 0.08220  0.22160  0.03670  Biso   1.000  H
  H58      1.0000 0.21300  0.21500  0.99660  Biso   1.000  H
  H59      1.0000 0.15420  0.00820  0.02730  Biso   1.000  H
  H60      1.0000 0.02390  0.02400  0.06680  Biso   1.000  H
  H61      1.0000 0.12010  0.16040  0.14840  Biso   1.000  H
  H62      1.0000 0.24730  0.24200  0.20070  Biso   1.000  H
  H63      1.0000 0.11880  0.39560  0.21290  Biso   1.000  H
  H64      1.0000 0.99680  0.30980  0.15900  Biso   1.000  H
  H65      1.0000 0.74420  0.45840  0.32290  Biso   1.000  H
  H66      1.0000 0.60390  0.48320  0.32790  Biso   1.000  H
  H67      1.0000 0.46350  0.29360  0.23550  Biso   1.000  H
  H68      1.0000 0.60450  0.26840  0.23480  Biso   1.000  H
  H69      1.0000 0.18170  0.63820  0.34240  Biso   1.000  H
  H70      1.0000 0.20150  0.53440  0.29840  Biso   1.000  H
  H71      1.0000 0.45660  0.58920  0.36990  Biso   1.000  H
  H72      1.0000 0.42640  0.68700  0.41620  Biso   1.000  H
  H73      1.0000 0.65440  0.21780  0.31420  Biso   1.000  H
  H74      1.0000 0.63270  0.14280  0.36600  Biso   1.000  H
  H75      1.0000 0.92030  0.24840  0.40470  Biso   1.000  H
  H76      1.0000 0.93420  0.32520  0.35270  Biso   1.000  H
  H77      1.0000 0.43740  0.84860  0.50530  Biso   1.000  H
  H78      1.0000 0.58790  0.95280  0.51270  Biso   1.000  H
  H79      1.0000 0.54600  0.95060  0.38050  Biso   1.000  H
  H80      1.0000 0.40530  0.84180  0.37730  Biso   1.000  H
  H81      1.0000 0.13940  0.22160  0.53670  Biso   1.000  H
  H82      1.0000 0.00200  0.21500  0.49660  Biso   1.000  H
  H83      1.0000 0.85400  0.00820  0.52730  Biso   1.000  H
  H84      1.0000 0.00010  0.02400  0.56680  Biso   1.000  H
  H85      1.0000 0.04030  0.16040  0.64840  Biso   1.000  H
  H86      1.0000 0.99470  0.24200  0.70070  Biso   1.000  H
  H87      1.0000 0.27680  0.39560  0.71290  Biso   1.000  H
  H88      1.0000 0.31300  0.30980  0.65900  Biso   1.000  H
  H89      1.0000 0.71420  0.45840  0.82290  Biso   1.000  H
  H90      1.0000 0.87930  0.48320  0.82790  Biso   1.000  H
  H91      1.0000 0.83010  0.29360  0.73550  Biso   1.000  H
  H92      1.0000 0.66390  0.26840  0.73480  Biso   1.000  H
  H93      1.0000 0.45650  0.63820  0.84240  Biso   1.000  H
  H94      1.0000 0.33290  0.53440  0.79840  Biso   1.000  H
  H95      1.0000 0.13260  0.58920  0.86990  Biso   1.000  H
  H96      1.0000 0.26060  0.68700  0.91620  Biso   1.000  H
  C73      1.0000 0.51300  0.22320  0.83210  Biso   1.000  C
  C74      1.0000 0.48170  0.17840  0.86290  Biso   1.000  C
  C75      1.0000 0.40930  0.18440  0.88950  Biso   1.000  C
  C76      1.0000 0.37580  0.24040  0.88580  Biso   1.000  C
  C77      1.0000 0.41200  0.28500  0.85450  Biso   1.000  C
  C78      1.0000 0.36550  0.13020  0.92060  Biso   1.000  C
  C79      1.0000 0.35940  0.03140  0.95030  Biso   1.000  C
  C80      1.0000 0.26740  0.09700  0.97670  Biso   1.000  C
  C81      1.0000 0.40910  0.87000  0.98000  Biso   1.000  C
  C82      1.0000 0.38310  0.93200  0.98510  Biso   1.000  C
  C83      1.0000 0.38540  0.96260  0.94680  Biso   1.000  C
  C84      1.0000 0.40510  0.93020  0.90640  Biso   1.000  C
  C85      1.0000 0.42570  0.86720  0.90530  Biso   1.000  C
  C86      1.0000 0.09780  0.17800  0.03540  Biso   1.000  C
  C87      1.0000 0.17430  0.17400  0.01000  Biso   1.000  C
  C88      1.0000 0.19180  0.10800  0.00510  Biso   1.000  C
  C89      1.0000 0.13990  0.05240  0.02800  Biso   1.000  C
  C90      1.0000 0.06400  0.06400  0.05290  Biso   1.000  C
  C91      1.0000 0.12150  0.20940  0.16130  Biso   1.000  C
  C92      1.0000 0.19730  0.25780  0.19250  Biso   1.000  C
  C93      1.0000 0.19960  0.32800  0.21120  Biso   1.000  C
  C94      1.0000 0.12120  0.34800  0.19930  Biso   1.000  C
  C95      1.0000 0.04900  0.29680  0.16760  Biso   1.000  C
  C96      1.0000 0.28200  0.38240  0.24410  Biso   1.000  C
  C97      1.0000 0.42580  0.41020  0.28020  Biso   1.000  C
  C98      1.0000 0.34530  0.48560  0.29950  Biso   1.000  C
  C99      1.0000 0.68580  0.42360  0.30550  Biso   1.000  C
  C100     1.0000 0.60280  0.43900  0.30790  Biso   1.000  C
  C101     1.0000 0.51750  0.39200  0.28200  Biso   1.000  C
  C102     1.0000 0.52010  0.32780  0.25430  Biso   1.000  C
  C103     1.0000 0.60430  0.31320  0.25380  Biso   1.000  C
  C104     1.0000 0.23600  0.62600  0.34900  Biso   1.000  C
  C105     1.0000 0.24920  0.56620  0.32210  Biso   1.000  C
  C106     1.0000 0.33200  0.55240  0.32950  Biso   1.000  C
  C107     1.0000 0.39870  0.59760  0.36450  Biso   1.000  C
  C108     1.0000 0.38050  0.65520  0.39190  Biso   1.000  C
  C109     1.0000 0.71020  0.22320  0.33210  Biso   1.000  C
  C110     1.0000 0.69670  0.17840  0.36290  Biso   1.000  C
  C111     1.0000 0.77510  0.18440  0.38950  Biso   1.000  C
  C112     1.0000 0.86460  0.24040  0.38580  Biso   1.000  C
  C113     1.0000 0.87300  0.28500  0.35450  Biso   1.000  C
  C114     1.0000 0.76470  0.13020  0.42060  Biso   1.000  C
  C115     1.0000 0.67200  0.03140  0.45030  Biso   1.000  C
  C116     1.0000 0.82960  0.09700  0.47670  Biso   1.000  C
  C117     1.0000 0.46090  0.87000  0.48000  Biso   1.000  C
  C118     1.0000 0.54890  0.93200  0.48510  Biso   1.000  C
  C119     1.0000 0.57720  0.96260  0.44680  Biso   1.000  C
  C120     1.0000 0.52510  0.93020  0.40640  Biso   1.000  C
  C121     1.0000 0.44150  0.86720  0.40530  Biso   1.000  C
  C122     1.0000 0.08020  0.17800  0.53540  Biso   1.000  C
  C123     1.0000 0.99970  0.17400  0.51000  Biso   1.000  C
  C124     1.0000 0.91620  0.10800  0.50510  Biso   1.000  C
  C125     1.0000 0.91250  0.05240  0.52800  Biso   1.000  C
  C126     1.0000 1.00000  0.06400  0.55290  Biso   1.000  C
  C127     1.0000 0.08790  0.20940  0.66130  Biso   1.000  C
  C128     1.0000 0.06050  0.25780  0.69250  Biso   1.000  C
  C129     1.0000 0.12840  0.32800  0.71120  Biso   1.000  C
  C130     1.0000 0.22680  0.34800  0.69930  Biso   1.000  C
  C131     1.0000 0.24780  0.29680  0.66760  Biso   1.000  C
  C132     1.0000 0.10040  0.38240  0.74410  Biso   1.000  C
  C133     1.0000 0.98440  0.41020  0.78020  Biso   1.000  C
  C134     1.0000 0.14030  0.48560  0.79950  Biso   1.000  C
  C135     1.0000 0.73780  0.42360  0.80550  Biso   1.000  C
  C136     1.0000 0.83620  0.43900  0.80790  Biso   1.000  C
  C137     1.0000 0.87450  0.39200  0.78200  Biso   1.000  C
  C138     1.0000 0.80770  0.32780  0.75430  Biso   1.000  C
  C139     1.0000 0.70890  0.31320  0.75380  Biso   1.000  C
  C140     1.0000 0.39000  0.62600  0.84900  Biso   1.000  C
  C141     1.0000 0.31700  0.56620  0.82210  Biso   1.000  C
  C142     1.0000 0.22040  0.55240  0.82950  Biso   1.000  C
  C143     1.0000 0.19890  0.59760  0.86450  Biso   1.000  C
  C144     1.0000 0.27470  0.65520  0.89190  Biso   1.000  C
  I13      1.0000 0.48689  0.45310  0.79400  Biso   1.000  I
  I14      1.0000 0.45362  0.23562  0.70235  Biso   1.000  I
  I15      1.0000 0.63130  0.79432  0.88619  Biso   1.000  I
  I16      1.0000 0.47215  0.69482  0.99908  Biso   1.000  I
  I17      1.0000 0.86652  0.21664  0.05794  Biso   1.000  I
  I18      1.0000 0.86093  0.03268  0.13386  Biso   1.000  I
  I19      1.0000 0.96621  0.45310  0.29400  Biso   1.000  I
  I20      1.0000 0.78200  0.23562  0.20235  Biso   1.000  I
  I21      1.0000 0.16302  0.79432  0.38619  Biso   1.000  I
  I22      1.0000 0.22267  0.69482  0.49908  Biso   1.000  I
  I23      1.0000 0.35012  0.21664  0.55794  Biso   1.000  I
  I24      1.0000 0.17175  0.03268  0.63386  Biso   1.000  I
  N25      1.0000 0.47810  0.27220  0.82590  Biso   1.000  N
  N26      1.0000 0.39900  0.07540  0.92070  Biso   1.000  N
  N27      1.0000 0.29560  0.04040  0.97940  Biso   1.000  N
  N28      1.0000 0.30120  0.14440  0.94800  Biso   1.000  N
  N29      1.0000 0.43140  0.83840  0.94110  Biso   1.000  N
  N30      1.0000 0.04480  0.12620  0.05800  Biso   1.000  N
  N31      1.0000 0.05040  0.22960  0.14890  Biso   1.000  N
  N32      1.0000 0.35650  0.36100  0.24890  Biso   1.000  N
  N33      1.0000 0.42520  0.47200  0.30760  Biso   1.000  N
  N34      1.0000 0.27220  0.44540  0.26680  Biso   1.000  N
  N35      1.0000 0.68570  0.36020  0.27930  Biso   1.000  N
  N36      1.0000 0.29850  0.66720  0.38430  Biso   1.000  N
  N37      1.0000 0.79410  0.27220  0.32590  Biso   1.000  N
  N38      1.0000 0.67640  0.07540  0.42070  Biso   1.000  N
  N39      1.0000 0.74480  0.04040  0.47940  Biso   1.000  N
  N40      1.0000 0.84320  0.14440  0.44800  Biso   1.000  N
  N41      1.0000 0.40700  0.83840  0.44110  Biso   1.000  N
  N42      1.0000 0.08140  0.12620  0.55800  Biso   1.000  N
  N43      1.0000 0.17920  0.22960  0.64890  Biso   1.000  N
  N44      1.0000 0.00450  0.36100  0.74890  Biso   1.000  N
  N45      1.0000 0.04680  0.47200  0.80760  Biso   1.000  N
  N46      1.0000 0.17320  0.44540  0.76680  Biso   1.000  N
  N47      1.0000 0.67450  0.36020  0.77930  Biso   1.000  N
  N48      1.0000 0.36870  0.66720  0.88430  Biso   1.000  N
