data_image0
_cell_length_a       14.7672
_cell_length_b       19.0215
_cell_length_c       30.527
_cell_angle_alpha    100.209
_cell_angle_beta     90
_cell_angle_gamma    112.841

_symmetry_space_group_name_H-M    P 1
_symmetry_int_tables_number       1

loop_
  _symmetry_equiv_pos_as_xyz
  'x, y, z'

loop_
  _atom_site_label
  _atom_site_occupancy
  _atom_site_fract_x
  _atom_site_fract_y
  _atom_site_fract_z
  _atom_site_thermal_displace_type
  _atom_site_B_iso_or_equiv
  _atom_site_type_symbol
  Zn1      1.0000 0.47423  0.65484  0.22779  Biso   1.000  Zn
  Zn2      1.0000 0.05271  0.84848  0.90012  Biso   1.000  Zn
  Zn3      1.0000 0.52163  0.25098  0.06439  Biso   1.000  Zn
  Zn4      1.0000 0.18061  0.65484  0.72779  Biso   1.000  Zn
  Zn5      1.0000 0.79577  0.84848  0.40012  Biso   1.000  Zn
  Zn6      1.0000 0.72935  0.25098  0.56439  Biso   1.000  Zn
  H1       1.0000 0.49870  0.80820  0.21120  Biso   1.000  H
  H2       1.0000 0.55390  0.88780  0.16010  Biso   1.000  H
  H3       1.0000 0.63270  0.72360  0.08680  Biso   1.000  H
  H4       1.0000 0.56720  0.64500  0.13860  Biso   1.000  H
  H5       1.0000 0.59810  0.15280  0.99510  Biso   1.000  H
  H6       1.0000 0.64220  0.04740  0.99130  Biso   1.000  H
  H7       1.0000 0.58170  0.04220  0.11890  Biso   1.000  H
  H8       1.0000 0.53210  0.14380  0.11890  Biso   1.000  H
  H9       1.0000 0.92710  0.77660  0.96860  Biso   1.000  H
  H10      1.0000 0.80570  0.78880  0.01450  Biso   1.000  H
  H11      1.0000 0.96760  0.97100  0.92940  Biso   1.000  H
  H12      1.0000 0.84740  0.98900  0.97450  Biso   1.000  H
  H13      1.0000 0.87360  0.83900  0.85440  Biso   1.000  H
  H14      1.0000 0.74910  0.76000  0.79920  Biso   1.000  H
  H15      1.0000 0.88020  0.60680  0.78130  Biso   1.000  H
  H16      1.0000 0.99740  0.68820  0.83880  Biso   1.000  H
  H17      1.0000 0.25210  0.53360  0.67680  Biso   1.000  H
  H18      1.0000 0.39630  0.51100  0.67060  Biso   1.000  H
  H19      1.0000 0.53680  0.71260  0.75690  Biso   1.000  H
  H20      1.0000 0.38960  0.72800  0.76260  Biso   1.000  H
  H21      1.0000 0.81720  0.36300  0.65150  Biso   1.000  H
  H22      1.0000 0.79570  0.46260  0.69860  Biso   1.000  H
  H23      1.0000 0.55040  0.42000  0.62130  Biso   1.000  H
  H24      1.0000 0.57940  0.31960  0.57700  Biso   1.000  H
  H25      1.0000 0.30950  0.80820  0.71120  Biso   1.000  H
  H26      1.0000 0.33390  0.88780  0.66010  Biso   1.000  H
  H27      1.0000 0.09090  0.72360  0.58680  Biso   1.000  H
  H28      1.0000 0.07780  0.64500  0.63860  Biso   1.000  H
  H29      1.0000 0.55470  0.15280  0.49510  Biso   1.000  H
  H30      1.0000 0.40520  0.04740  0.49130  Biso   1.000  H
  H31      1.0000 0.46050  0.04220  0.61890  Biso   1.000  H
  H32      1.0000 0.61170  0.14380  0.61890  Biso   1.000  H
  H33      1.0000 0.84950  0.77660  0.46860  Biso   1.000  H
  H34      1.0000 0.98310  0.78880  0.51450  Biso   1.000  H
  H35      1.0000 0.00340  0.97100  0.42940  Biso   1.000  H
  H36      1.0000 0.14160  0.98900  0.47450  Biso   1.000  H
  H37      1.0000 0.96540  0.83900  0.35440  Biso   1.000  H
  H38      1.0000 0.01090  0.76000  0.29920  Biso   1.000  H
  H39      1.0000 0.72660  0.60680  0.28130  Biso   1.000  H
  H40      1.0000 0.69080  0.68820  0.33880  Biso   1.000  H
  H41      1.0000 0.28150  0.53360  0.17680  Biso   1.000  H
  H42      1.0000 0.11470  0.51100  0.17060  Biso   1.000  H
  H43      1.0000 0.17580  0.71260  0.25690  Biso   1.000  H
  H44      1.0000 0.33840  0.72800  0.26260  Biso   1.000  H
  H45      1.0000 0.54580  0.36300  0.15150  Biso   1.000  H
  H46      1.0000 0.66690  0.46260  0.19860  Biso   1.000  H
  H47      1.0000 0.86960  0.42000  0.12130  Biso   1.000  H
  H48      1.0000 0.74020  0.31960  0.07700  Biso   1.000  H
  C1       1.0000 0.52489  0.79058  0.18510  Biso   1.000  C
  C2       1.0000 0.55890  0.83880  0.15520  Biso   1.000  C
  C3       1.0000 0.60167  0.81514  0.11695  Biso   1.000  C
  C4       1.0000 0.60427  0.74194  0.11190  Biso   1.000  C
  C5       1.0000 0.56583  0.69526  0.14300  Biso   1.000  C
  C6       1.0000 0.63917  0.86534  0.08454  Biso   1.000  C
  C7       1.0000 0.64409  0.96658  0.05376  Biso   1.000  C
  C8       1.0000 0.73696  0.89992  0.02870  Biso   1.000  C
  C9       1.0000 0.59364  0.12928  0.02040  Biso   1.000  C
  C10      1.0000 0.62006  0.06672  0.01820  Biso   1.000  C
  C11      1.0000 0.61493  0.03206  0.05433  Biso   1.000  C
  C12      1.0000 0.58400  0.06300  0.09260  Biso   1.000  C
  C13      1.0000 0.55620  0.12440  0.09260  Biso   1.000  C
  C14      1.0000 0.91040  0.82040  0.96980  Biso   1.000  C
  C15      1.0000 0.83820  0.82740  0.99740  Biso   1.000  C
  C16      1.0000 0.81435  0.89110  0.99973  Biso   1.000  C
  C17      1.0000 0.93408  0.93336  0.94700  Biso   1.000  C
  C18      1.0000 0.86252  0.94464  0.97397  Biso   1.000  C
  C19      1.0000 0.87395  0.79070  0.83970  Biso   1.000  C
  C20      1.0000 0.79981  0.74422  0.80670  Biso   1.000  C
  C21      1.0000 0.80112  0.67484  0.78523  Biso   1.000  C
  C22      1.0000 0.87642  0.65364  0.79636  Biso   1.000  C
  C23      1.0000 0.94645  0.70310  0.83030  Biso   1.000  C
  C24      1.0000 0.72222  0.62344  0.75028  Biso   1.000  C
  C25      1.0000 0.57318  0.59356  0.71528  Biso   1.000  C
  C26      1.0000 0.66003  0.51946  0.69412  Biso   1.000  C
  C27      1.0000 0.31041  0.56962  0.69400  Biso   1.000  C
  C28      1.0000 0.39639  0.55578  0.69020  Biso   1.000  C
  C29      1.0000 0.48169  0.60778  0.71500  Biso   1.000  C
  C30      1.0000 0.47854  0.67368  0.74100  Biso   1.000  C
  C31      1.0000 0.39093  0.68306  0.74370  Biso   1.000  C
  C32      1.0000 0.76263  0.37526  0.64540  Biso   1.000  C
  C33      1.0000 0.75041  0.43442  0.67340  Biso   1.000  C
  C34      1.0000 0.67048  0.45316  0.66465  Biso   1.000  C
  C35      1.0000 0.60610  0.40960  0.62820  Biso   1.000  C
  C36      1.0000 0.62450  0.35000  0.60190  Biso   1.000  C
  C37      1.0000 0.26569  0.79058  0.68510  Biso   1.000  C
  C38      1.0000 0.27990  0.83880  0.65520  Biso   1.000  C
  C39      1.0000 0.21347  0.81514  0.61695  Biso   1.000  C
  C40      1.0000 0.13767  0.74194  0.61190  Biso   1.000  C
  C41      1.0000 0.12943  0.69526  0.64300  Biso   1.000  C
  C42      1.0000 0.22617  0.86534  0.58454  Biso   1.000  C
  C43      1.0000 0.32249  0.96658  0.55376  Biso   1.000  C
  C44      1.0000 0.16296  0.89992  0.52870  Biso   1.000  C
  C45      1.0000 0.53564  0.12928  0.52040  Biso   1.000  C
  C46      1.0000 0.44666  0.06672  0.51820  Biso   1.000  C
  C47      1.0000 0.41713  0.03206  0.55433  Biso   1.000  C
  C48      1.0000 0.47900  0.06300  0.59260  Biso   1.000  C
  C49      1.0000 0.56820  0.12440  0.59260  Biso   1.000  C
  C50      1.0000 0.91000  0.82040  0.46980  Biso   1.000  C
  C51      1.0000 0.98920  0.82740  0.49740  Biso   1.000  C
  C52      1.0000 0.07675  0.89110  0.49973  Biso   1.000  C
  C53      1.0000 0.99928  0.93336  0.44700  Biso   1.000  C
  C54      1.0000 0.08212  0.94464  0.47397  Biso   1.000  C
  C55      1.0000 0.91675  0.79070  0.33970  Biso   1.000  C
  C56      1.0000 0.94441  0.74422  0.30670  Biso   1.000  C
  C57      1.0000 0.87372  0.67484  0.28523  Biso   1.000  C
  C58      1.0000 0.77722  0.65364  0.29636  Biso   1.000  C
  C59      1.0000 0.75665  0.70310  0.33030  Biso   1.000  C
  C60      1.0000 0.90122  0.62344  0.25028  Biso   1.000  C
  C61      1.0000 0.02038  0.59356  0.21528  Biso   1.000  C
  C62      1.0000 0.85943  0.51946  0.19412  Biso   1.000  C
  C63      1.0000 0.25921  0.56962  0.19400  Biso   1.000  C
  C64      1.0000 0.15939  0.55578  0.19020  Biso   1.000  C
  C65      1.0000 0.12609  0.60778  0.21500  Biso   1.000  C
  C66      1.0000 0.19514  0.67368  0.24100  Biso   1.000  C
  C67      1.0000 0.29213  0.68306  0.24370  Biso   1.000  C
  C68      1.0000 0.61263  0.37526  0.14540  Biso   1.000  C
  C69      1.0000 0.68401  0.43442  0.17340  Biso   1.000  C
  C70      1.0000 0.78268  0.45316  0.16465  Biso   1.000  C
  C71      1.0000 0.80350  0.40960  0.12820  Biso   1.000  C
  C72      1.0000 0.72550  0.35000  0.10190  Biso   1.000  C
  I1       1.0000 0.53713  0.74672  0.30305  Biso   1.000  I
  I2       1.0000 0.49892  0.52930  0.20429  Biso   1.000  I
  I3       1.0000 0.13603  0.96596  0.86429  Biso   1.000  I
  I4       1.0000 0.13089  0.77674  0.93896  Biso   1.000  I
  I5       1.0000 0.36497  0.21566  0.10483  Biso   1.000  I
  I6       1.0000 0.54778  0.30028  0.99186  Biso   1.000  I
  I7       1.0000 0.20959  0.74672  0.80305  Biso   1.000  I
  I8       1.0000 0.03038  0.52930  0.70429  Biso   1.000  I
  I9       1.0000 0.82993  0.96596  0.36429  Biso   1.000  I
  I10      1.0000 0.64585  0.77674  0.43896  Biso   1.000  I
  I11      1.0000 0.85069  0.21566  0.60483  Biso   1.000  I
  I12      1.0000 0.75250  0.30028  0.49186  Biso   1.000  I
  N1       1.0000 0.52655  0.71990  0.17955  Biso   1.000  N
  N2       1.0000 0.60800  0.92160  0.08440  Biso   1.000  N
  N3       1.0000 0.70778  0.95696  0.02470  Biso   1.000  N
  N4       1.0000 0.70466  0.85192  0.05700  Biso   1.000  N
  N5       1.0000 0.56167  0.15714  0.05804  Biso   1.000  N
  N6       1.0000 0.95673  0.87246  0.94508  Biso   1.000  N
  N7       1.0000 0.94575  0.77010  0.85147  Biso   1.000  N
  N8       1.0000 0.64427  0.64374  0.74568  Biso   1.000  N
  N9       1.0000 0.57699  0.53298  0.68760  Biso   1.000  N
  N10      1.0000 0.73092  0.56104  0.72652  Biso   1.000  N
  N11      1.0000 0.30725  0.63130  0.72084  Biso   1.000  N
  N12      1.0000 0.70065  0.33330  0.60923  Biso   1.000  N
  N13      1.0000 0.19335  0.71990  0.67955  Biso   1.000  N
  N14      1.0000 0.31360  0.92160  0.58440  Biso   1.000  N
  N15      1.0000 0.24918  0.95696  0.52470  Biso   1.000  N
  N16      1.0000 0.14726  0.85192  0.55700  Biso   1.000  N
  N17      1.0000 0.59547  0.15714  0.55804  Biso   1.000  N
  N18      1.0000 0.91573  0.87246  0.44508  Biso   1.000  N
  N19      1.0000 0.82435  0.77010  0.35147  Biso   1.000  N
  N20      1.0000 0.99947  0.64374  0.24568  Biso   1.000  N
  N21      1.0000 0.95599  0.53298  0.18760  Biso   1.000  N
  N22      1.0000 0.83012  0.56104  0.22652  Biso   1.000  N
  N23      1.0000 0.32405  0.63130  0.22084  Biso   1.000  N
  N24      1.0000 0.63265  0.33330  0.10923  Biso   1.000  N
  Zn7      1.0000 0.81939  0.34516  0.27221  Biso   1.000  Zn
  Zn8      1.0000 0.20423  0.15152  0.59988  Biso   1.000  Zn
  Zn9      1.0000 0.27065  0.74902  0.43561  Biso   1.000  Zn
  Zn10     1.0000 0.52577  0.34516  0.77221  Biso   1.000  Zn
  Zn11     1.0000 0.94729  0.15152  0.09988  Biso   1.000  Zn
  Zn12     1.0000 0.47837  0.74902  0.93561  Biso   1.000  Zn
  H49      1.0000 0.69050  0.19180  0.28880  Biso   1.000  H
  H50      1.0000 0.66610  0.11220  0.33990  Biso   1.000  H
  H51      1.0000 0.90910  0.27640  0.41320  Biso   1.000  H
  H52      1.0000 0.92220  0.35500  0.36140  Biso   1.000  H
  H53      1.0000 0.44530  0.84720  0.50490  Biso   1.000  H
  H54      1.0000 0.59480  0.95260  0.50870  Biso   1.000  H
  H55      1.0000 0.53950  0.95780  0.38110  Biso   1.000  H
  H56      1.0000 0.38830  0.85620  0.38110  Biso   1.000  H
  H57      1.0000 0.15050  0.22340  0.53140  Biso   1.000  H
  H58      1.0000 0.01690  0.21120  0.48550  Biso   1.000  H
  H59      1.0000 0.99660  0.02900  0.57060  Biso   1.000  H
  H60      1.0000 0.85840  0.01100  0.52550  Biso   1.000  H
  H61      1.0000 0.03460  0.16100  0.64560  Biso   1.000  H
  H62      1.0000 0.98910  0.24000  0.70080  Biso   1.000  H
  H63      1.0000 0.27340  0.39320  0.71870  Biso   1.000  H
  H64      1.0000 0.30920  0.31180  0.66120  Biso   1.000  H
  H65      1.0000 0.71850  0.46640  0.82320  Biso   1.000  H
  H66      1.0000 0.88530  0.48900  0.82940  Biso   1.000  H
  H67      1.0000 0.82420  0.28740  0.74310  Biso   1.000  H
  H68      1.0000 0.66160  0.27200  0.73740  Biso   1.000  H
  H69      1.0000 0.45420  0.63700  0.84850  Biso   1.000  H
  H70      1.0000 0.33310  0.53740  0.80140  Biso   1.000  H
  H71      1.0000 0.13040  0.58000  0.87870  Biso   1.000  H
  H72      1.0000 0.25980  0.68040  0.92300  Biso   1.000  H
  H73      1.0000 0.50130  0.19180  0.78880  Biso   1.000  H
  H74      1.0000 0.44610  0.11220  0.83990  Biso   1.000  H
  H75      1.0000 0.36730  0.27640  0.91320  Biso   1.000  H
  H76      1.0000 0.43280  0.35500  0.86140  Biso   1.000  H
  H77      1.0000 0.40190  0.84720  0.00490  Biso   1.000  H
  H78      1.0000 0.35780  0.95260  0.00870  Biso   1.000  H
  H79      1.0000 0.41830  0.95780  0.88110  Biso   1.000  H
  H80      1.0000 0.46790  0.85620  0.88110  Biso   1.000  H
  H81      1.0000 0.07290  0.22340  0.03140  Biso   1.000  H
  H82      1.0000 0.19430  0.21120  0.98550  Biso   1.000  H
  H83      1.0000 0.03240  0.02900  0.07060  Biso   1.000  H
  H84      1.0000 0.15260  0.01100  0.02550  Biso   1.000  H
  H85      1.0000 0.12640  0.16100  0.14560  Biso   1.000  H
  H86      1.0000 0.25090  0.24000  0.20080  Biso   1.000  H
  H87      1.0000 0.11980  0.39320  0.21870  Biso   1.000  H
  H88      1.0000 0.00260  0.31180  0.16120  Biso   1.000  H
  H89      1.0000 0.74790  0.46640  0.32320  Biso   1.000  H
  H90      1.0000 0.60370  0.48900  0.32940  Biso   1.000  H
  H91      1.0000 0.46320  0.28740  0.24310  Biso   1.000  H
  H92      1.0000 0.61040  0.27200  0.23740  Biso   1.000  H
  H93      1.0000 0.18280  0.63700  0.34850  Biso   1.000  H
  H94      1.0000 0.20430  0.53740  0.30140  Biso   1.000  H
  H95      1.0000 0.44960  0.58000  0.37870  Biso   1.000  H
  H96      1.0000 0.42060  0.68040  0.42300  Biso   1.000  H
  C73      1.0000 0.73431  0.20942  0.31490  Biso   1.000  C
  C74      1.0000 0.72010  0.16120  0.34480  Biso   1.000  C
  C75      1.0000 0.78653  0.18486  0.38305  Biso   1.000  C
  C76      1.0000 0.86233  0.25806  0.38810  Biso   1.000  C
  C77      1.0000 0.87057  0.30474  0.35700  Biso   1.000  C
  C78      1.0000 0.77383  0.13466  0.41546  Biso   1.000  C
  C79      1.0000 0.67751  0.03342  0.44624  Biso   1.000  C
  C80      1.0000 0.83704  0.10008  0.47130  Biso   1.000  C
  C81      1.0000 0.46436  0.87072  0.47960  Biso   1.000  C
  C82      1.0000 0.55334  0.93328  0.48180  Biso   1.000  C
  C83      1.0000 0.58287  0.96794  0.44567  Biso   1.000  C
  C84      1.0000 0.52100  0.93700  0.40740  Biso   1.000  C
  C85      1.0000 0.43180  0.87560  0.40740  Biso   1.000  C
  C86      1.0000 0.09000  0.17960  0.53020  Biso   1.000  C
  C87      1.0000 0.01080  0.17260  0.50260  Biso   1.000  C
  C88      1.0000 0.92325  0.10890  0.50027  Biso   1.000  C
  C89      1.0000 0.00072  0.06664  0.55300  Biso   1.000  C
  C90      1.0000 0.91788  0.05536  0.52603  Biso   1.000  C
  C91      1.0000 0.08325  0.20930  0.66030  Biso   1.000  C
  C92      1.0000 0.05559  0.25578  0.69330  Biso   1.000  C
  C93      1.0000 0.12628  0.32516  0.71477  Biso   1.000  C
  C94      1.0000 0.22278  0.34636  0.70364  Biso   1.000  C
  C95      1.0000 0.24335  0.29690  0.66970  Biso   1.000  C
  C96      1.0000 0.09878  0.37656  0.74972  Biso   1.000  C
  C97      1.0000 0.97962  0.40644  0.78472  Biso   1.000  C
  C98      1.0000 0.14057  0.48054  0.80588  Biso   1.000  C
  C99      1.0000 0.74079  0.43038  0.80600  Biso   1.000  C
  C100     1.0000 0.84061  0.44422  0.80980  Biso   1.000  C
  C101     1.0000 0.87391  0.39222  0.78500  Biso   1.000  C
  C102     1.0000 0.80486  0.32632  0.75900  Biso   1.000  C
  C103     1.0000 0.70787  0.31694  0.75630  Biso   1.000  C
  C104     1.0000 0.38737  0.62474  0.85460  Biso   1.000  C
  C105     1.0000 0.31599  0.56558  0.82660  Biso   1.000  C
  C106     1.0000 0.21732  0.54684  0.83535  Biso   1.000  C
  C107     1.0000 0.19650  0.59040  0.87180  Biso   1.000  C
  C108     1.0000 0.27450  0.65000  0.89810  Biso   1.000  C
  C109     1.0000 0.47511  0.20942  0.81490  Biso   1.000  C
  C110     1.0000 0.44110  0.16120  0.84480  Biso   1.000  C
  C111     1.0000 0.39833  0.18486  0.88305  Biso   1.000  C
  C112     1.0000 0.39573  0.25806  0.88810  Biso   1.000  C
  C113     1.0000 0.43417  0.30474  0.85700  Biso   1.000  C
  C114     1.0000 0.36083  0.13466  0.91546  Biso   1.000  C
  C115     1.0000 0.35591  0.03342  0.94624  Biso   1.000  C
  C116     1.0000 0.26304  0.10008  0.97130  Biso   1.000  C
  C117     1.0000 0.40636  0.87072  0.97960  Biso   1.000  C
  C118     1.0000 0.37994  0.93328  0.98180  Biso   1.000  C
  C119     1.0000 0.38507  0.96794  0.94567  Biso   1.000  C
  C120     1.0000 0.41600  0.93700  0.90740  Biso   1.000  C
  C121     1.0000 0.44380  0.87560  0.90740  Biso   1.000  C
  C122     1.0000 0.08960  0.17960  0.03020  Biso   1.000  C
  C123     1.0000 0.16180  0.17260  0.00260  Biso   1.000  C
  C124     1.0000 0.18565  0.10890  0.00027  Biso   1.000  C
  C125     1.0000 0.06592  0.06664  0.05300  Biso   1.000  C
  C126     1.0000 0.13748  0.05536  0.02603  Biso   1.000  C
  C127     1.0000 0.12605  0.20930  0.16030  Biso   1.000  C
  C128     1.0000 0.20019  0.25578  0.19330  Biso   1.000  C
  C129     1.0000 0.19888  0.32516  0.21477  Biso   1.000  C
  C130     1.0000 0.12358  0.34636  0.20364  Biso   1.000  C
  C131     1.0000 0.05355  0.29690  0.16970  Biso   1.000  C
  C132     1.0000 0.27778  0.37656  0.24972  Biso   1.000  C
  C133     1.0000 0.42682  0.40644  0.28472  Biso   1.000  C
  C134     1.0000 0.33997  0.48054  0.30588  Biso   1.000  C
  C135     1.0000 0.68959  0.43038  0.30600  Biso   1.000  C
  C136     1.0000 0.60361  0.44422  0.30980  Biso   1.000  C
  C137     1.0000 0.51831  0.39222  0.28500  Biso   1.000  C
  C138     1.0000 0.52146  0.32632  0.25900  Biso   1.000  C
  C139     1.0000 0.60907  0.31694  0.25630  Biso   1.000  C
  C140     1.0000 0.23737  0.62474  0.35460  Biso   1.000  C
  C141     1.0000 0.24959  0.56558  0.32660  Biso   1.000  C
  C142     1.0000 0.32952  0.54684  0.33535  Biso   1.000  C
  C143     1.0000 0.39390  0.59040  0.37180  Biso   1.000  C
  C144     1.0000 0.37550  0.65000  0.39810  Biso   1.000  C
  I13      1.0000 0.79041  0.25328  0.19695  Biso   1.000  I
  I14      1.0000 0.96962  0.47070  0.29571  Biso   1.000  I
  I15      1.0000 0.17007  0.03404  0.63571  Biso   1.000  I
  I16      1.0000 0.35415  0.22326  0.56104  Biso   1.000  I
  I17      1.0000 0.14931  0.78434  0.39517  Biso   1.000  I
  I18      1.0000 0.24750  0.69972  0.50814  Biso   1.000  I
  I19      1.0000 0.46287  0.25328  0.69695  Biso   1.000  I
  I20      1.0000 0.50108  0.47070  0.79571  Biso   1.000  I
  I21      1.0000 0.86397  0.03404  0.13571  Biso   1.000  I
  I22      1.0000 0.86911  0.22326  0.06104  Biso   1.000  I
  I23      1.0000 0.63503  0.78434  0.89517  Biso   1.000  I
  I24      1.0000 0.45222  0.69972  0.00814  Biso   1.000  I
  N25      1.0000 0.80665  0.28010  0.32045  Biso   1.000  N
  N26      1.0000 0.68640  0.07840  0.41560  Biso   1.000  N
  N27      1.0000 0.75082  0.04304  0.47530  Biso   1.000  N
  N28      1.0000 0.85274  0.14808  0.44300  Biso   1.000  N
  N29      1.0000 0.40453  0.84286  0.44196  Biso   1.000  N
  N30      1.0000 0.08427  0.12754  0.55492  Biso   1.000  N
  N31      1.0000 0.17565  0.22990  0.64853  Biso   1.000  N
  N32      1.0000 0.00053  0.35626  0.75432  Biso   1.000  N
  N33      1.0000 0.04401  0.46702  0.81240  Biso   1.000  N
  N34      1.0000 0.16988  0.43896  0.77348  Biso   1.000  N
  N35      1.0000 0.67595  0.36870  0.77916  Biso   1.000  N
  N36      1.0000 0.36735  0.66670  0.89077  Biso   1.000  N
  N37      1.0000 0.47345  0.28010  0.82045  Biso   1.000  N
  N38      1.0000 0.39200  0.07840  0.91560  Biso   1.000  N
  N39      1.0000 0.29222  0.04304  0.97530  Biso   1.000  N
  N40      1.0000 0.29534  0.14808  0.94300  Biso   1.000  N
  N41      1.0000 0.43833  0.84286  0.94196  Biso   1.000  N
  N42      1.0000 0.04327  0.12754  0.05492  Biso   1.000  N
  N43      1.0000 0.05425  0.22990  0.14853  Biso   1.000  N
  N44      1.0000 0.35573  0.35626  0.25432  Biso   1.000  N
  N45      1.0000 0.42301  0.46702  0.31240  Biso   1.000  N
  N46      1.0000 0.26908  0.43896  0.27348  Biso   1.000  N
  N47      1.0000 0.69275  0.36870  0.27916  Biso   1.000  N
  N48      1.0000 0.29935  0.66670  0.39077  Biso   1.000  N
