data_image0
_cell_length_a       14.879
_cell_length_b       18.852
_cell_length_c       30.836
_cell_angle_alpha    100.818
_cell_angle_beta     90
_cell_angle_gamma    113.243

_symmetry_space_group_name_H-M    P 1
_symmetry_int_tables_number       1

loop_
  _symmetry_equiv_pos_as_xyz
  'x, y, z'

loop_
  _atom_site_label
  _atom_site_occupancy
  _atom_site_fract_x
  _atom_site_fract_y
  _atom_site_fract_z
  _atom_site_thermal_displace_type
  _atom_site_B_iso_or_equiv
  _atom_site_type_symbol
  Zn1      1.0000 0.52040  0.25208  0.55832  Biso   1.000  Zn
  Zn2      1.0000 0.79975  0.84602  0.90331  Biso   1.000  Zn
  Zn3      1.0000 0.18132  0.64824  0.22369  Biso   1.000  Zn
  Zn4      1.0000 0.73168  0.25208  0.05832  Biso   1.000  Zn
  Zn5      1.0000 0.04627  0.84602  0.40331  Biso   1.000  Zn
  Zn6      1.0000 0.46692  0.64824  0.72369  Biso   1.000  Zn
  H1       1.0000 0.74040  0.32340  0.57270  Biso   1.000  H
  H2       1.0000 0.86730  0.41320  0.62440  Biso   1.000  H
  H3       1.0000 0.66280  0.46260  0.69570  Biso   1.000  H
  H4       1.0000 0.54260  0.36660  0.64540  Biso   1.000  H
  H5       1.0000 0.33280  0.72100  0.76050  Biso   1.000  H
  H6       1.0000 0.17120  0.70380  0.76120  Biso   1.000  H
  H7       1.0000 0.10690  0.50660  0.67000  Biso   1.000  H
  H8       1.0000 0.27000  0.52860  0.66970  Biso   1.000  H
  H9       1.0000 0.69170  0.69300  0.83600  Biso   1.000  H
  H10      1.0000 0.72460  0.60920  0.78060  Biso   1.000  H
  H11      1.0000 0.01060  0.73860  0.81380  Biso   1.000  H
  H12      1.0000 0.97090  0.82160  0.86530  Biso   1.000  H
  H13      1.0000 0.00820  0.96980  0.93370  Biso   1.000  H
  H14      1.0000 0.14450  0.98740  0.97460  Biso   1.000  H
  H15      1.0000 0.97880  0.79780  0.02320  Biso   1.000  H
  H16      1.0000 0.85020  0.78140  0.97420  Biso   1.000  H
  H17      1.0000 0.63270  0.12540  0.10630  Biso   1.000  H
  H18      1.0000 0.47920  0.03060  0.11040  Biso   1.000  H
  H19      1.0000 0.39550  0.05640  0.99450  Biso   1.000  H
  H20      1.0000 0.54260  0.15440  0.99510  Biso   1.000  H
  H21      1.0000 0.07720  0.64480  0.13730  Biso   1.000  H
  H22      1.0000 0.08870  0.72600  0.08850  Biso   1.000  H
  H23      1.0000 0.34360  0.88120  0.15620  Biso   1.000  H
  H24      1.0000 0.31940  0.79960  0.20640  Biso   1.000  H
  H25      1.0000 0.58300  0.32340  0.07270  Biso   1.000  H
  H26      1.0000 0.54590  0.41320  0.12440  Biso   1.000  H
  H27      1.0000 0.79980  0.46260  0.19570  Biso   1.000  H
  H28      1.0000 0.82400  0.36660  0.14540  Biso   1.000  H
  H29      1.0000 0.38820  0.72100  0.26050  Biso   1.000  H
  H30      1.0000 0.53260  0.70380  0.26120  Biso   1.000  H
  H31      1.0000 0.39970  0.50660  0.17000  Biso   1.000  H
  H32      1.0000 0.25860  0.52860  0.16970  Biso   1.000  H
  H33      1.0000 0.00130  0.69300  0.33600  Biso   1.000  H
  H34      1.0000 0.88460  0.60920  0.28060  Biso   1.000  H
  H35      1.0000 0.72800  0.73860  0.31380  Biso   1.000  H
  H36      1.0000 0.85070  0.82160  0.36530  Biso   1.000  H
  H37      1.0000 0.96160  0.96980  0.43370  Biso   1.000  H
  H38      1.0000 0.84290  0.98740  0.47460  Biso   1.000  H
  H39      1.0000 0.81900  0.79780  0.52320  Biso   1.000  H
  H40      1.0000 0.93120  0.78140  0.47420  Biso   1.000  H
  H41      1.0000 0.49270  0.12540  0.60630  Biso   1.000  H
  H42      1.0000 0.55140  0.03060  0.61040  Biso   1.000  H
  H43      1.0000 0.66090  0.05640  0.49450  Biso   1.000  H
  H44      1.0000 0.61180  0.15440  0.49510  Biso   1.000  H
  H45      1.0000 0.56760  0.64480  0.63730  Biso   1.000  H
  H46      1.0000 0.63730  0.72600  0.58850  Biso   1.000  H
  H47      1.0000 0.53760  0.88120  0.65620  Biso   1.000  H
  H48      1.0000 0.48020  0.79960  0.70640  Biso   1.000  H
  C1       1.0000 0.72490  0.35000  0.59910  Biso   1.000  C
  C2       1.0000 0.80110  0.40540  0.62860  Biso   1.000  C
  C3       1.0000 0.77700  0.45020  0.66540  Biso   1.000  C
  C4       1.0000 0.68060  0.43380  0.67100  Biso   1.000  C
  C5       1.0000 0.60920  0.37600  0.64110  Biso   1.000  C
  C6       1.0000 0.85600  0.51660  0.69460  Biso   1.000  C
  C7       1.0000 0.01520  0.58660  0.71660  Biso   1.000  C
  C8       1.0000 0.90020  0.61720  0.75110  Biso   1.000  C
  C9       1.0000 0.28540  0.67520  0.74210  Biso   1.000  C
  C10      1.0000 0.18990  0.66660  0.74250  Biso   1.000  C
  C11      1.0000 0.12250  0.60180  0.71460  Biso   1.000  C
  C12      1.0000 0.15370  0.55200  0.68910  Biso   1.000  C
  C13      1.0000 0.25010  0.56360  0.68950  Biso   1.000  C
  C14      1.0000 0.75830  0.70320  0.83100  Biso   1.000  C
  C15      1.0000 0.77730  0.65360  0.79740  Biso   1.000  C
  C16      1.0000 0.87240  0.66780  0.78800  Biso   1.000  C
  C17      1.0000 0.94340  0.72920  0.81650  Biso   1.000  C
  C18      1.0000 0.91900  0.77680  0.84830  Biso   1.000  C
  C19      1.0000 0.00280  0.93180  0.95100  Biso   1.000  C
  C20      1.0000 0.08450  0.94420  0.97580  Biso   1.000  C
  C21      1.0000 0.07850  0.89340  0.00220  Biso   1.000  C
  C22      1.0000 0.98790  0.83260  0.00340  Biso   1.000  C
  C23      1.0000 0.91130  0.82480  0.97470  Biso   1.000  C
  C24      1.0000 0.16480  0.90300  0.03070  Biso   1.000  C
  C25      1.0000 0.32590  0.96540  0.05450  Biso   1.000  C
  C26      1.0000 0.23000  0.86540  0.08490  Biso   1.000  C
  C27      1.0000 0.58210  0.11360  0.08400  Biso   1.000  C
  C28      1.0000 0.49250  0.05460  0.08530  Biso   1.000  C
  C29      1.0000 0.42250  0.03020  0.05150  Biso   1.000  C
  C30      1.0000 0.44320  0.07020  0.01860  Biso   1.000  C
  C31      1.0000 0.53000  0.12900  0.01970  Biso   1.000  C
  C32      1.0000 0.13100  0.69460  0.14160  Biso   1.000  C
  C33      1.0000 0.13790  0.74220  0.11220  Biso   1.000  C
  C34      1.0000 0.21720  0.81420  0.11730  Biso   1.000  C
  C35      1.0000 0.28640  0.83340  0.15240  Biso   1.000  C
  C36      1.0000 0.27270  0.78380  0.18170  Biso   1.000  C
  C37      1.0000 0.62510  0.35000  0.09910  Biso   1.000  C
  C38      1.0000 0.60430  0.40540  0.12860  Biso   1.000  C
  C39      1.0000 0.67320  0.45020  0.16540  Biso   1.000  C
  C40      1.0000 0.75320  0.43380  0.17100  Biso   1.000  C
  C41      1.0000 0.76680  0.37600  0.14110  Biso   1.000  C
  C42      1.0000 0.66060  0.51660  0.19460  Biso   1.000  C
  C43      1.0000 0.57140  0.58660  0.21660  Biso   1.000  C
  C44      1.0000 0.71700  0.61720  0.25110  Biso   1.000  C
  C45      1.0000 0.38980  0.67520  0.24210  Biso   1.000  C
  C46      1.0000 0.47670  0.66660  0.24250  Biso   1.000  C
  C47      1.0000 0.47930  0.60180  0.21460  Biso   1.000  C
  C48      1.0000 0.39830  0.55200  0.18910  Biso   1.000  C
  C49      1.0000 0.31350  0.56360  0.18950  Biso   1.000  C
  C50      1.0000 0.94490  0.70320  0.33100  Biso   1.000  C
  C51      1.0000 0.87630  0.65360  0.29740  Biso   1.000  C
  C52      1.0000 0.79540  0.66780  0.28800  Biso   1.000  C
  C53      1.0000 0.78580  0.72920  0.31650  Biso   1.000  C
  C54      1.0000 0.85780  0.77680  0.34830  Biso   1.000  C
  C55      1.0000 0.92900  0.93180  0.45100  Biso   1.000  C
  C56      1.0000 0.85970  0.94420  0.47580  Biso   1.000  C
  C57      1.0000 0.81490  0.89340  0.50220  Biso   1.000  C
  C58      1.0000 0.84470  0.83260  0.50340  Biso   1.000  C
  C59      1.0000 0.91350  0.82480  0.47470  Biso   1.000  C
  C60      1.0000 0.73820  0.90300  0.53070  Biso   1.000  C
  C61      1.0000 0.63950  0.96540  0.55450  Biso   1.000  C
  C62      1.0000 0.63540  0.86540  0.58490  Biso   1.000  C
  C63      1.0000 0.53150  0.11360  0.58400  Biso   1.000  C
  C64      1.0000 0.56210  0.05460  0.58530  Biso   1.000  C
  C65      1.0000 0.60770  0.03020  0.55150  Biso   1.000  C
  C66      1.0000 0.62700  0.07020  0.51860  Biso   1.000  C
  C67      1.0000 0.59900  0.12900  0.51970  Biso   1.000  C
  C68      1.0000 0.56360  0.69460  0.64160  Biso   1.000  C
  C69      1.0000 0.60430  0.74220  0.61220  Biso   1.000  C
  C70      1.0000 0.59700  0.81420  0.61730  Biso   1.000  C
  C71      1.0000 0.54700  0.83340  0.65240  Biso   1.000  C
  C72      1.0000 0.51110  0.78380  0.68170  Biso   1.000  C
  I1       1.0000 0.56088  0.30456  0.48805  Biso   1.000  I
  I2       1.0000 0.36528  0.22224  0.59451  Biso   1.000  I
  I3       1.0000 0.83392  0.96206  0.86617  Biso   1.000  I
  I4       1.0000 0.64656  0.77362  0.93928  Biso   1.000  I
  I5       1.0000 0.03311  0.52196  0.19774  Biso   1.000  I
  I6       1.0000 0.20194  0.73952  0.29935  Biso   1.000  I
  I7       1.0000 0.74368  0.30456  0.98805  Biso   1.000  I
  I8       1.0000 0.85696  0.22224  0.09451  Biso   1.000  I
  I9       1.0000 0.12814  0.96206  0.36617  Biso   1.000  I
  I10      1.0000 0.12706  0.77362  0.43928  Biso   1.000  I
  I11      1.0000 0.48885  0.52196  0.69774  Biso   1.000  I
  I12      1.0000 0.53758  0.73952  0.79935  Biso   1.000  I
  N1       1.0000 0.62910  0.33180  0.60590  Biso   1.000  N
  N2       1.0000 0.94880  0.52780  0.68800  Biso   1.000  N
  N3       1.0000 0.99370  0.63720  0.74800  Biso   1.000  N
  N4       1.0000 0.82820  0.55720  0.72650  Biso   1.000  N
  N5       1.0000 0.31760  0.62540  0.71840  Biso   1.000  N
  N6       1.0000 0.82910  0.76580  0.85730  Biso   1.000  N
  N7       1.0000 0.91730  0.87320  0.94830  Biso   1.000  N
  N8       1.0000 0.25210  0.95780  0.02600  Biso   1.000  N
  N9       1.0000 0.31850  0.92160  0.08400  Biso   1.000  N
  N10      1.0000 0.14890  0.85220  0.05850  Biso   1.000  N
  N11      1.0000 0.60070  0.15540  0.05180  Biso   1.000  N
  N12      1.0000 0.19760  0.71560  0.17670  Biso   1.000  N
  N13      1.0000 0.70270  0.33180  0.10590  Biso   1.000  N
  N14      1.0000 0.57900  0.52780  0.18800  Biso   1.000  N
  N15      1.0000 0.64350  0.63720  0.24800  Biso   1.000  N
  N16      1.0000 0.72900  0.55720  0.22650  Biso   1.000  N
  N17      1.0000 0.30780  0.62540  0.21840  Biso   1.000  N
  N18      1.0000 0.93670  0.76580  0.35730  Biso   1.000  N
  N19      1.0000 0.95590  0.87320  0.44830  Biso   1.000  N
  N20      1.0000 0.70570  0.95780  0.52600  Biso   1.000  N
  N21      1.0000 0.60310  0.92160  0.58400  Biso   1.000  N
  N22      1.0000 0.70330  0.85220  0.55850  Biso   1.000  N
  N23      1.0000 0.55470  0.15540  0.55180  Biso   1.000  N
  N24      1.0000 0.51800  0.71560  0.67670  Biso   1.000  N
  Zn7      1.0000 0.26832  0.74792  0.94168  Biso   1.000  Zn
  Zn8      1.0000 0.95373  0.15398  0.59669  Biso   1.000  Zn
  Zn9      1.0000 0.53308  0.35176  0.27631  Biso   1.000  Zn
  Zn10     1.0000 0.47960  0.74792  0.44168  Biso   1.000  Zn
  Zn11     1.0000 0.20025  0.15398  0.09669  Biso   1.000  Zn
  Zn12     1.0000 0.81868  0.35176  0.77631  Biso   1.000  Zn
  H49      1.0000 0.41700  0.67660  0.92730  Biso   1.000  H
  H50      1.0000 0.45410  0.58680  0.87560  Biso   1.000  H
  H51      1.0000 0.20020  0.53740  0.80430  Biso   1.000  H
  H52      1.0000 0.17600  0.63340  0.85460  Biso   1.000  H
  H53      1.0000 0.61180  0.27900  0.73950  Biso   1.000  H
  H54      1.0000 0.46740  0.29620  0.73880  Biso   1.000  H
  H55      1.0000 0.60030  0.49340  0.83000  Biso   1.000  H
  H56      1.0000 0.74140  0.47140  0.83030  Biso   1.000  H
  H57      1.0000 0.99870  0.30700  0.66400  Biso   1.000  H
  H58      1.0000 0.11540  0.39080  0.71940  Biso   1.000  H
  H59      1.0000 0.27200  0.26140  0.68620  Biso   1.000  H
  H60      1.0000 0.14930  0.17840  0.63470  Biso   1.000  H
  H61      1.0000 0.03840  0.03020  0.56630  Biso   1.000  H
  H62      1.0000 0.15710  0.01260  0.52540  Biso   1.000  H
  H63      1.0000 0.18100  0.20220  0.47680  Biso   1.000  H
  H64      1.0000 0.06880  0.21860  0.52580  Biso   1.000  H
  H65      1.0000 0.50730  0.87460  0.39370  Biso   1.000  H
  H66      1.0000 0.44860  0.96940  0.38960  Biso   1.000  H
  H67      1.0000 0.33910  0.94360  0.50550  Biso   1.000  H
  H68      1.0000 0.38820  0.84560  0.50490  Biso   1.000  H
  H69      1.0000 0.43240  0.35520  0.36270  Biso   1.000  H
  H70      1.0000 0.36270  0.27400  0.41150  Biso   1.000  H
  H71      1.0000 0.46240  0.11880  0.34380  Biso   1.000  H
  H72      1.0000 0.51980  0.20040  0.29360  Biso   1.000  H
  H73      1.0000 0.25960  0.67660  0.42730  Biso   1.000  H
  H74      1.0000 0.13270  0.58680  0.37560  Biso   1.000  H
  H75      1.0000 0.33720  0.53740  0.30430  Biso   1.000  H
  H76      1.0000 0.45740  0.63340  0.35460  Biso   1.000  H
  H77      1.0000 0.66720  0.27900  0.23950  Biso   1.000  H
  H78      1.0000 0.82880  0.29620  0.23880  Biso   1.000  H
  H79      1.0000 0.89310  0.49340  0.33000  Biso   1.000  H
  H80      1.0000 0.73000  0.47140  0.33030  Biso   1.000  H
  H81      1.0000 0.30830  0.30700  0.16400  Biso   1.000  H
  H82      1.0000 0.27540  0.39080  0.21940  Biso   1.000  H
  H83      1.0000 0.98940  0.26140  0.18620  Biso   1.000  H
  H84      1.0000 0.02910  0.17840  0.13470  Biso   1.000  H
  H85      1.0000 0.99180  0.03020  0.06630  Biso   1.000  H
  H86      1.0000 0.85550  0.01260  0.02540  Biso   1.000  H
  H87      1.0000 0.02120  0.20220  0.97680  Biso   1.000  H
  H88      1.0000 0.14980  0.21860  0.02580  Biso   1.000  H
  H89      1.0000 0.36730  0.87460  0.89370  Biso   1.000  H
  H90      1.0000 0.52080  0.96940  0.88960  Biso   1.000  H
  H91      1.0000 0.60450  0.94360  0.00550  Biso   1.000  H
  H92      1.0000 0.45740  0.84560  0.00490  Biso   1.000  H
  H93      1.0000 0.92280  0.35520  0.86270  Biso   1.000  H
  H94      1.0000 0.91130  0.27400  0.91150  Biso   1.000  H
  H95      1.0000 0.65640  0.11880  0.84380  Biso   1.000  H
  H96      1.0000 0.68060  0.20040  0.79360  Biso   1.000  H
  C73      1.0000 0.37490  0.65000  0.90090  Biso   1.000  C
  C74      1.0000 0.39570  0.59460  0.87140  Biso   1.000  C
  C75      1.0000 0.32680  0.54980  0.83460  Biso   1.000  C
  C76      1.0000 0.24680  0.56620  0.82900  Biso   1.000  C
  C77      1.0000 0.23320  0.62400  0.85890  Biso   1.000  C
  C78      1.0000 0.33940  0.48340  0.80540  Biso   1.000  C
  C79      1.0000 0.42860  0.41340  0.78340  Biso   1.000  C
  C80      1.0000 0.28300  0.38280  0.74890  Biso   1.000  C
  C81      1.0000 0.61020  0.32480  0.75790  Biso   1.000  C
  C82      1.0000 0.52330  0.33340  0.75750  Biso   1.000  C
  C83      1.0000 0.52070  0.39820  0.78540  Biso   1.000  C
  C84      1.0000 0.60170  0.44800  0.81090  Biso   1.000  C
  C85      1.0000 0.68650  0.43640  0.81050  Biso   1.000  C
  C86      1.0000 0.05510  0.29680  0.66900  Biso   1.000  C
  C87      1.0000 0.12370  0.34640  0.70260  Biso   1.000  C
  C88      1.0000 0.20460  0.33220  0.71200  Biso   1.000  C
  C89      1.0000 0.21420  0.27080  0.68350  Biso   1.000  C
  C90      1.0000 0.14220  0.22320  0.65170  Biso   1.000  C
  C91      1.0000 0.07100  0.06820  0.54900  Biso   1.000  C
  C92      1.0000 0.14030  0.05580  0.52420  Biso   1.000  C
  C93      1.0000 0.18510  0.10660  0.49780  Biso   1.000  C
  C94      1.0000 0.15530  0.16740  0.49660  Biso   1.000  C
  C95      1.0000 0.08650  0.17520  0.52530  Biso   1.000  C
  C96      1.0000 0.26180  0.09700  0.46930  Biso   1.000  C
  C97      1.0000 0.36050  0.03460  0.44550  Biso   1.000  C
  C98      1.0000 0.36460  0.13460  0.41510  Biso   1.000  C
  C99      1.0000 0.46850  0.88640  0.41600  Biso   1.000  C
  C100     1.0000 0.43790  0.94540  0.41470  Biso   1.000  C
  C101     1.0000 0.39230  0.96980  0.44850  Biso   1.000  C
  C102     1.0000 0.37300  0.92980  0.48140  Biso   1.000  C
  C103     1.0000 0.40100  0.87100  0.48030  Biso   1.000  C
  C104     1.0000 0.43640  0.30540  0.35840  Biso   1.000  C
  C105     1.0000 0.39570  0.25780  0.38780  Biso   1.000  C
  C106     1.0000 0.40300  0.18580  0.38270  Biso   1.000  C
  C107     1.0000 0.45300  0.16660  0.34760  Biso   1.000  C
  C108     1.0000 0.48890  0.21620  0.31830  Biso   1.000  C
  C109     1.0000 0.27510  0.65000  0.40090  Biso   1.000  C
  C110     1.0000 0.19890  0.59460  0.37140  Biso   1.000  C
  C111     1.0000 0.22300  0.54980  0.33460  Biso   1.000  C
  C112     1.0000 0.31940  0.56620  0.32900  Biso   1.000  C
  C113     1.0000 0.39080  0.62400  0.35890  Biso   1.000  C
  C114     1.0000 0.14400  0.48340  0.30540  Biso   1.000  C
  C115     1.0000 0.98480  0.41340  0.28340  Biso   1.000  C
  C116     1.0000 0.09980  0.38280  0.24890  Biso   1.000  C
  C117     1.0000 0.71460  0.32480  0.25790  Biso   1.000  C
  C118     1.0000 0.81010  0.33340  0.25750  Biso   1.000  C
  C119     1.0000 0.87750  0.39820  0.28540  Biso   1.000  C
  C120     1.0000 0.84630  0.44800  0.31090  Biso   1.000  C
  C121     1.0000 0.74990  0.43640  0.31050  Biso   1.000  C
  C122     1.0000 0.24170  0.29680  0.16900  Biso   1.000  C
  C123     1.0000 0.22270  0.34640  0.20260  Biso   1.000  C
  C124     1.0000 0.12760  0.33220  0.21200  Biso   1.000  C
  C125     1.0000 0.05660  0.27080  0.18350  Biso   1.000  C
  C126     1.0000 0.08100  0.22320  0.15170  Biso   1.000  C
  C127     1.0000 0.99720  0.06820  0.04900  Biso   1.000  C
  C128     1.0000 0.91550  0.05580  0.02420  Biso   1.000  C
  C129     1.0000 0.92150  0.10660  0.99780  Biso   1.000  C
  C130     1.0000 0.01210  0.16740  0.99660  Biso   1.000  C
  C131     1.0000 0.08870  0.17520  0.02530  Biso   1.000  C
  C132     1.0000 0.83520  0.09700  0.96930  Biso   1.000  C
  C133     1.0000 0.67410  0.03460  0.94550  Biso   1.000  C
  C134     1.0000 0.77000  0.13460  0.91510  Biso   1.000  C
  C135     1.0000 0.41790  0.88640  0.91600  Biso   1.000  C
  C136     1.0000 0.50750  0.94540  0.91470  Biso   1.000  C
  C137     1.0000 0.57750  0.96980  0.94850  Biso   1.000  C
  C138     1.0000 0.55680  0.92980  0.98140  Biso   1.000  C
  C139     1.0000 0.47000  0.87100  0.98030  Biso   1.000  C
  C140     1.0000 0.86900  0.30540  0.85840  Biso   1.000  C
  C141     1.0000 0.86210  0.25780  0.88780  Biso   1.000  C
  C142     1.0000 0.78280  0.18580  0.88270  Biso   1.000  C
  C143     1.0000 0.71360  0.16660  0.84760  Biso   1.000  C
  C144     1.0000 0.72730  0.21620  0.81830  Biso   1.000  C
  I13      1.0000 0.25632  0.69544  0.01195  Biso   1.000  I
  I14      1.0000 0.14304  0.77776  0.90549  Biso   1.000  I
  I15      1.0000 0.87186  0.03794  0.63383  Biso   1.000  I
  I16      1.0000 0.87294  0.22638  0.56072  Biso   1.000  I
  I17      1.0000 0.51115  0.47804  0.30226  Biso   1.000  I
  I18      1.0000 0.46242  0.26048  0.20065  Biso   1.000  I
  I19      1.0000 0.43912  0.69544  0.51195  Biso   1.000  I
  I20      1.0000 0.63472  0.77776  0.40549  Biso   1.000  I
  I21      1.0000 0.16608  0.03794  0.13383  Biso   1.000  I
  I22      1.0000 0.35344  0.22638  0.06072  Biso   1.000  I
  I23      1.0000 0.96689  0.47804  0.80226  Biso   1.000  I
  I24      1.0000 0.79806  0.26048  0.70065  Biso   1.000  I
  N25      1.0000 0.29730  0.66820  0.89410  Biso   1.000  N
  N26      1.0000 0.42100  0.47220  0.81200  Biso   1.000  N
  N27      1.0000 0.35650  0.36280  0.75200  Biso   1.000  N
  N28      1.0000 0.27100  0.44280  0.77350  Biso   1.000  N
  N29      1.0000 0.69220  0.37460  0.78160  Biso   1.000  N
  N30      1.0000 0.06330  0.23420  0.64270  Biso   1.000  N
  N31      1.0000 0.04410  0.12680  0.55170  Biso   1.000  N
  N32      1.0000 0.29430  0.04220  0.47400  Biso   1.000  N
  N33      1.0000 0.39690  0.07840  0.41600  Biso   1.000  N
  N34      1.0000 0.29670  0.14780  0.44150  Biso   1.000  N
  N35      1.0000 0.44530  0.84460  0.44820  Biso   1.000  N
  N36      1.0000 0.48200  0.28440  0.32330  Biso   1.000  N
  N37      1.0000 0.37090  0.66820  0.39410  Biso   1.000  N
  N38      1.0000 0.05120  0.47220  0.31200  Biso   1.000  N
  N39      1.0000 0.00630  0.36280  0.25200  Biso   1.000  N
  N40      1.0000 0.17180  0.44280  0.27350  Biso   1.000  N
  N41      1.0000 0.68240  0.37460  0.28160  Biso   1.000  N
  N42      1.0000 0.17090  0.23420  0.14270  Biso   1.000  N
  N43      1.0000 0.08270  0.12680  0.05170  Biso   1.000  N
  N44      1.0000 0.74790  0.04220  0.97400  Biso   1.000  N
  N45      1.0000 0.68150  0.07840  0.91600  Biso   1.000  N
  N46      1.0000 0.85110  0.14780  0.94150  Biso   1.000  N
  N47      1.0000 0.39930  0.84460  0.94820  Biso   1.000  N
  N48      1.0000 0.80240  0.28440  0.82330  Biso   1.000  N
