data_image0
_cell_length_a       8.158
_cell_length_b       17.418
_cell_length_c       17.558
_cell_angle_alpha    90
_cell_angle_beta     98.28
_cell_angle_gamma    90

_symmetry_space_group_name_H-M    P 1
_symmetry_int_tables_number       1

loop_
  _symmetry_equiv_pos_as_xyz
  'x, y, z'

loop_
  _atom_site_label
  _atom_site_occupancy
  _atom_site_fract_x
  _atom_site_fract_y
  _atom_site_fract_z
  _atom_site_thermal_displace_type
  _atom_site_B_iso_or_equiv
  _atom_site_type_symbol
  Zn1      1.0000 0.75419  0.30583  0.75174  Biso   1.000  Zn
  Zn2      1.0000 0.74581  0.80583  0.74826  Biso   1.000  Zn
  Zn3      1.0000 0.24581  0.69417  0.24826  Biso   1.000  Zn
  Zn4      1.0000 0.25419  0.19417  0.25174  Biso   1.000  Zn
  H1       1.0000 0.05090  0.27210  0.97470  Biso   1.000  H
  H2       1.0000 0.49420  0.33350  0.08630  Biso   1.000  H
  H3       1.0000 0.34910  0.40280  0.86830  Biso   1.000  H
  H4       1.0000 0.67470  0.43460  0.07840  Biso   1.000  H
  H5       1.0000 0.75100  0.36020  0.04710  Biso   1.000  H
  H6       1.0000 0.00590  0.43770  0.11540  Biso   1.000  H
  H7       1.0000 0.76860  0.49320  0.90880  Biso   1.000  H
  H8       1.0000 0.41440  0.24020  0.69470  Biso   1.000  H
  H9       1.0000 0.20070  0.17880  0.73860  Biso   1.000  H
  H10      1.0000 0.48240  0.16570  0.94590  Biso   1.000  H
  H11      1.0000 0.68470  0.23120  0.89620  Biso   1.000  H
  H12      1.0000 0.73080  0.09040  0.78240  Biso   1.000  H
  H13      1.0000 0.62770  0.96980  0.74730  Biso   1.000  H
  H14      1.0000 0.06580  0.87990  0.78890  Biso   1.000  H
  H15      1.0000 0.18220  0.99620  0.82730  Biso   1.000  H
  H16      1.0000 0.44910  0.77210  0.52530  Biso   1.000  H
  H17      1.0000 0.00580  0.83350  0.41370  Biso   1.000  H
  H18      1.0000 0.15090  0.90280  0.63170  Biso   1.000  H
  H19      1.0000 0.82530  0.93460  0.42160  Biso   1.000  H
  H20      1.0000 0.74900  0.86020  0.45290  Biso   1.000  H
  H21      1.0000 0.49410  0.93770  0.38460  Biso   1.000  H
  H22      1.0000 0.73140  0.99320  0.59120  Biso   1.000  H
  H23      1.0000 0.08560  0.74020  0.80530  Biso   1.000  H
  H24      1.0000 0.29930  0.67880  0.76140  Biso   1.000  H
  H25      1.0000 0.01760  0.66570  0.55410  Biso   1.000  H
  H26      1.0000 0.81530  0.73120  0.60380  Biso   1.000  H
  H27      1.0000 0.76920  0.59040  0.71760  Biso   1.000  H
  H28      1.0000 0.87230  0.46980  0.75270  Biso   1.000  H
  H29      1.0000 0.43420  0.37990  0.71110  Biso   1.000  H
  H30      1.0000 0.31780  0.49620  0.67270  Biso   1.000  H
  H31      1.0000 0.94910  0.72790  0.02530  Biso   1.000  H
  H32      1.0000 0.50580  0.66650  0.91370  Biso   1.000  H
  H33      1.0000 0.65090  0.59720  0.13170  Biso   1.000  H
  H34      1.0000 0.32530  0.56540  0.92160  Biso   1.000  H
  H35      1.0000 0.24900  0.63980  0.95290  Biso   1.000  H
  H36      1.0000 0.99410  0.56230  0.88460  Biso   1.000  H
  H37      1.0000 0.23140  0.50680  0.09120  Biso   1.000  H
  H38      1.0000 0.58560  0.75980  0.30530  Biso   1.000  H
  H39      1.0000 0.79930  0.82120  0.26140  Biso   1.000  H
  H40      1.0000 0.51760  0.83430  0.05410  Biso   1.000  H
  H41      1.0000 0.31530  0.76880  0.10380  Biso   1.000  H
  H42      1.0000 0.26920  0.90960  0.21760  Biso   1.000  H
  H43      1.0000 0.37230  0.03020  0.25270  Biso   1.000  H
  H44      1.0000 0.93420  0.12010  0.21110  Biso   1.000  H
  H45      1.0000 0.81780  0.00380  0.17270  Biso   1.000  H
  H46      1.0000 0.55090  0.22790  0.47470  Biso   1.000  H
  H47      1.0000 0.99420  0.16650  0.58630  Biso   1.000  H
  H48      1.0000 0.84910  0.09720  0.36830  Biso   1.000  H
  H49      1.0000 0.17470  0.06540  0.57840  Biso   1.000  H
  H50      1.0000 0.25100  0.13980  0.54710  Biso   1.000  H
  H51      1.0000 0.50590  0.06230  0.61540  Biso   1.000  H
  H52      1.0000 0.26860  0.00680  0.40880  Biso   1.000  H
  H53      1.0000 0.91440  0.25980  0.19470  Biso   1.000  H
  H54      1.0000 0.70070  0.32120  0.23860  Biso   1.000  H
  H55      1.0000 0.98240  0.33430  0.44590  Biso   1.000  H
  H56      1.0000 0.18470  0.26880  0.39620  Biso   1.000  H
  H57      1.0000 0.23080  0.40960  0.28240  Biso   1.000  H
  H58      1.0000 0.12770  0.53020  0.24730  Biso   1.000  H
  H59      1.0000 0.56580  0.62010  0.28890  Biso   1.000  H
  H60      1.0000 0.68220  0.50380  0.32730  Biso   1.000  H
  C1       1.0000 0.05700  0.33860  0.83960  Biso   1.000  C
  C2       1.0000 0.18080  0.33720  0.91150  Biso   1.000  C
  C3       1.0000 0.15090  0.29780  0.97520  Biso   1.000  C
  C4       1.0000 0.26830  0.29560  0.04040  Biso   1.000  C
  C5       1.0000 0.23120  0.25280  0.11080  Biso   1.000  C
  C6       1.0000 0.41620  0.33390  0.04210  Biso   1.000  C
  C7       1.0000 0.44730  0.37320  0.97680  Biso   1.000  C
  C8       1.0000 0.32890  0.37560  0.91150  Biso   1.000  C
  C9       1.0000 0.71650  0.41240  0.03430  Biso   1.000  C
  C10      1.0000 0.86280  0.45870  0.01580  Biso   1.000  C
  C11      1.0000 0.00250  0.46310  0.06850  Biso   1.000  C
  C12      1.0000 0.86180  0.49600  0.94600  Biso   1.000  C
  C13      1.0000 0.42670  0.22600  0.74620  Biso   1.000  C
  C14      1.0000 0.29770  0.18870  0.77190  Biso   1.000  C
  C15      1.0000 0.31350  0.16580  0.84860  Biso   1.000  C
  C16      1.0000 0.46460  0.18150  0.89480  Biso   1.000  C
  C17      1.0000 0.58630  0.22030  0.86430  Biso   1.000  C
  C18      1.0000 0.97140  0.05700  0.81130  Biso   1.000  C
  C19      1.0000 0.80160  0.04830  0.78540  Biso   1.000  C
  C20      1.0000 0.74050  0.97510  0.76400  Biso   1.000  C
  C21      1.0000 0.99760  0.92270  0.78880  Biso   1.000  C
  C22      1.0000 0.06860  0.99270  0.81170  Biso   1.000  C
  C23      1.0000 0.44300  0.83860  0.66040  Biso   1.000  C
  C24      1.0000 0.31920  0.83720  0.58850  Biso   1.000  C
  C25      1.0000 0.34910  0.79780  0.52480  Biso   1.000  C
  C26      1.0000 0.23170  0.79560  0.45960  Biso   1.000  C
  C27      1.0000 0.26880  0.75280  0.38920  Biso   1.000  C
  C28      1.0000 0.08380  0.83390  0.45790  Biso   1.000  C
  C29      1.0000 0.05270  0.87320  0.52320  Biso   1.000  C
  C30      1.0000 0.17110  0.87560  0.58850  Biso   1.000  C
  C31      1.0000 0.78350  0.91240  0.46570  Biso   1.000  C
  C32      1.0000 0.63720  0.95870  0.48420  Biso   1.000  C
  C33      1.0000 0.49750  0.96310  0.43150  Biso   1.000  C
  C34      1.0000 0.63820  0.99600  0.55400  Biso   1.000  C
  C35      1.0000 0.07330  0.72600  0.75380  Biso   1.000  C
  C36      1.0000 0.20230  0.68870  0.72810  Biso   1.000  C
  C37      1.0000 0.18650  0.66580  0.65140  Biso   1.000  C
  C38      1.0000 0.03540  0.68150  0.60520  Biso   1.000  C
  C39      1.0000 0.91370  0.72030  0.63570  Biso   1.000  C
  C40      1.0000 0.52860  0.55700  0.68870  Biso   1.000  C
  C41      1.0000 0.69840  0.54830  0.71460  Biso   1.000  C
  C42      1.0000 0.75950  0.47510  0.73600  Biso   1.000  C
  C43      1.0000 0.50240  0.42270  0.71120  Biso   1.000  C
  C44      1.0000 0.43140  0.49270  0.68830  Biso   1.000  C
  C45      1.0000 0.94300  0.66140  0.16040  Biso   1.000  C
  C46      1.0000 0.81920  0.66280  0.08850  Biso   1.000  C
  C47      1.0000 0.84910  0.70220  0.02480  Biso   1.000  C
  C48      1.0000 0.73170  0.70440  0.95960  Biso   1.000  C
  C49      1.0000 0.76880  0.74720  0.88920  Biso   1.000  C
  C50      1.0000 0.58380  0.66610  0.95790  Biso   1.000  C
  C51      1.0000 0.55270  0.62680  0.02320  Biso   1.000  C
  C52      1.0000 0.67110  0.62440  0.08850  Biso   1.000  C
  C53      1.0000 0.28350  0.58760  0.96570  Biso   1.000  C
  C54      1.0000 0.13720  0.54130  0.98420  Biso   1.000  C
  C55      1.0000 0.99750  0.53690  0.93150  Biso   1.000  C
  C56      1.0000 0.13820  0.50400  0.05400  Biso   1.000  C
  C57      1.0000 0.57330  0.77400  0.25380  Biso   1.000  C
  C58      1.0000 0.70230  0.81130  0.22810  Biso   1.000  C
  C59      1.0000 0.68650  0.83420  0.15140  Biso   1.000  C
  C60      1.0000 0.53540  0.81850  0.10520  Biso   1.000  C
  C61      1.0000 0.41370  0.77970  0.13570  Biso   1.000  C
  C62      1.0000 0.02860  0.94300  0.18870  Biso   1.000  C
  C63      1.0000 0.19840  0.95170  0.21460  Biso   1.000  C
  C64      1.0000 0.25950  0.02490  0.23600  Biso   1.000  C
  C65      1.0000 0.00240  0.07730  0.21120  Biso   1.000  C
  C66      1.0000 0.93140  0.00730  0.18830  Biso   1.000  C
  C67      1.0000 0.55700  0.16140  0.33960  Biso   1.000  C
  C68      1.0000 0.68080  0.16280  0.41150  Biso   1.000  C
  C69      1.0000 0.65090  0.20220  0.47520  Biso   1.000  C
  C70      1.0000 0.76830  0.20440  0.54040  Biso   1.000  C
  C71      1.0000 0.73120  0.24720  0.61080  Biso   1.000  C
  C72      1.0000 0.91620  0.16610  0.54210  Biso   1.000  C
  C73      1.0000 0.94730  0.12680  0.47680  Biso   1.000  C
  C74      1.0000 0.82890  0.12440  0.41150  Biso   1.000  C
  C75      1.0000 0.21650  0.08760  0.53430  Biso   1.000  C
  C76      1.0000 0.36280  0.04130  0.51580  Biso   1.000  C
  C77      1.0000 0.50250  0.03690  0.56850  Biso   1.000  C
  C78      1.0000 0.36180  0.00400  0.44600  Biso   1.000  C
  C79      1.0000 0.92670  0.27400  0.24620  Biso   1.000  C
  C80      1.0000 0.79770  0.31130  0.27190  Biso   1.000  C
  C81      1.0000 0.81350  0.33420  0.34860  Biso   1.000  C
  C82      1.0000 0.96460  0.31850  0.39480  Biso   1.000  C
  C83      1.0000 0.08630  0.27970  0.36430  Biso   1.000  C
  C84      1.0000 0.47140  0.44300  0.31130  Biso   1.000  C
  C85      1.0000 0.30160  0.45170  0.28540  Biso   1.000  C
  C86      1.0000 0.24050  0.52490  0.26400  Biso   1.000  C
  C87      1.0000 0.49760  0.57730  0.28880  Biso   1.000  C
  C88      1.0000 0.56860  0.50730  0.31170  Biso   1.000  C
  N1       1.0000 0.57030  0.24340  0.79060  Biso   1.000  N
  N2       1.0000 0.18960  0.12930  0.87930  Biso   1.000  N
  N3       1.0000 0.03290  0.12680  0.83670  Biso   1.000  N
  N4       1.0000 0.83280  0.91410  0.76640  Biso   1.000  N
  N5       1.0000 0.92970  0.74340  0.70940  Biso   1.000  N
  N6       1.0000 0.31040  0.62930  0.62070  Biso   1.000  N
  N7       1.0000 0.46710  0.62680  0.66330  Biso   1.000  N
  N8       1.0000 0.66720  0.41410  0.73360  Biso   1.000  N
  N9       1.0000 0.42970  0.75660  0.20940  Biso   1.000  N
  N10      1.0000 0.81040  0.87070  0.12070  Biso   1.000  N
  N11      1.0000 0.96710  0.87320  0.16330  Biso   1.000  N
  N12      1.0000 0.16720  0.08590  0.23360  Biso   1.000  N
  N13      1.0000 0.07030  0.25660  0.29060  Biso   1.000  N
  N14      1.0000 0.68960  0.37070  0.37930  Biso   1.000  N
  N15      1.0000 0.53290  0.37320  0.33670  Biso   1.000  N
  N16      1.0000 0.33280  0.58590  0.26640  Biso   1.000  N
  O1       1.0000 0.92670  0.29600  0.84070  Biso   1.000  O
  O2       1.0000 0.08030  0.37760  0.78370  Biso   1.000  O
  O3       1.0000 0.09610  0.21890  0.10980  Biso   1.000  O
  O4       1.0000 0.33970  0.25320  0.16990  Biso   1.000  O
  O5       1.0000 0.59050  0.41230  0.97030  Biso   1.000  O
  O6       1.0000 0.57330  0.79600  0.65930  Biso   1.000  O
  O7       1.0000 0.41970  0.87760  0.71630  Biso   1.000  O
  O8       1.0000 0.40390  0.71890  0.39020  Biso   1.000  O
  O9       1.0000 0.16030  0.75320  0.33010  Biso   1.000  O
  O10      1.0000 0.90950  0.91230  0.52970  Biso   1.000  O
  O11      1.0000 0.07330  0.70400  0.15930  Biso   1.000  O
  O12      1.0000 0.91970  0.62240  0.21630  Biso   1.000  O
  O13      1.0000 0.90390  0.78110  0.89020  Biso   1.000  O
  O14      1.0000 0.66030  0.74680  0.83010  Biso   1.000  O
  O15      1.0000 0.40950  0.58770  0.02970  Biso   1.000  O
  O16      1.0000 0.42670  0.20400  0.34070  Biso   1.000  O
  O17      1.0000 0.58030  0.12240  0.28370  Biso   1.000  O
  O18      1.0000 0.59610  0.28110  0.60980  Biso   1.000  O
  O19      1.0000 0.83970  0.24680  0.66990  Biso   1.000  O
  O20      1.0000 0.09050  0.08770  0.47030  Biso   1.000  O
