data_image0
_cell_length_a       12.262
_cell_length_b       13.572
_cell_length_c       24.934
_cell_angle_alpha    90
_cell_angle_beta     90
_cell_angle_gamma    90

_symmetry_space_group_name_H-M    "P 1"
_symmetry_int_tables_number       1

loop_
  _symmetry_equiv_pos_as_xyz
  'x, y, z'

loop_
  _atom_site_label
  _atom_site_occupancy
  _atom_site_fract_x
  _atom_site_fract_y
  _atom_site_fract_z
  _atom_site_thermal_displace_type
  _atom_site_B_iso_or_equiv
  _atom_site_type_symbol
  O1       1.0000 0.61160  0.91750  0.73070  Biso   1.000  O
  O2       1.0000 0.60030  0.00650  0.80270  Biso   1.000  O
  O3       1.0000 0.86060  0.95820  0.94960  Biso   1.000  O
  O4       1.0000 0.00260  0.87530  0.93297  Biso   1.000  O
  O5       1.0000 0.02790  0.14910  0.55333  Biso   1.000  O
  O6       1.0000 0.88150  0.07110  0.54690  Biso   1.000  O
  O7       1.0000 0.58230  0.12420  0.67540  Biso   1.000  O
  O8       1.0000 0.62360  0.21230  0.75700  Biso   1.000  O
  O9       1.0000 0.87660  0.65870  0.77370  Biso   1.000  O
  O10      1.0000 0.95070  0.41460  0.68710  Biso   1.000  O
  C1       1.0000 0.77510  0.90510  0.84920  Biso   1.000  C
  H1       1.0000 0.74790  0.96100  0.86610  Biso   1.000  H
  C2       1.0000 0.85500  0.85540  0.87170  Biso   1.000  C
  C3       1.0000 0.89350  0.76820  0.84890  Biso   1.000  C
  H2       1.0000 0.95030  0.73380  0.86510  Biso   1.000  H
  C4       1.0000 0.84790  0.73370  0.80310  Biso   1.000  C
  C5       1.0000 0.76490  0.79330  0.77860  Biso   1.000  C
  H3       1.0000 0.73420  0.77350  0.74630  Biso   1.000  H
  C6       1.0000 0.73150  0.87600  0.80160  Biso   1.000  C
  C7       1.0000 0.64290  0.96110  0.77940  Biso   1.000  C
  C8       1.0000 0.91120  0.89370  0.92040  Biso   1.000  C
  C9       1.0000 0.89270  0.34410  0.67280  Biso   1.000  C
  C10      1.0000 0.93660  0.28340  0.62630  Biso   1.000  C
  H4       1.0000 0.00350  0.30020  0.61130  Biso   1.000  H
  C11      1.0000 0.88000  0.20410  0.60570  Biso   1.000  C
  C12      1.0000 0.77570  0.17840  0.62420  Biso   1.000  C
  H5       1.0000 0.73140  0.13470  0.60550  Biso   1.000  H
  C13      1.0000 0.74260  0.22090  0.67100  Biso   1.000  C
  C14      1.0000 0.79720  0.31180  0.69350  Biso   1.000  C
  H6       1.0000 0.76490  0.34580  0.72180  Biso   1.000  H
  C15      1.0000 0.92190  0.13400  0.56210  Biso   1.000  C
  C16      1.0000 0.64740  0.18100  0.70100  Biso   1.000  C
  C17      1.0000 0.96480  0.60050  0.79580  Biso   1.000  C
  H7       1.0000 0.94060  0.56520  0.82740  Biso   1.000  H
  H8       1.0000 0.02560  0.64250  0.80560  Biso   1.000  H
  C18      1.0000 0.90590  0.46690  0.73070  Biso   1.000  C
  H9       1.0000 0.87950  0.42240  0.75820  Biso   1.000  H
  H10      1.0000 0.84660  0.50930  0.71920  Biso   1.000  H
  O11      1.0000 0.38840  0.08250  0.23070  Biso   1.000  O
  O12      1.0000 0.39970  0.99350  0.30270  Biso   1.000  O
  O13      1.0000 0.13940  0.04180  0.44960  Biso   1.000  O
  O14      1.0000 0.99740  0.12470  0.43297  Biso   1.000  O
  O15      1.0000 0.97210  0.85090  0.05333  Biso   1.000  O
  O16      1.0000 0.11850  0.92890  0.04690  Biso   1.000  O
  O17      1.0000 0.41770  0.87580  0.17540  Biso   1.000  O
  O18      1.0000 0.37640  0.78770  0.25700  Biso   1.000  O
  O19      1.0000 0.12340  0.34130  0.27370  Biso   1.000  O
  O20      1.0000 0.04930  0.58540  0.18710  Biso   1.000  O
  C19      1.0000 0.22490  0.09490  0.34920  Biso   1.000  C
  H11      1.0000 0.25210  0.03900  0.36610  Biso   1.000  H
  C20      1.0000 0.14500  0.14460  0.37170  Biso   1.000  C
  C21      1.0000 0.10650  0.23180  0.34890  Biso   1.000  C
  H12      1.0000 0.04970  0.26620  0.36510  Biso   1.000  H
  C22      1.0000 0.15210  0.26630  0.30310  Biso   1.000  C
  C23      1.0000 0.23510  0.20670  0.27860  Biso   1.000  C
  H13      1.0000 0.26580  0.22650  0.24630  Biso   1.000  H
  C24      1.0000 0.26850  0.12400  0.30160  Biso   1.000  C
  C25      1.0000 0.35710  0.03890  0.27940  Biso   1.000  C
  C26      1.0000 0.08880  0.10630  0.42040  Biso   1.000  C
  C27      1.0000 0.10730  0.65590  0.17280  Biso   1.000  C
  C28      1.0000 0.06340  0.71660  0.12630  Biso   1.000  C
  H14      1.0000 0.99650  0.69980  0.11130  Biso   1.000  H
  C29      1.0000 0.12000  0.79590  0.10570  Biso   1.000  C
  C30      1.0000 0.22430  0.82160  0.12420  Biso   1.000  C
  H15      1.0000 0.26860  0.86530  0.10550  Biso   1.000  H
  C31      1.0000 0.25740  0.77910  0.17100  Biso   1.000  C
  C32      1.0000 0.20280  0.68820  0.19350  Biso   1.000  C
  H16      1.0000 0.23510  0.65420  0.22180  Biso   1.000  H
  C33      1.0000 0.07810  0.86600  0.06210  Biso   1.000  C
  C34      1.0000 0.35260  0.81900  0.20100  Biso   1.000  C
  C35      1.0000 0.03520  0.39950  0.29580  Biso   1.000  C
  H17      1.0000 0.05940  0.43480  0.32740  Biso   1.000  H
  H18      1.0000 0.97440  0.35750  0.30560  Biso   1.000  H
  C36      1.0000 0.09410  0.53310  0.23070  Biso   1.000  C
  H19      1.0000 0.12050  0.57760  0.25820  Biso   1.000  H
  H20      1.0000 0.15340  0.49070  0.21920  Biso   1.000  H
  O21      1.0000 0.38840  0.91750  0.76930  Biso   1.000  O
  O22      1.0000 0.39970  0.00650  0.69730  Biso   1.000  O
  O23      1.0000 0.13940  0.95820  0.55040  Biso   1.000  O
  O24      1.0000 0.99740  0.87530  0.56703  Biso   1.000  O
  O25      1.0000 0.97210  0.14910  0.94667  Biso   1.000  O
  O26      1.0000 0.11850  0.07110  0.95310  Biso   1.000  O
  O27      1.0000 0.41770  0.12420  0.82460  Biso   1.000  O
  O28      1.0000 0.37640  0.21230  0.74300  Biso   1.000  O
  O29      1.0000 0.12340  0.65870  0.72630  Biso   1.000  O
  O30      1.0000 0.04930  0.41460  0.81290  Biso   1.000  O
  C37      1.0000 0.22490  0.90510  0.65080  Biso   1.000  C
  H21      1.0000 0.25210  0.96100  0.63390  Biso   1.000  H
  C38      1.0000 0.14500  0.85540  0.62830  Biso   1.000  C
  C39      1.0000 0.10650  0.76820  0.65110  Biso   1.000  C
  H22      1.0000 0.04970  0.73380  0.63490  Biso   1.000  H
  C40      1.0000 0.15210  0.73370  0.69690  Biso   1.000  C
  C41      1.0000 0.23510  0.79330  0.72140  Biso   1.000  C
  H23      1.0000 0.26580  0.77350  0.75370  Biso   1.000  H
  C42      1.0000 0.26850  0.87600  0.69840  Biso   1.000  C
  C43      1.0000 0.35710  0.96110  0.72060  Biso   1.000  C
  C44      1.0000 0.08880  0.89370  0.57960  Biso   1.000  C
  C45      1.0000 0.10730  0.34410  0.82720  Biso   1.000  C
  C46      1.0000 0.06340  0.28340  0.87370  Biso   1.000  C
  H24      1.0000 0.99650  0.30020  0.88870  Biso   1.000  H
  C47      1.0000 0.12000  0.20410  0.89430  Biso   1.000  C
  C48      1.0000 0.22430  0.17840  0.87580  Biso   1.000  C
  H25      1.0000 0.26860  0.13470  0.89450  Biso   1.000  H
  C49      1.0000 0.25740  0.22090  0.82900  Biso   1.000  C
  C50      1.0000 0.20280  0.31180  0.80650  Biso   1.000  C
  H26      1.0000 0.23510  0.34580  0.77820  Biso   1.000  H
  C51      1.0000 0.07810  0.13400  0.93790  Biso   1.000  C
  C52      1.0000 0.35260  0.18100  0.79900  Biso   1.000  C
  C53      1.0000 0.03520  0.60050  0.70420  Biso   1.000  C
  H27      1.0000 0.05940  0.56520  0.67260  Biso   1.000  H
  H28      1.0000 0.97440  0.64250  0.69440  Biso   1.000  H
  C54      1.0000 0.09410  0.46690  0.76930  Biso   1.000  C
  H29      1.0000 0.12050  0.42240  0.74180  Biso   1.000  H
  H30      1.0000 0.15340  0.50930  0.78080  Biso   1.000  H
  O31      1.0000 0.61160  0.08250  0.26930  Biso   1.000  O
  O32      1.0000 0.60030  0.99350  0.19730  Biso   1.000  O
  O33      1.0000 0.86060  0.04180  0.05040  Biso   1.000  O
  O34      1.0000 0.00260  0.12470  0.06703  Biso   1.000  O
  O35      1.0000 0.02790  0.85090  0.44667  Biso   1.000  O
  O36      1.0000 0.88150  0.92890  0.45310  Biso   1.000  O
  O37      1.0000 0.58230  0.87580  0.32460  Biso   1.000  O
  O38      1.0000 0.62360  0.78770  0.24300  Biso   1.000  O
  O39      1.0000 0.87660  0.34130  0.22630  Biso   1.000  O
  O40      1.0000 0.95070  0.58540  0.31290  Biso   1.000  O
  C55      1.0000 0.77510  0.09490  0.15080  Biso   1.000  C
  H31      1.0000 0.74790  0.03900  0.13390  Biso   1.000  H
  C56      1.0000 0.85500  0.14460  0.12830  Biso   1.000  C
  C57      1.0000 0.89350  0.23180  0.15110  Biso   1.000  C
  H32      1.0000 0.95030  0.26620  0.13490  Biso   1.000  H
  C58      1.0000 0.84790  0.26630  0.19690  Biso   1.000  C
  C59      1.0000 0.76490  0.20670  0.22140  Biso   1.000  C
  H33      1.0000 0.73420  0.22650  0.25370  Biso   1.000  H
  C60      1.0000 0.73150  0.12400  0.19840  Biso   1.000  C
  C61      1.0000 0.64290  0.03890  0.22060  Biso   1.000  C
  C62      1.0000 0.91120  0.10630  0.07960  Biso   1.000  C
  C63      1.0000 0.89270  0.65590  0.32720  Biso   1.000  C
  C64      1.0000 0.93660  0.71660  0.37370  Biso   1.000  C
  H34      1.0000 0.00350  0.69980  0.38870  Biso   1.000  H
  C65      1.0000 0.88000  0.79590  0.39430  Biso   1.000  C
  C66      1.0000 0.77570  0.82160  0.37580  Biso   1.000  C
  H35      1.0000 0.73140  0.86530  0.39450  Biso   1.000  H
  C67      1.0000 0.74260  0.77910  0.32900  Biso   1.000  C
  C68      1.0000 0.79720  0.68820  0.30650  Biso   1.000  C
  H36      1.0000 0.76490  0.65420  0.27820  Biso   1.000  H
  C69      1.0000 0.92190  0.86600  0.43790  Biso   1.000  C
  C70      1.0000 0.64740  0.81900  0.29900  Biso   1.000  C
  C71      1.0000 0.96480  0.39950  0.20420  Biso   1.000  C
  H37      1.0000 0.94060  0.43480  0.17260  Biso   1.000  H
  H38      1.0000 0.02560  0.35750  0.19440  Biso   1.000  H
  C72      1.0000 0.90590  0.53310  0.26930  Biso   1.000  C
  H39      1.0000 0.87950  0.57760  0.24180  Biso   1.000  H
  H40      1.0000 0.84660  0.49070  0.28080  Biso   1.000  H
  In1      1.0000 0.50000  0.08757  0.75000  Biso   1.000  In
  In2      1.0000 0.50000  0.91243  0.25000  Biso   1.000  In
  In3      1.0000 0.99413  0.00000  0.00000  Biso   1.000  In
  In4      1.0000 0.00587  0.00000  0.50000  Biso   1.000  In
  C73      1.0000 0.00000  0.52530  0.75000  Biso   1.000  C
  C74      1.0000 0.00000  0.47470  0.25000  Biso   1.000  C
