data_image0
_cell_length_a       11.4581
_cell_length_b       11.6819
_cell_length_c       11.8696
_cell_angle_alpha    64.132
_cell_angle_beta     81.202
_cell_angle_gamma    72.663

_symmetry_space_group_name_H-M    P 1
_symmetry_int_tables_number       1

loop_
  _symmetry_equiv_pos_as_xyz
  'x, y, z'

loop_
  _atom_site_label
  _atom_site_occupancy
  _atom_site_fract_x
  _atom_site_fract_y
  _atom_site_fract_z
  _atom_site_thermal_displace_type
  _atom_site_B_iso_or_equiv
  _atom_site_type_symbol
  Zn1      1.0000 0.00000  0.00000  0.50000  Biso   1.000  Zn
  Zn2      1.0000 0.00000  0.50000  0.50000  Biso   1.000  Zn
  Zn3      1.0000 0.00000  0.00000  0.00000  Biso   1.000  Zn
  H1       1.0000 0.77980  0.99930  0.68800  Biso   1.000  H
  H2       1.0000 0.64010  0.40190  0.36740  Biso   1.000  H
  H3       1.0000 0.58190  0.11710  0.69960  Biso   1.000  H
  H4       1.0000 0.20840  0.37220  0.69980  Biso   1.000  H
  H5       1.0000 0.83640  0.27620  0.36620  Biso   1.000  H
  H6       1.0000 0.41630  0.27710  0.71480  Biso   1.000  H
  H7       1.0000 0.44170  0.44190  0.33910  Biso   1.000  H
  H8       1.0000 0.23380  0.52980  0.33630  Biso   1.000  H
  H9       1.0000 0.53960  0.19440  0.95140  Biso   1.000  H
  H10      1.0000 0.84110  0.81370  0.03160  Biso   1.000  H
  H11      1.0000 0.64390  0.80770  0.03470  Biso   1.000  H
  H12      1.0000 0.74040  0.19000  0.94570  Biso   1.000  H
  H13      1.0000 0.22020  0.00070  0.31200  Biso   1.000  H
  H14      1.0000 0.35990  0.59810  0.63260  Biso   1.000  H
  H15      1.0000 0.41810  0.88290  0.30040  Biso   1.000  H
  H16      1.0000 0.79160  0.62780  0.30020  Biso   1.000  H
  H17      1.0000 0.16360  0.72380  0.63380  Biso   1.000  H
  H18      1.0000 0.58370  0.72290  0.28520  Biso   1.000  H
  H19      1.0000 0.55830  0.55810  0.66090  Biso   1.000  H
  H20      1.0000 0.76620  0.47020  0.66370  Biso   1.000  H
  H21      1.0000 0.46040  0.80560  0.04860  Biso   1.000  H
  H22      1.0000 0.15890  0.18630  0.96840  Biso   1.000  H
  H23      1.0000 0.35610  0.19230  0.96530  Biso   1.000  H
  H24      1.0000 0.25960  0.81000  0.05430  Biso   1.000  H
  C1       1.0000 0.75080  0.08060  0.62230  Biso   1.000  C
  C2       1.0000 0.02330  0.22050  0.61950  Biso   1.000  C
  C3       1.0000 0.03960  0.96680  0.76660  Biso   1.000  C
  C4       1.0000 0.45330  0.34370  0.52750  Biso   1.000  C
  C5       1.0000 0.66570  0.31960  0.43300  Biso   1.000  C
  C6       1.0000 0.63130  0.15060  0.62980  Biso   1.000  C
  C7       1.0000 0.25580  0.38420  0.62660  Biso   1.000  C
  C8       1.0000 0.05150  0.24760  0.48390  Biso   1.000  C
  C9       1.0000 0.01960  0.11130  0.72980  Biso   1.000  C
  C10      1.0000 0.58540  0.27240  0.53140  Biso   1.000  C
  C11      1.0000 0.78400  0.24330  0.43310  Biso   1.000  C
  C12      1.0000 0.38120  0.32640  0.63660  Biso   1.000  C
  C13      1.0000 0.39630  0.42390  0.41390  Biso   1.000  C
  C14      1.0000 0.27090  0.47690  0.41320  Biso   1.000  C
  C15      1.0000 0.56560  0.00060  0.99670  Biso   1.000  C
  C16      1.0000 0.59920  0.11520  0.96840  Biso   1.000  C
  C17      1.0000 0.77950  0.89130  0.01520  Biso   1.000  C
  C18      1.0000 0.66090  0.88660  0.01830  Biso   1.000  C
  C19      1.0000 0.72030  0.11170  0.96550  Biso   1.000  C
  C20      1.0000 0.24920  0.91940  0.37770  Biso   1.000  C
  C21      1.0000 0.97670  0.77950  0.38050  Biso   1.000  C
  C22      1.0000 0.96040  0.03320  0.23340  Biso   1.000  C
  C23      1.0000 0.54670  0.65630  0.47250  Biso   1.000  C
  C24      1.0000 0.33430  0.68040  0.56700  Biso   1.000  C
  C25      1.0000 0.36870  0.84940  0.37020  Biso   1.000  C
  C26      1.0000 0.74420  0.61580  0.37340  Biso   1.000  C
  C27      1.0000 0.94850  0.75240  0.51610  Biso   1.000  C
  C28      1.0000 0.98040  0.88870  0.27020  Biso   1.000  C
  C29      1.0000 0.41460  0.72760  0.46860  Biso   1.000  C
  C30      1.0000 0.21600  0.75670  0.56690  Biso   1.000  C
  C31      1.0000 0.61880  0.67360  0.36340  Biso   1.000  C
  C32      1.0000 0.60370  0.57610  0.58610  Biso   1.000  C
  C33      1.0000 0.72910  0.52310  0.58680  Biso   1.000  C
  C34      1.0000 0.43440  0.99940  0.00330  Biso   1.000  C
  C35      1.0000 0.40080  0.88480  0.03160  Biso   1.000  C
  C36      1.0000 0.22050  0.10870  0.98480  Biso   1.000  C
  C37      1.0000 0.33910  0.11340  0.98170  Biso   1.000  C
  C38      1.0000 0.27970  0.88830  0.03450  Biso   1.000  C
  N1       1.0000 0.99680  0.32400  0.65050  Biso   1.000  N
  N2       1.0000 0.82680  0.12420  0.52510  Biso   1.000  N
  N3       1.0000 0.20040  0.45590  0.51720  Biso   1.000  N
  N4       1.0000 0.97660  0.28290  0.77350  Biso   1.000  N
  N5       1.0000 0.99070  0.15370  0.82250  Biso   1.000  N
  N6       1.0000 0.81130  0.00140  0.98980  Biso   1.000  N
  N7       1.0000 0.00320  0.67600  0.34950  Biso   1.000  N
  N8       1.0000 0.17320  0.87580  0.47490  Biso   1.000  N
  N9       1.0000 0.79960  0.54410  0.48280  Biso   1.000  N
  N10      1.0000 0.02340  0.71710  0.22650  Biso   1.000  N
  N11      1.0000 0.00930  0.84630  0.17750  Biso   1.000  N
  N12      1.0000 0.18870  0.99860  0.01020  Biso   1.000  N
  O1       1.0000 0.08360  0.15490  0.44960  Biso   1.000  O
  O2       1.0000 0.04370  0.36720  0.41150  Biso   1.000  O
  O3       1.0000 0.04360  0.92220  0.68830  Biso   1.000  O
  O4       1.0000 0.05210  0.89570  0.88350  Biso   1.000  O
  O5       1.0000 0.91640  0.84510  0.55040  Biso   1.000  O
  O6       1.0000 0.95630  0.63280  0.58850  Biso   1.000  O
  O7       1.0000 0.95640  0.07780  0.31170  Biso   1.000  O
  O8       1.0000 0.94790  0.10430  0.11650  Biso   1.000  O
