data_image0
_cell_length_a       12.1962
_cell_length_b       12.3675
_cell_length_c       12.8155
_cell_angle_alpha    90
_cell_angle_beta     91.428
_cell_angle_gamma    90

_symmetry_space_group_name_H-M    "P 1"
_symmetry_int_tables_number       1

loop_
  _symmetry_equiv_pos_as_xyz
  'x, y, z'

loop_
  _atom_site_label
  _atom_site_occupancy
  _atom_site_fract_x
  _atom_site_fract_y
  _atom_site_fract_z
  _atom_site_thermal_displace_type
  _atom_site_B_iso_or_equiv
  _atom_site_type_symbol
  C1       1.0000 0.24590  0.28245  0.26199  Biso   1.000  C
  C2       1.0000 0.72439  0.99767  0.01267  Biso   1.000  C
  C3       1.0000 0.23006  0.27129  0.75819  Biso   1.000  C
  C4       1.0000 0.78496  0.49548  0.97420  Biso   1.000  C
  C5       1.0000 0.98699  0.23116  0.04883  Biso   1.000  C
  C6       1.0000 0.48335  0.28929  0.00525  Biso   1.000  C
  H1       1.0000 0.48900  0.23700  0.06270  Biso   1.000  H
  H2       1.0000 0.98900  0.31000  0.07100  Biso   1.000  H
  H3       1.0000 0.18900  0.33900  0.26200  Biso   1.000  H
  H4       1.0000 0.28800  0.33000  0.76300  Biso   1.000  H
  H5       1.0000 0.73100  0.49200  0.91000  Biso   1.000  H
  H6       1.0000 0.78800  0.00100  0.06200  Biso   1.000  H
  Mn1      1.0000 0.23534  0.25497  0.01177  Biso   1.000  Mn
  Mn2      1.0000 0.73602  0.24709  0.01000  Biso   1.000  Mn
  O1       1.0000 0.19909  0.23455  0.84414  Biso   1.000  O
  O2       1.0000 0.57443  0.31667  0.96969  Biso   1.000  O
  O3       1.0000 0.89582  0.18502  0.04892  Biso   1.000  O
  O4       1.0000 0.07455  0.18937  0.02342  Biso   1.000  O
  O5       1.0000 0.27457  0.24117  0.34712  Biso   1.000  O
  O6       1.0000 0.83512  0.58315  0.99275  Biso   1.000  O
  O7       1.0000 0.39312  0.32397  0.97388  Biso   1.000  O
  O8       1.0000 0.67647  0.08408  0.99073  Biso   1.000  O
  O9       1.0000 0.19194  0.24098  0.67234  Biso   1.000  O
  O10      1.0000 0.69313  0.90642  0.97886  Biso   1.000  O
  O11      1.0000 0.28081  0.25435  0.17541  Biso   1.000  O
  O12      1.0000 0.79731  0.41199  0.02574  Biso   1.000  O
  C7       1.0000 0.25410  0.78245  0.23801  Biso   1.000  C
  C8       1.0000 0.77561  0.49767  0.48733  Biso   1.000  C
  C9       1.0000 0.26994  0.77129  0.74181  Biso   1.000  C
  C10      1.0000 0.71504  0.99548  0.52580  Biso   1.000  C
  C11      1.0000 0.51301  0.73116  0.45117  Biso   1.000  C
  C12      1.0000 0.01665  0.78929  0.49475  Biso   1.000  C
  H7       1.0000 0.01100  0.73700  0.43730  Biso   1.000  H
  H8       1.0000 0.51100  0.81000  0.42900  Biso   1.000  H
  H9       1.0000 0.31100  0.83900  0.23800  Biso   1.000  H
  H10      1.0000 0.21200  0.83000  0.73700  Biso   1.000  H
  H11      1.0000 0.76900  0.99200  0.59000  Biso   1.000  H
  H12      1.0000 0.71200  0.50100  0.43800  Biso   1.000  H
  Mn3      1.0000 0.26466  0.75497  0.48823  Biso   1.000  Mn
  Mn4      1.0000 0.76398  0.74709  0.49000  Biso   1.000  Mn
  O13      1.0000 0.30091  0.73455  0.65586  Biso   1.000  O
  O14      1.0000 0.92557  0.81667  0.53031  Biso   1.000  O
  O15      1.0000 0.60418  0.68502  0.45108  Biso   1.000  O
  O16      1.0000 0.42545  0.68937  0.47658  Biso   1.000  O
  O17      1.0000 0.22543  0.74117  0.15288  Biso   1.000  O
  O18      1.0000 0.66488  0.08315  0.50725  Biso   1.000  O
  O19      1.0000 0.10688  0.82397  0.52612  Biso   1.000  O
  O20      1.0000 0.82353  0.58408  0.50927  Biso   1.000  O
  O21      1.0000 0.30806  0.74098  0.82766  Biso   1.000  O
  O22      1.0000 0.80687  0.40642  0.52114  Biso   1.000  O
  O23      1.0000 0.21919  0.75435  0.32459  Biso   1.000  O
  O24      1.0000 0.70269  0.91199  0.47426  Biso   1.000  O
  C13      1.0000 0.75410  0.71755  0.73801  Biso   1.000  C
  C14      1.0000 0.27561  0.00233  0.98733  Biso   1.000  C
  C15      1.0000 0.76994  0.72871  0.24181  Biso   1.000  C
  C16      1.0000 0.21504  0.50452  0.02580  Biso   1.000  C
  C17      1.0000 0.01301  0.76884  0.95117  Biso   1.000  C
  C18      1.0000 0.51665  0.71071  0.99475  Biso   1.000  C
  H13      1.0000 0.51100  0.76300  0.93730  Biso   1.000  H
  H14      1.0000 0.01100  0.69000  0.92900  Biso   1.000  H
  H15      1.0000 0.81100  0.66100  0.73800  Biso   1.000  H
  H16      1.0000 0.71200  0.67000  0.23700  Biso   1.000  H
  H17      1.0000 0.26900  0.50800  0.09000  Biso   1.000  H
  H18      1.0000 0.21200  0.99900  0.93800  Biso   1.000  H
  Mn5      1.0000 0.76466  0.74503  0.98823  Biso   1.000  Mn
  Mn6      1.0000 0.26398  0.75291  0.99000  Biso   1.000  Mn
  O25      1.0000 0.80091  0.76545  0.15586  Biso   1.000  O
  O26      1.0000 0.42557  0.68333  0.03031  Biso   1.000  O
  O27      1.0000 0.10418  0.81498  0.95108  Biso   1.000  O
  O28      1.0000 0.92545  0.81063  0.97658  Biso   1.000  O
  O29      1.0000 0.72543  0.75883  0.65288  Biso   1.000  O
  O30      1.0000 0.16488  0.41685  0.00725  Biso   1.000  O
  O31      1.0000 0.60688  0.67603  0.02612  Biso   1.000  O
  O32      1.0000 0.32353  0.91592  0.00927  Biso   1.000  O
  O33      1.0000 0.80806  0.75902  0.32766  Biso   1.000  O
  O34      1.0000 0.30687  0.09358  0.02114  Biso   1.000  O
  O35      1.0000 0.71919  0.74565  0.82459  Biso   1.000  O
  O36      1.0000 0.20269  0.58801  0.97426  Biso   1.000  O
  C19      1.0000 0.74590  0.21755  0.76199  Biso   1.000  C
  C20      1.0000 0.22439  0.50233  0.51267  Biso   1.000  C
  C21      1.0000 0.73006  0.22871  0.25819  Biso   1.000  C
  C22      1.0000 0.28496  0.00452  0.47420  Biso   1.000  C
  C23      1.0000 0.48699  0.26884  0.54883  Biso   1.000  C
  C24      1.0000 0.98335  0.21071  0.50525  Biso   1.000  C
  H19      1.0000 0.98900  0.26300  0.56270  Biso   1.000  H
  H20      1.0000 0.48900  0.19000  0.57100  Biso   1.000  H
  H21      1.0000 0.68900  0.16100  0.76200  Biso   1.000  H
  H22      1.0000 0.78800  0.17000  0.26300  Biso   1.000  H
  H23      1.0000 0.23100  0.00800  0.41000  Biso   1.000  H
  H24      1.0000 0.28800  0.49900  0.56200  Biso   1.000  H
  Mn7      1.0000 0.73534  0.24503  0.51177  Biso   1.000  Mn
  Mn8      1.0000 0.23602  0.25291  0.51000  Biso   1.000  Mn
  O37      1.0000 0.69909  0.26545  0.34414  Biso   1.000  O
  O38      1.0000 0.07443  0.18333  0.46969  Biso   1.000  O
  O39      1.0000 0.39582  0.31498  0.54892  Biso   1.000  O
  O40      1.0000 0.57455  0.31063  0.52342  Biso   1.000  O
  O41      1.0000 0.77457  0.25883  0.84712  Biso   1.000  O
  O42      1.0000 0.33512  0.91685  0.49275  Biso   1.000  O
  O43      1.0000 0.89312  0.17603  0.47388  Biso   1.000  O
  O44      1.0000 0.17647  0.41592  0.49073  Biso   1.000  O
  O45      1.0000 0.69194  0.25902  0.17234  Biso   1.000  O
  O46      1.0000 0.19313  0.59358  0.47886  Biso   1.000  O
  O47      1.0000 0.78081  0.24565  0.67541  Biso   1.000  O
  O48      1.0000 0.29731  0.08801  0.52574  Biso   1.000  O
