data_image0
_cell_length_a       12.332
_cell_length_b       12.461
_cell_length_c       12.85
_cell_angle_alpha    90
_cell_angle_beta     91.31
_cell_angle_gamma    90

_symmetry_space_group_name_H-M    "P 1"
_symmetry_int_tables_number       1

loop_
  _symmetry_equiv_pos_as_xyz
  'x, y, z'

loop_
  _atom_site_label
  _atom_site_occupancy
  _atom_site_fract_x
  _atom_site_fract_y
  _atom_site_fract_z
  _atom_site_thermal_displace_type
  _atom_site_B_iso_or_equiv
  _atom_site_type_symbol
  Mn1      1.0000 0.23949  0.75287  0.00823  Biso   1.000  Mn
  Mn2      1.0000 0.73998  0.74768  0.00685  Biso   1.000  Mn
  C1       1.0000 0.48867  0.78333  0.00373  Biso   1.000  C
  H1       1.0000 0.49000  0.73080  0.05510  Biso   1.000  H
  C2       1.0000 0.99166  0.72988  0.04414  Biso   1.000  C
  H2       1.0000 0.99460  0.79930  0.07060  Biso   1.000  H
  C3       1.0000 0.24711  0.78100  0.25854  Biso   1.000  C
  H3       1.0000 0.19940  0.83880  0.25940  Biso   1.000  H
  C4       1.0000 0.73572  0.72935  0.25561  Biso   1.000  C
  H4       1.0000 0.78800  0.67550  0.25730  Biso   1.000  H
  C5       1.0000 0.78179  0.99722  0.97698  Biso   1.000  C
  H5       1.0000 0.72970  0.99680  0.92350  Biso   1.000  H
  C6       1.0000 0.72475  0.49882  0.01305  Biso   1.000  C
  H6       1.0000 0.78510  0.50060  0.05780  Biso   1.000  H
  O1       1.0000 0.07757  0.69195  0.01836  Biso   1.000  O
  O2       1.0000 0.27906  0.75159  0.17279  Biso   1.000  O
  O3       1.0000 0.39848  0.81763  0.97454  Biso   1.000  O
  O4       1.0000 0.57760  0.81345  0.96991  Biso   1.000  O
  O5       1.0000 0.79963  0.91219  0.02088  Biso   1.000  O
  O6       1.0000 0.68150  0.58561  0.99042  Biso   1.000  O
  O7       1.0000 0.70120  0.75907  0.17015  Biso   1.000  O
  O8       1.0000 0.27267  0.74094  0.34257  Biso   1.000  O
  O9       1.0000 0.90071  0.68830  0.03988  Biso   1.000  O
  O10      1.0000 0.69399  0.40918  0.98079  Biso   1.000  O
  O11      1.0000 0.70566  0.76626  0.34045  Biso   1.000  O
  O12      1.0000 0.82668  0.08493  0.99692  Biso   1.000  O
  Mn3      1.0000 0.26051  0.25287  0.49177  Biso   1.000  Mn
  Mn4      1.0000 0.76002  0.24768  0.49315  Biso   1.000  Mn
  C7       1.0000 0.01133  0.28333  0.49627  Biso   1.000  C
  H7       1.0000 0.01000  0.23080  0.44490  Biso   1.000  H
  C8       1.0000 0.50834  0.22988  0.45586  Biso   1.000  C
  H8       1.0000 0.50540  0.29930  0.42940  Biso   1.000  H
  C9       1.0000 0.25289  0.28100  0.24146  Biso   1.000  C
  H9       1.0000 0.30060  0.33880  0.24060  Biso   1.000  H
  C10      1.0000 0.76428  0.22935  0.24439  Biso   1.000  C
  H10      1.0000 0.71200  0.17550  0.24270  Biso   1.000  H
  C11      1.0000 0.71821  0.49722  0.52302  Biso   1.000  C
  H11      1.0000 0.77030  0.49680  0.57650  Biso   1.000  H
  C12      1.0000 0.77525  0.99882  0.48695  Biso   1.000  C
  H12      1.0000 0.71490  0.00060  0.44220  Biso   1.000  H
  O13      1.0000 0.42243  0.19195  0.48164  Biso   1.000  O
  O14      1.0000 0.22094  0.25159  0.32721  Biso   1.000  O
  O15      1.0000 0.10152  0.31763  0.52546  Biso   1.000  O
  O16      1.0000 0.92240  0.31345  0.53009  Biso   1.000  O
  O17      1.0000 0.70037  0.41219  0.47912  Biso   1.000  O
  O18      1.0000 0.81850  0.08561  0.50958  Biso   1.000  O
  O19      1.0000 0.79880  0.25907  0.32985  Biso   1.000  O
  O20      1.0000 0.22733  0.24094  0.15743  Biso   1.000  O
  O21      1.0000 0.59929  0.18830  0.46012  Biso   1.000  O
  O22      1.0000 0.80601  0.90918  0.51921  Biso   1.000  O
  O23      1.0000 0.79434  0.26626  0.15955  Biso   1.000  O
  O24      1.0000 0.67332  0.58493  0.50308  Biso   1.000  O
  Mn5      1.0000 0.76051  0.24713  0.99177  Biso   1.000  Mn
  Mn6      1.0000 0.26002  0.25232  0.99315  Biso   1.000  Mn
  C13      1.0000 0.51133  0.21667  0.99627  Biso   1.000  C
  H13      1.0000 0.51000  0.26920  0.94490  Biso   1.000  H
  C14      1.0000 0.00834  0.27012  0.95586  Biso   1.000  C
  H14      1.0000 0.00540  0.20070  0.92940  Biso   1.000  H
  C15      1.0000 0.75289  0.21900  0.74146  Biso   1.000  C
  H15      1.0000 0.80060  0.16120  0.74060  Biso   1.000  H
  C16      1.0000 0.26428  0.27065  0.74439  Biso   1.000  C
  H16      1.0000 0.21200  0.32450  0.74270  Biso   1.000  H
  C17      1.0000 0.21821  0.00278  0.02302  Biso   1.000  C
  H17      1.0000 0.27030  0.00320  0.07650  Biso   1.000  H
  C18      1.0000 0.27525  0.50118  0.98695  Biso   1.000  C
  H18      1.0000 0.21490  0.49940  0.94220  Biso   1.000  H
  O25      1.0000 0.92243  0.30805  0.98164  Biso   1.000  O
  O26      1.0000 0.72094  0.24841  0.82721  Biso   1.000  O
  O27      1.0000 0.60152  0.18237  0.02546  Biso   1.000  O
  O28      1.0000 0.42240  0.18655  0.03009  Biso   1.000  O
  O29      1.0000 0.20037  0.08781  0.97912  Biso   1.000  O
  O30      1.0000 0.31850  0.41439  0.00958  Biso   1.000  O
  O31      1.0000 0.29880  0.24093  0.82985  Biso   1.000  O
  O32      1.0000 0.72733  0.25906  0.65743  Biso   1.000  O
  O33      1.0000 0.09929  0.31170  0.96012  Biso   1.000  O
  O34      1.0000 0.30601  0.59082  0.01921  Biso   1.000  O
  O35      1.0000 0.29434  0.23374  0.65955  Biso   1.000  O
  O36      1.0000 0.17332  0.91507  0.00308  Biso   1.000  O
  Mn7      1.0000 0.73949  0.74713  0.50823  Biso   1.000  Mn
  Mn8      1.0000 0.23998  0.75232  0.50685  Biso   1.000  Mn
  C19      1.0000 0.98867  0.71667  0.50373  Biso   1.000  C
  H19      1.0000 0.99000  0.76920  0.55510  Biso   1.000  H
  C20      1.0000 0.49166  0.77012  0.54414  Biso   1.000  C
  H20      1.0000 0.49460  0.70070  0.57060  Biso   1.000  H
  C21      1.0000 0.74711  0.71900  0.75854  Biso   1.000  C
  H21      1.0000 0.69940  0.66120  0.75940  Biso   1.000  H
  C22      1.0000 0.23572  0.77065  0.75561  Biso   1.000  C
  H22      1.0000 0.28800  0.82450  0.75730  Biso   1.000  H
  C23      1.0000 0.28179  0.50278  0.47698  Biso   1.000  C
  H23      1.0000 0.22970  0.50320  0.42350  Biso   1.000  H
  C24      1.0000 0.22475  0.00118  0.51305  Biso   1.000  C
  H24      1.0000 0.28510  0.99940  0.55780  Biso   1.000  H
  O37      1.0000 0.57757  0.80805  0.51836  Biso   1.000  O
  O38      1.0000 0.77906  0.74841  0.67279  Biso   1.000  O
  O39      1.0000 0.89848  0.68237  0.47454  Biso   1.000  O
  O40      1.0000 0.07760  0.68655  0.46991  Biso   1.000  O
  O41      1.0000 0.29963  0.58781  0.52088  Biso   1.000  O
  O42      1.0000 0.18150  0.91439  0.49042  Biso   1.000  O
  O43      1.0000 0.20120  0.74093  0.67015  Biso   1.000  O
  O44      1.0000 0.77267  0.75906  0.84257  Biso   1.000  O
  O45      1.0000 0.40071  0.81170  0.53988  Biso   1.000  O
  O46      1.0000 0.19399  0.09082  0.48079  Biso   1.000  O
  O47      1.0000 0.20566  0.73374  0.84045  Biso   1.000  O
  O48      1.0000 0.32668  0.41507  0.49692  Biso   1.000  O
