data_image0
_cell_length_a       11.3457
_cell_length_b       11.468
_cell_length_c       18.2077
_cell_angle_alpha    97.5296
_cell_angle_beta     90
_cell_angle_gamma    90

_symmetry_space_group_name_H-M    P 1
_symmetry_int_tables_number       1

loop_
  _symmetry_equiv_pos_as_xyz
  'x, y, z'

loop_
  _atom_site_label
  _atom_site_occupancy
  _atom_site_fract_x
  _atom_site_fract_y
  _atom_site_fract_z
  _atom_site_thermal_displace_type
  _atom_site_B_iso_or_equiv
  _atom_site_type_symbol
  Co1      1.0000 0.50000  0.00000  0.00000  Biso   1.000  Co
  Co2      1.0000 0.50000  0.50000  0.50000  Biso   1.000  Co
  Co3      1.0000 0.24810  0.75000  0.75000  Biso   1.000  Co
  Co4      1.0000 0.75190  0.25000  0.25000  Biso   1.000  Co
  H1       1.0000 0.55450  0.96090  0.83480  Biso   1.000  H
  H2       1.0000 0.65820  0.66980  0.84170  Biso   1.000  H
  H3       1.0000 0.45590  0.66740  0.83690  Biso   1.000  H
  H4       1.0000 0.56750  0.05620  0.73180  Biso   1.000  H
  H5       1.0000 0.21510  0.56160  0.85790  Biso   1.000  H
  H6       1.0000 0.48800  0.35690  0.85970  Biso   1.000  H
  H7       1.0000 0.19590  0.36300  0.85940  Biso   1.000  H
  H8       1.0000 0.47990  0.25380  0.95970  Biso   1.000  H
  H9       1.0000 0.23330  0.31680  0.64020  Biso   1.000  H
  H10      1.0000 0.83610  0.81880  0.85650  Biso   1.000  H
  H11      1.0000 0.25390  0.51580  0.64410  Biso   1.000  H
  H12      1.0000 0.03790  0.81880  0.85350  Biso   1.000  H
  H13      1.0000 0.71400  0.97600  0.98100  Biso   1.000  H
  H14      1.0000 0.69500  0.86700  0.97500  Biso   1.000  H
  H15      1.0000 0.55450  0.53910  0.66520  Biso   1.000  H
  H16      1.0000 0.65820  0.83020  0.65830  Biso   1.000  H
  H17      1.0000 0.45590  0.83260  0.66310  Biso   1.000  H
  H18      1.0000 0.56750  0.44380  0.76820  Biso   1.000  H
  H19      1.0000 0.21510  0.93840  0.64210  Biso   1.000  H
  H20      1.0000 0.48800  0.14310  0.64030  Biso   1.000  H
  H21      1.0000 0.19590  0.13700  0.64060  Biso   1.000  H
  H22      1.0000 0.47990  0.24620  0.54030  Biso   1.000  H
  H23      1.0000 0.23330  0.18320  0.85980  Biso   1.000  H
  H24      1.0000 0.83610  0.68120  0.64350  Biso   1.000  H
  H25      1.0000 0.25390  0.98420  0.85590  Biso   1.000  H
  H26      1.0000 0.03790  0.68120  0.64650  Biso   1.000  H
  H27      1.0000 0.71400  0.52400  0.51900  Biso   1.000  H
  H28      1.0000 0.69500  0.63300  0.52500  Biso   1.000  H
  H29      1.0000 0.44550  0.03910  0.16520  Biso   1.000  H
  H30      1.0000 0.34180  0.33020  0.15830  Biso   1.000  H
  H31      1.0000 0.54410  0.33260  0.16310  Biso   1.000  H
  H32      1.0000 0.43250  0.94380  0.26820  Biso   1.000  H
  H33      1.0000 0.78490  0.43840  0.14210  Biso   1.000  H
  H34      1.0000 0.51200  0.64310  0.14030  Biso   1.000  H
  H35      1.0000 0.80410  0.63700  0.14060  Biso   1.000  H
  H36      1.0000 0.52010  0.74620  0.04030  Biso   1.000  H
  H37      1.0000 0.76670  0.68320  0.35980  Biso   1.000  H
  H38      1.0000 0.16390  0.18120  0.14350  Biso   1.000  H
  H39      1.0000 0.74610  0.48420  0.35590  Biso   1.000  H
  H40      1.0000 0.96210  0.18120  0.14650  Biso   1.000  H
  H41      1.0000 0.28600  0.02400  0.01900  Biso   1.000  H
  H42      1.0000 0.30500  0.13300  0.02500  Biso   1.000  H
  H43      1.0000 0.44550  0.46090  0.33480  Biso   1.000  H
  H44      1.0000 0.34180  0.16980  0.34170  Biso   1.000  H
  H45      1.0000 0.54410  0.16740  0.33690  Biso   1.000  H
  H46      1.0000 0.43250  0.55620  0.23180  Biso   1.000  H
  H47      1.0000 0.78490  0.06160  0.35790  Biso   1.000  H
  H48      1.0000 0.51200  0.85690  0.35970  Biso   1.000  H
  H49      1.0000 0.80410  0.86300  0.35940  Biso   1.000  H
  H50      1.0000 0.52010  0.75380  0.45970  Biso   1.000  H
  H51      1.0000 0.76670  0.81680  0.14020  Biso   1.000  H
  H52      1.0000 0.16390  0.31880  0.35650  Biso   1.000  H
  H53      1.0000 0.74610  0.01580  0.14410  Biso   1.000  H
  H54      1.0000 0.96210  0.31880  0.35350  Biso   1.000  H
  H55      1.0000 0.28600  0.47600  0.48100  Biso   1.000  H
  H56      1.0000 0.30500  0.36700  0.47500  Biso   1.000  H
  C1       1.0000 0.54060  0.04145  0.83985  Biso   1.000  C
  C2       1.0000 0.61911  0.70184  0.80414  Biso   1.000  C
  C3       1.0000 0.52700  0.21856  0.78296  Biso   1.000  C
  C4       1.0000 0.21530  0.31464  0.75004  Biso   1.000  C
  C5       1.0000 0.49733  0.70210  0.80140  Biso   1.000  C
  C6       1.0000 0.54820  0.09838  0.77738  Biso   1.000  C
  C7       1.0000 0.21970  0.51196  0.81336  Biso   1.000  C
  C8       1.0000 0.50160  0.27625  0.85305  Biso   1.000  C
  C9       1.0000 0.20840  0.39179  0.81459  Biso   1.000  C
  C10      1.0000 0.49650  0.21341  0.91321  Biso   1.000  C
  C11      1.0000 0.23070  0.36449  0.68559  Biso   1.000  C
  C12      1.0000 0.87540  0.79089  0.81289  Biso   1.000  C
  C13      1.0000 0.24210  0.48503  0.68833  Biso   1.000  C
  C14      1.0000 0.99690  0.79010  0.81070  Biso   1.000  C
  C15      1.0000 0.54060  0.45855  0.66015  Biso   1.000  C
  C16      1.0000 0.61911  0.79816  0.69586  Biso   1.000  C
  C17      1.0000 0.52700  0.28144  0.71704  Biso   1.000  C
  C18      1.0000 0.21530  0.18536  0.74996  Biso   1.000  C
  C19      1.0000 0.49733  0.79790  0.69860  Biso   1.000  C
  C20      1.0000 0.54820  0.40162  0.72262  Biso   1.000  C
  C21      1.0000 0.21970  0.98804  0.68664  Biso   1.000  C
  C22      1.0000 0.50160  0.22375  0.64695  Biso   1.000  C
  C23      1.0000 0.20840  0.10821  0.68541  Biso   1.000  C
  C24      1.0000 0.49650  0.28659  0.58679  Biso   1.000  C
  C25      1.0000 0.23070  0.13551  0.81441  Biso   1.000  C
  C26      1.0000 0.87540  0.70911  0.68711  Biso   1.000  C
  C27      1.0000 0.24210  0.01497  0.81167  Biso   1.000  C
  C28      1.0000 0.99690  0.70990  0.68930  Biso   1.000  C
  C29      1.0000 0.45940  0.95855  0.16015  Biso   1.000  C
  C30      1.0000 0.38089  0.29816  0.19586  Biso   1.000  C
  C31      1.0000 0.47300  0.78144  0.21704  Biso   1.000  C
  C32      1.0000 0.78470  0.68536  0.24996  Biso   1.000  C
  C33      1.0000 0.50267  0.29790  0.19860  Biso   1.000  C
  C34      1.0000 0.45180  0.90162  0.22262  Biso   1.000  C
  C35      1.0000 0.78030  0.48804  0.18664  Biso   1.000  C
  C36      1.0000 0.49840  0.72375  0.14695  Biso   1.000  C
  C37      1.0000 0.79160  0.60821  0.18541  Biso   1.000  C
  C38      1.0000 0.50350  0.78659  0.08679  Biso   1.000  C
  C39      1.0000 0.76930  0.63551  0.31441  Biso   1.000  C
  C40      1.0000 0.12460  0.20911  0.18711  Biso   1.000  C
  C41      1.0000 0.75790  0.51497  0.31167  Biso   1.000  C
  C42      1.0000 0.00310  0.20990  0.18930  Biso   1.000  C
  C43      1.0000 0.45940  0.54145  0.33985  Biso   1.000  C
  C44      1.0000 0.38089  0.20184  0.30414  Biso   1.000  C
  C45      1.0000 0.47300  0.71856  0.28296  Biso   1.000  C
  C46      1.0000 0.78470  0.81464  0.25004  Biso   1.000  C
  C47      1.0000 0.50267  0.20210  0.30140  Biso   1.000  C
  C48      1.0000 0.45180  0.59838  0.27738  Biso   1.000  C
  C49      1.0000 0.78030  0.01196  0.31336  Biso   1.000  C
  C50      1.0000 0.49840  0.77625  0.35305  Biso   1.000  C
  C51      1.0000 0.79160  0.89179  0.31459  Biso   1.000  C
  C52      1.0000 0.50350  0.71341  0.41321  Biso   1.000  C
  C53      1.0000 0.76930  0.86449  0.18559  Biso   1.000  C
  C54      1.0000 0.12460  0.29089  0.31289  Biso   1.000  C
  C55      1.0000 0.75790  0.98503  0.18833  Biso   1.000  C
  C56      1.0000 0.00310  0.29010  0.31070  Biso   1.000  C
  C57      1.0000 0.81250  0.75000  0.75000  Biso   1.000  C
  C58      1.0000 0.68230  0.75000  0.75000  Biso   1.000  C
  C59      1.0000 0.18750  0.25000  0.25000  Biso   1.000  C
  C60      1.0000 0.31770  0.25000  0.25000  Biso   1.000  C
  S1       1.0000 0.29810  0.80075  0.93975  Biso   1.000  S
  S2       1.0000 0.29810  0.69925  0.56025  Biso   1.000  S
  S3       1.0000 0.70190  0.19925  0.06025  Biso   1.000  S
  S4       1.0000 0.70190  0.30075  0.43975  Biso   1.000  S
  N1       1.0000 0.23697  0.55947  0.75108  Biso   1.000  N
  N2       1.0000 0.51429  0.09697  0.90715  Biso   1.000  N
  N3       1.0000 0.23697  0.94053  0.74892  Biso   1.000  N
  N4       1.0000 0.51429  0.40303  0.59285  Biso   1.000  N
  N5       1.0000 0.76303  0.44053  0.24892  Biso   1.000  N
  N6       1.0000 0.48571  0.90303  0.09285  Biso   1.000  N
  N7       1.0000 0.76303  0.05947  0.25108  Biso   1.000  N
  N8       1.0000 0.48571  0.59697  0.40715  Biso   1.000  N
  N9       1.0000 0.43640  0.75000  0.75000  Biso   1.000  N
  N10      1.0000 0.05850  0.75000  0.75000  Biso   1.000  N
  N11      1.0000 0.56360  0.25000  0.25000  Biso   1.000  N
  N12      1.0000 0.94150  0.25000  0.25000  Biso   1.000  N
  O1       1.0000 0.66512  0.92681  0.96461  Biso   1.000  O
  O2       1.0000 0.40967  0.86622  0.93331  Biso   1.000  O
  O3       1.0000 0.24555  0.77444  0.86528  Biso   1.000  O
  O4       1.0000 0.32170  0.69071  0.96791  Biso   1.000  O
  O5       1.0000 0.21610  0.87567  0.98667  Biso   1.000  O
  O6       1.0000 0.66512  0.57319  0.53539  Biso   1.000  O
  O7       1.0000 0.40967  0.63378  0.56669  Biso   1.000  O
  O8       1.0000 0.24555  0.72556  0.63472  Biso   1.000  O
  O9       1.0000 0.32170  0.80929  0.53209  Biso   1.000  O
  O10      1.0000 0.21610  0.62433  0.51333  Biso   1.000  O
  O11      1.0000 0.33488  0.07319  0.03539  Biso   1.000  O
  O12      1.0000 0.59033  0.13378  0.06669  Biso   1.000  O
  O13      1.0000 0.75445  0.22556  0.13472  Biso   1.000  O
  O14      1.0000 0.67830  0.30929  0.03209  Biso   1.000  O
  O15      1.0000 0.78390  0.12433  0.01333  Biso   1.000  O
  O16      1.0000 0.33488  0.42681  0.46461  Biso   1.000  O
  O17      1.0000 0.59033  0.36622  0.43331  Biso   1.000  O
  O18      1.0000 0.75445  0.27444  0.36528  Biso   1.000  O
  O19      1.0000 0.67830  0.19071  0.46791  Biso   1.000  O
  O20      1.0000 0.78390  0.37567  0.48667  Biso   1.000  O
