data_image0
_cell_length_a       13.781
_cell_length_b       25.0369
_cell_length_c       25.0369
_cell_angle_alpha    73.2333
_cell_angle_beta     74.0252
_cell_angle_gamma    74.0251

_symmetry_space_group_name_H-M    P 1
_symmetry_int_tables_number       1

loop_
  _symmetry_equiv_pos_as_xyz
  'x, y, z'

loop_
  _atom_site_label
  _atom_site_occupancy
  _atom_site_fract_x
  _atom_site_fract_y
  _atom_site_fract_z
  _atom_site_thermal_displace_type
  _atom_site_B_iso_or_equiv
  _atom_site_type_symbol
  Cu1      1.0000 0.55862  0.12118  0.91814  Biso   1.000  Cu
  Cu2      1.0000 0.44138  0.08186  0.87882  Biso   1.000  Cu
  Cu3      1.0000 0.90206  0.62118  0.41814  Biso   1.000  Cu
  Cu4      1.0000 0.09794  0.58186  0.37882  Biso   1.000  Cu
  H1       1.0000 0.60070  0.10350  0.70030  Biso   1.000  H
  H2       1.0000 0.08680  0.40770  0.39650  Biso   1.000  H
  H3       1.0000 0.84050  0.21700  0.66760  Biso   1.000  H
  H4       1.0000 0.76430  0.17880  0.76060  Biso   1.000  H
  H5       1.0000 0.96920  0.24710  0.41750  Biso   1.000  H
  H6       1.0000 0.70380  0.13340  0.61340  Biso   1.000  H
  H7       1.0000 0.77810  0.36710  0.51190  Biso   1.000  H
  H8       1.0000 0.07320  0.30990  0.42590  Biso   1.000  H
  H9       1.0000 0.66280  0.16490  0.41030  Biso   1.000  H
  H10      1.0000 0.81900  0.21520  0.39740  Biso   1.000  H
  H11      1.0000 0.83520  0.27470  0.57590  Biso   1.000  H
  H12      1.0000 0.85310  0.12620  0.54260  Biso   1.000  H
  H13      1.0000 0.80620  0.46010  0.49190  Biso   1.000  H
  H14      1.0000 0.07790  0.09970  0.52270  Biso   1.000  H
  H15      1.0000 0.21830  0.03470  0.52790  Biso   1.000  H
  H16      1.0000 0.39930  0.29970  0.89650  Biso   1.000  H
  H17      1.0000 0.91320  0.60350  0.59230  Biso   1.000  H
  H18      1.0000 0.15950  0.33240  0.78300  Biso   1.000  H
  H19      1.0000 0.23570  0.23940  0.82120  Biso   1.000  H
  H20      1.0000 0.03080  0.58250  0.75290  Biso   1.000  H
  H21      1.0000 0.29620  0.38660  0.86660  Biso   1.000  H
  H22      1.0000 0.22190  0.48810  0.63290  Biso   1.000  H
  H23      1.0000 0.92680  0.57410  0.69010  Biso   1.000  H
  H24      1.0000 0.33720  0.58970  0.83510  Biso   1.000  H
  H25      1.0000 0.18100  0.60260  0.78480  Biso   1.000  H
  H26      1.0000 0.16480  0.42410  0.72530  Biso   1.000  H
  H27      1.0000 0.14690  0.45740  0.87380  Biso   1.000  H
  H28      1.0000 0.19380  0.50810  0.53990  Biso   1.000  H
  H29      1.0000 0.92210  0.47730  0.90030  Biso   1.000  H
  H30      1.0000 0.78170  0.47210  0.96530  Biso   1.000  H
  H31      1.0000 0.09550  0.60350  0.20030  Biso   1.000  H
  H32      1.0000 0.60900  0.90770  0.89650  Biso   1.000  H
  H33      1.0000 0.77490  0.71700  0.16760  Biso   1.000  H
  H34      1.0000 0.79630  0.67880  0.26060  Biso   1.000  H
  H35      1.0000 0.86620  0.74710  0.91750  Biso   1.000  H
  H36      1.0000 0.04940  0.63340  0.11340  Biso   1.000  H
  H37      1.0000 0.84290  0.86710  0.01190  Biso   1.000  H
  H38      1.0000 0.69100  0.80990  0.92590  Biso   1.000  H
  H39      1.0000 0.26200  0.66490  0.91030  Biso   1.000  H
  H40      1.0000 0.06840  0.71520  0.89740  Biso   1.000  H
  H41      1.0000 0.81420  0.77470  0.07590  Biso   1.000  H
  H42      1.0000 0.97810  0.62620  0.04260  Biso   1.000  H
  H43      1.0000 0.74180  0.96010  0.99190  Biso   1.000  H
  H44      1.0000 0.79970  0.59970  0.02270  Biso   1.000  H
  H45      1.0000 0.71910  0.53470  0.02790  Biso   1.000  H
  H46      1.0000 0.90450  0.79970  0.39650  Biso   1.000  H
  H47      1.0000 0.39100  0.10350  0.09230  Biso   1.000  H
  H48      1.0000 0.22510  0.83240  0.28300  Biso   1.000  H
  H49      1.0000 0.20370  0.73940  0.32120  Biso   1.000  H
  H50      1.0000 0.13380  0.08250  0.25290  Biso   1.000  H
  H51      1.0000 0.95060  0.88660  0.36660  Biso   1.000  H
  H52      1.0000 0.15710  0.98810  0.13290  Biso   1.000  H
  H53      1.0000 0.30900  0.07410  0.19010  Biso   1.000  H
  H54      1.0000 0.73800  0.08970  0.33510  Biso   1.000  H
  H55      1.0000 0.93160  0.10260  0.28480  Biso   1.000  H
  H56      1.0000 0.18580  0.92410  0.22530  Biso   1.000  H
  H57      1.0000 0.02190  0.95740  0.37380  Biso   1.000  H
  H58      1.0000 0.25820  0.00810  0.03990  Biso   1.000  H
  H59      1.0000 0.20030  0.97730  0.40030  Biso   1.000  H
  H60      1.0000 0.28090  0.97210  0.46530  Biso   1.000  H
  C1       1.0000 0.97210  0.50030  0.42110  Biso   1.000  C
  C2       1.0000 0.65090  0.12370  0.69570  Biso   1.000  C
  C3       1.0000 0.67100  0.14060  0.73980  Biso   1.000  C
  C4       1.0000 0.95010  0.44230  0.43930  Biso   1.000  C
  C5       1.0000 0.02700  0.39820  0.42140  Biso   1.000  C
  C6       1.0000 0.80200  0.18980  0.67400  Biso   1.000  C
  C7       1.0000 0.74860  0.17110  0.73010  Biso   1.000  C
  C8       1.0000 0.93890  0.23340  0.45540  Biso   1.000  C
  C9       1.0000 0.71790  0.14190  0.64390  Biso   1.000  C
  C10      1.0000 0.96803  0.13667  0.43787  Biso   1.000  C
  C11      1.0000 0.84200  0.37540  0.49220  Biso   1.000  C
  C12      1.0000 0.02160  0.33930  0.43830  Biso   1.000  C
  C13      1.0000 0.73100  0.15490  0.39130  Biso   1.000  C
  C14      1.0000 0.84100  0.19440  0.57040  Biso   1.000  C
  C15      1.0000 0.91920  0.26690  0.49630  Biso   1.000  C
  C16      1.0000 0.92140  0.14320  0.39560  Biso   1.000  C
  C17      1.0000 0.06840  0.09620  0.45120  Biso   1.000  C
  C18      1.0000 0.61200  0.12670  0.80430  Biso   1.000  C
  C19      1.0000 0.82850  0.17750  0.39530  Biso   1.000  C
  C20      1.0000 0.86064  0.24956  0.55176  Biso   1.000  C
  C21      1.0000 0.80170  0.17000  0.62660  Biso   1.000  C
  C22      1.0000 0.86680  0.16260  0.53060  Biso   1.000  C
  C23      1.0000 0.92570  0.33190  0.47690  Biso   1.000  C
  C24      1.0000 0.85610  0.43120  0.47740  Biso   1.000  C
  C25      1.0000 0.91312  0.18098  0.47198  Biso   1.000  C
  C26      1.0000 0.10710  0.08070  0.49330  Biso   1.000  C
  C27      1.0000 0.18490  0.04000  0.49860  Biso   1.000  C
  C28      1.0000 0.02790  0.57890  0.49970  Biso   1.000  C
  C29      1.0000 0.34910  0.30430  0.87630  Biso   1.000  C
  C30      1.0000 0.32900  0.26020  0.85940  Biso   1.000  C
  C31      1.0000 0.04990  0.56070  0.55770  Biso   1.000  C
  C32      1.0000 0.97300  0.57860  0.60180  Biso   1.000  C
  C33      1.0000 0.19800  0.32600  0.81020  Biso   1.000  C
  C34      1.0000 0.25140  0.26990  0.82890  Biso   1.000  C
  C35      1.0000 0.06110  0.54460  0.76660  Biso   1.000  C
  C36      1.0000 0.28210  0.35610  0.85810  Biso   1.000  C
  C37      1.0000 0.03197  0.56213  0.86333  Biso   1.000  C
  C38      1.0000 0.15800  0.50780  0.62460  Biso   1.000  C
  C39      1.0000 0.97840  0.56170  0.66070  Biso   1.000  C
  C40      1.0000 0.26900  0.60870  0.84510  Biso   1.000  C
  C41      1.0000 0.15900  0.42960  0.80560  Biso   1.000  C
  C42      1.0000 0.08080  0.50370  0.73310  Biso   1.000  C
  C43      1.0000 0.07860  0.60440  0.85680  Biso   1.000  C
  C44      1.0000 0.93160  0.54880  0.90380  Biso   1.000  C
  C45      1.0000 0.38800  0.19570  0.87330  Biso   1.000  C
  C46      1.0000 0.17150  0.60470  0.82250  Biso   1.000  C
  C47      1.0000 0.13936  0.44824  0.75044  Biso   1.000  C
  C48      1.0000 0.19830  0.37340  0.83000  Biso   1.000  C
  C49      1.0000 0.13320  0.46940  0.83740  Biso   1.000  C
  C50      1.0000 0.07430  0.52310  0.66810  Biso   1.000  C
  C51      1.0000 0.14390  0.52260  0.56880  Biso   1.000  C
  C52      1.0000 0.08688  0.52802  0.81902  Biso   1.000  C
  C53      1.0000 0.89290  0.50670  0.91930  Biso   1.000  C
  C54      1.0000 0.81510  0.50140  0.96000  Biso   1.000  C
  C55      1.0000 0.60650  0.00030  0.92110  Biso   1.000  C
  C56      1.0000 0.02970  0.62370  0.19570  Biso   1.000  C
  C57      1.0000 0.94860  0.64060  0.23980  Biso   1.000  C
  C58      1.0000 0.66830  0.94230  0.93930  Biso   1.000  C
  C59      1.0000 0.65340  0.89820  0.92140  Biso   1.000  C
  C60      1.0000 0.83420  0.68980  0.17400  Biso   1.000  C
  C61      1.0000 0.85020  0.67110  0.23010  Biso   1.000  C
  C62      1.0000 0.87230  0.73340  0.95540  Biso   1.000  C
  C63      1.0000 0.99630  0.64190  0.14390  Biso   1.000  C
  C64      1.0000 0.95743  0.63667  0.93787  Biso   1.000  C
  C65      1.0000 0.79040  0.87540  0.99220  Biso   1.000  C
  C66      1.0000 0.70080  0.83930  0.93830  Biso   1.000  C
  C67      1.0000 0.22280  0.65490  0.89130  Biso   1.000  C
  C68      1.0000 0.89420  0.69440  0.07040  Biso   1.000  C
  C69      1.0000 0.81760  0.76690  0.99630  Biso   1.000  C
  C70      1.0000 0.03980  0.64320  0.89560  Biso   1.000  C
  C71      1.0000 0.88420  0.59620  0.95120  Biso   1.000  C
  C72      1.0000 0.95700  0.62670  0.30430  Biso   1.000  C
  C73      1.0000 0.09870  0.67750  0.89530  Biso   1.000  C
  C74      1.0000 0.83804  0.74956  0.05176  Biso   1.000  C
  C75      1.0000 0.90170  0.67000  0.12660  Biso   1.000  C
  C76      1.0000 0.94000  0.66260  0.03060  Biso   1.000  C
  C77      1.0000 0.76550  0.83190  0.97690  Biso   1.000  C
  C78      1.0000 0.73530  0.93120  0.97740  Biso   1.000  C
  C79      1.0000 0.93392  0.68098  0.97198  Biso   1.000  C
  C80      1.0000 0.81890  0.58070  0.99330  Biso   1.000  C
  C81      1.0000 0.77650  0.54000  0.99860  Biso   1.000  C
  C82      1.0000 0.39350  0.07890  0.99970  Biso   1.000  C
  C83      1.0000 0.97030  0.80430  0.37630  Biso   1.000  C
  C84      1.0000 0.05140  0.76020  0.35940  Biso   1.000  C
  C85      1.0000 0.33170  0.06070  0.05770  Biso   1.000  C
  C86      1.0000 0.34660  0.07860  0.10180  Biso   1.000  C
  C87      1.0000 0.16580  0.82600  0.31020  Biso   1.000  C
  C88      1.0000 0.14980  0.76990  0.32890  Biso   1.000  C
  C89      1.0000 0.12770  0.04460  0.26660  Biso   1.000  C
  C90      1.0000 0.00370  0.85610  0.35810  Biso   1.000  C
  C91      1.0000 0.04257  0.06213  0.36333  Biso   1.000  C
  C92      1.0000 0.20960  0.00780  0.12460  Biso   1.000  C
  C93      1.0000 0.29920  0.06170  0.16070  Biso   1.000  C
  C94      1.0000 0.77720  0.10870  0.34510  Biso   1.000  C
  C95      1.0000 0.10580  0.92960  0.30560  Biso   1.000  C
  C96      1.0000 0.18240  0.00370  0.23310  Biso   1.000  C
  C97      1.0000 0.96020  0.10440  0.35680  Biso   1.000  C
  C98      1.0000 0.11580  0.04880  0.40380  Biso   1.000  C
  C99      1.0000 0.04300  0.69570  0.37330  Biso   1.000  C
  C100     1.0000 0.90130  0.10470  0.32250  Biso   1.000  C
  C101     1.0000 0.16196  0.94824  0.25044  Biso   1.000  C
  C102     1.0000 0.09830  0.87340  0.33000  Biso   1.000  C
  C103     1.0000 0.06000  0.96940  0.33740  Biso   1.000  C
  C104     1.0000 0.23450  0.02310  0.16810  Biso   1.000  C
  C105     1.0000 0.26470  0.02260  0.06880  Biso   1.000  C
  C106     1.0000 0.06608  0.02802  0.31902  Biso   1.000  C
  C107     1.0000 0.18110  0.00670  0.41930  Biso   1.000  C
  C108     1.0000 0.22350  0.00140  0.46000  Biso   1.000  C
  O1       1.0000 0.05663  0.50624  0.39770  Biso   1.000  O
  O2       1.0000 0.53332  0.10138  0.80798  Biso   1.000  O
  O3       1.0000 0.65034  0.15826  0.94986  Biso   1.000  O
  O4       1.0000 0.64284  0.13499  0.84073  Biso   1.000  O
  O5       1.0000 0.89518  0.54027  0.43157  Biso   1.000  O
  O6       1.0000 0.94337  0.60230  0.49376  Biso   1.000  O
  O7       1.0000 0.46668  0.19202  0.89862  Biso   1.000  O
  O8       1.0000 0.34966  0.05014  0.84174  Biso   1.000  O
  O9       1.0000 0.35716  0.15927  0.86501  Biso   1.000  O
  O10      1.0000 0.10482  0.56843  0.45973  Biso   1.000  O
  O11      1.0000 0.53943  0.00624  0.89770  Biso   1.000  O
  O12      1.0000 0.05732  0.60138  0.30798  Biso   1.000  O
  O13      1.0000 0.74154  0.65826  0.44986  Biso   1.000  O
  O14      1.0000 0.88144  0.63499  0.34073  Biso   1.000  O
  O15      1.0000 0.63298  0.04027  0.93157  Biso   1.000  O
  O16      1.0000 0.46057  0.10230  0.99376  Biso   1.000  O
  O17      1.0000 0.94268  0.69202  0.39862  Biso   1.000  O
  O18      1.0000 0.25846  0.55014  0.34174  Biso   1.000  O
  O19      1.0000 0.11856  0.65927  0.36501  Biso   1.000  O
  O20      1.0000 0.36702  0.06843  0.95973  Biso   1.000  O
