data_image0
_cell_length_a       8.266
_cell_length_b       12.874
_cell_length_c       15.7062
_cell_angle_alpha    114.195
_cell_angle_beta     96.6165
_cell_angle_gamma    90

_symmetry_space_group_name_H-M    P 1
_symmetry_int_tables_number       1

loop_
  _symmetry_equiv_pos_as_xyz
  'x, y, z'

loop_
  _atom_site_label
  _atom_site_occupancy
  _atom_site_fract_x
  _atom_site_fract_y
  _atom_site_fract_z
  _atom_site_thermal_displace_type
  _atom_site_B_iso_or_equiv
  _atom_site_type_symbol
  Co1      1.0000 0.93339  0.38279  0.49484  Biso   1.000  Co
  Co2      1.0000 0.54361  0.38084  0.49186  Biso   1.000  Co
  Co3      1.0000 0.85619  0.25386  0.27218  Biso   1.000  Co
  Co4      1.0000 0.56661  0.88795  0.50516  Biso   1.000  Co
  Co5      1.0000 0.95639  0.88898  0.50814  Biso   1.000  Co
  Co6      1.0000 0.64381  0.98168  0.72782  Biso   1.000  Co
  Co7      1.0000 0.06661  0.61721  0.50516  Biso   1.000  Co
  Co8      1.0000 0.45639  0.61916  0.50814  Biso   1.000  Co
  Co9      1.0000 0.14381  0.74614  0.72782  Biso   1.000  Co
  Co10     1.0000 0.43339  0.11205  0.49484  Biso   1.000  Co
  Co11     1.0000 0.04361  0.11102  0.49186  Biso   1.000  Co
  Co12     1.0000 0.35619  0.01832  0.27218  Biso   1.000  Co
  P1       1.0000 0.72380  0.48953  0.37030  Biso   1.000  P
  P2       1.0000 0.20520  0.22622  0.37252  Biso   1.000  P
  P3       1.0000 0.77620  0.11923  0.62970  Biso   1.000  P
  P4       1.0000 0.29480  0.85370  0.62748  Biso   1.000  P
  P5       1.0000 0.27620  0.51047  0.62970  Biso   1.000  P
  P6       1.0000 0.79480  0.77378  0.62748  Biso   1.000  P
  P7       1.0000 0.22380  0.88077  0.37030  Biso   1.000  P
  P8       1.0000 0.70520  0.14630  0.37252  Biso   1.000  P
  H1       1.0000 0.66470  0.64010  0.38040  Biso   1.000  H
  H2       1.0000 0.08630  0.24010  0.17260  Biso   1.000  H
  H3       1.0000 0.97790  0.15410  0.02260  Biso   1.000  H
  H4       1.0000 0.71740  0.29360  0.09440  Biso   1.000  H
  H5       1.0000 0.86580  0.33120  0.05760  Biso   1.000  H
  H6       1.0000 0.85890  0.01510  0.06100  Biso   1.000  H
  H7       1.0000 0.70990  0.09140  0.09320  Biso   1.000  H
  H8       1.0000 0.83530  0.25970  0.61960  Biso   1.000  H
  H9       1.0000 0.41370  0.06750  0.82740  Biso   1.000  H
  H10      1.0000 0.52210  0.13150  0.97740  Biso   1.000  H
  H11      1.0000 0.78260  0.19920  0.90560  Biso   1.000  H
  H12      1.0000 0.63420  0.27360  0.94240  Biso   1.000  H
  H13      1.0000 0.64110  0.95410  0.93900  Biso   1.000  H
  H14      1.0000 0.79010  0.99820  0.90680  Biso   1.000  H
  H15      1.0000 0.33530  0.35990  0.61960  Biso   1.000  H
  H16      1.0000 0.91370  0.75990  0.82740  Biso   1.000  H
  H17      1.0000 0.02210  0.84590  0.97740  Biso   1.000  H
  H18      1.0000 0.28260  0.70640  0.90560  Biso   1.000  H
  H19      1.0000 0.13420  0.66880  0.94240  Biso   1.000  H
  H20      1.0000 0.14110  0.98490  0.93900  Biso   1.000  H
  H21      1.0000 0.29010  0.90860  0.90680  Biso   1.000  H
  H22      1.0000 0.16470  0.74030  0.38040  Biso   1.000  H
  H23      1.0000 0.58630  0.93250  0.17260  Biso   1.000  H
  H24      1.0000 0.47790  0.86850  0.02260  Biso   1.000  H
  H25      1.0000 0.21740  0.80080  0.09440  Biso   1.000  H
  H26      1.0000 0.36580  0.72640  0.05760  Biso   1.000  H
  H27      1.0000 0.35890  0.04590  0.06100  Biso   1.000  H
  H28      1.0000 0.20990  0.00180  0.09320  Biso   1.000  H
  C1       1.0000 0.89640  0.17700  0.06660  Biso   1.000  C
  C2       1.0000 0.79500  0.26670  0.04920  Biso   1.000  C
  C3       1.0000 0.79120  0.07090  0.04980  Biso   1.000  C
  C4       1.0000 0.60360  0.11040  0.93340  Biso   1.000  C
  C5       1.0000 0.70500  0.21750  0.95080  Biso   1.000  C
  C6       1.0000 0.70880  0.02110  0.95020  Biso   1.000  C
  C7       1.0000 0.10360  0.82300  0.93340  Biso   1.000  C
  C8       1.0000 0.20500  0.73330  0.95080  Biso   1.000  C
  C9       1.0000 0.20880  0.92910  0.95020  Biso   1.000  C
  C10      1.0000 0.39640  0.88960  0.06660  Biso   1.000  C
  C11      1.0000 0.29500  0.78250  0.04920  Biso   1.000  C
  C12      1.0000 0.29120  0.97890  0.04980  Biso   1.000  C
  N1       1.0000 0.98280  0.22470  0.16300  Biso   1.000  N
  N2       1.0000 0.51720  0.06170  0.83700  Biso   1.000  N
  N3       1.0000 0.01720  0.77530  0.83700  Biso   1.000  N
  N4       1.0000 0.48280  0.93830  0.16300  Biso   1.000  N
  O1       1.0000 0.57830  0.48595  0.42070  Biso   1.000  O
  O2       1.0000 0.88240  0.49640  0.43320  Biso   1.000  O
  O3       1.0000 0.72050  0.38030  0.28160  Biso   1.000  O
  O4       1.0000 0.71870  0.59120  0.34520  Biso   1.000  O
  O5       1.0000 0.03650  0.27661  0.37602  Biso   1.000  O
  O6       1.0000 0.22170  0.15760  0.43280  Biso   1.000  O
  O7       1.0000 0.33300  0.32180  0.40620  Biso   1.000  O
  O8       1.0000 0.22360  0.14580  0.27120  Biso   1.000  O
  O9       1.0000 0.76250  0.47645  0.59030  Biso   1.000  O
  O10      1.0000 0.00840  0.28880  0.57340  Biso   1.000  O
  O11      1.0000 0.92170  0.06525  0.57930  Biso   1.000  O
  O12      1.0000 0.61760  0.06320  0.56680  Biso   1.000  O
  O13      1.0000 0.77950  0.09870  0.71840  Biso   1.000  O
  O14      1.0000 0.78130  0.24600  0.65480  Biso   1.000  O
  O15      1.0000 0.46350  0.90059  0.62398  Biso   1.000  O
  O16      1.0000 0.27830  0.72480  0.56720  Biso   1.000  O
  O17      1.0000 0.16700  0.91560  0.59380  Biso   1.000  O
  O18      1.0000 0.27640  0.87460  0.72880  Biso   1.000  O
  O19      1.0000 0.73750  0.88615  0.40970  Biso   1.000  O
  O20      1.0000 0.49160  0.71540  0.42660  Biso   1.000  O
  O21      1.0000 0.42170  0.51405  0.57930  Biso   1.000  O
  O22      1.0000 0.11760  0.50360  0.56680  Biso   1.000  O
  O23      1.0000 0.27950  0.61970  0.71840  Biso   1.000  O
  O24      1.0000 0.28130  0.40880  0.65480  Biso   1.000  O
  O25      1.0000 0.96350  0.72339  0.62398  Biso   1.000  O
  O26      1.0000 0.77830  0.84240  0.56720  Biso   1.000  O
  O27      1.0000 0.66700  0.67820  0.59380  Biso   1.000  O
  O28      1.0000 0.77640  0.85420  0.72880  Biso   1.000  O
  O29      1.0000 0.23750  0.52355  0.40970  Biso   1.000  O
  O30      1.0000 0.99160  0.71120  0.42660  Biso   1.000  O
  O31      1.0000 0.07830  0.93475  0.42070  Biso   1.000  O
  O32      1.0000 0.38240  0.93680  0.43320  Biso   1.000  O
  O33      1.0000 0.22050  0.90130  0.28160  Biso   1.000  O
  O34      1.0000 0.21870  0.75400  0.34520  Biso   1.000  O
  O35      1.0000 0.53650  0.09941  0.37602  Biso   1.000  O
  O36      1.0000 0.72170  0.27520  0.43280  Biso   1.000  O
  O37      1.0000 0.83300  0.08440  0.40620  Biso   1.000  O
  O38      1.0000 0.72360  0.12540  0.27120  Biso   1.000  O
  O39      1.0000 0.26250  0.11385  0.59030  Biso   1.000  O
  O40      1.0000 0.50840  0.28460  0.57340  Biso   1.000  O
