data_image0
_cell_length_a       9.4116
_cell_length_b       13.2967
_cell_length_c       14.9365
_cell_angle_alpha    90
_cell_angle_beta     98.019
_cell_angle_gamma    90

_symmetry_space_group_name_H-M    "P 1"
_symmetry_int_tables_number       1

loop_
  _symmetry_equiv_pos_as_xyz
  'x, y, z'

loop_
  _atom_site_label
  _atom_site_occupancy
  _atom_site_fract_x
  _atom_site_fract_y
  _atom_site_fract_z
  _atom_site_thermal_displace_type
  _atom_site_B_iso_or_equiv
  _atom_site_type_symbol
  Zn1      1.0000 0.03224  0.86839  0.65580  Biso   1.000  Zn
  O1       1.0000 0.87831  0.93992  0.57346  Biso   1.000  O
  O2       1.0000 0.75290  0.88346  0.67771  Biso   1.000  O
  O3       1.0000 0.80034  0.07416  0.38906  Biso   1.000  O
  O4       1.0000 0.82316  0.16056  0.51950  Biso   1.000  O
  C1       1.0000 0.62820  0.97078  0.55241  Biso   1.000  C
  C2       1.0000 0.63020  0.04428  0.48554  Biso   1.000  C
  C3       1.0000 0.49760  0.92813  0.56651  Biso   1.000  C
  H1       1.0000 0.49630  0.87920  0.61270  Biso   1.000  H
  C4       1.0000 0.76150  0.92954  0.60636  Biso   1.000  C
  C5       1.0000 0.76430  0.09738  0.46576  Biso   1.000  C
  O5       1.0000 0.20752  0.67090  0.66424  Biso   1.000  O
  O6       1.0000 0.98353  0.72814  0.62750  Biso   1.000  O
  O7       1.0000 0.95309  0.37636  0.71149  Biso   1.000  O
  O8       1.0000 0.96070  0.54056  0.73844  Biso   1.000  O
  C6       1.0000 0.04020  0.57553  0.56367  Biso   1.000  C
  C7       1.0000 0.05760  0.58931  0.47342  Biso   1.000  C
  H2       1.0000 0.09730  0.65040  0.45520  Biso   1.000  H
  C8       1.0000 0.98240  0.48514  0.59029  Biso   1.000  C
  C9       1.0000 0.08230  0.66294  0.62596  Biso   1.000  C
  C10      1.0000 0.96420  0.46679  0.68687  Biso   1.000  C
  Zn2      1.0000 0.96776  0.36839  0.84420  Biso   1.000  Zn
  O9       1.0000 0.12169  0.43992  0.92654  Biso   1.000  O
  O10      1.0000 0.24710  0.38346  0.82229  Biso   1.000  O
  O11      1.0000 0.19966  0.57416  0.11094  Biso   1.000  O
  O12      1.0000 0.17684  0.66056  0.98050  Biso   1.000  O
  C11      1.0000 0.37180  0.47078  0.94759  Biso   1.000  C
  C12      1.0000 0.36980  0.54428  0.01446  Biso   1.000  C
  C13      1.0000 0.50240  0.42813  0.93349  Biso   1.000  C
  H3       1.0000 0.50370  0.37920  0.88730  Biso   1.000  H
  C14      1.0000 0.23850  0.42954  0.89364  Biso   1.000  C
  C15      1.0000 0.23570  0.59738  0.03424  Biso   1.000  C
  O13      1.0000 0.79248  0.17090  0.83576  Biso   1.000  O
  O14      1.0000 0.01647  0.22814  0.87250  Biso   1.000  O
  O15      1.0000 0.04691  0.87636  0.78851  Biso   1.000  O
  O16      1.0000 0.03930  0.04056  0.76156  Biso   1.000  O
  C16      1.0000 0.95980  0.07553  0.93633  Biso   1.000  C
  C17      1.0000 0.94240  0.08931  0.02658  Biso   1.000  C
  H4       1.0000 0.90270  0.15040  0.04480  Biso   1.000  H
  C18      1.0000 0.01760  0.98514  0.90971  Biso   1.000  C
  C19      1.0000 0.91770  0.16294  0.87404  Biso   1.000  C
  C20      1.0000 0.03580  0.96679  0.81313  Biso   1.000  C
  Zn3      1.0000 0.96776  0.13161  0.34420  Biso   1.000  Zn
  O17      1.0000 0.12169  0.06008  0.42654  Biso   1.000  O
  O18      1.0000 0.24710  0.11654  0.32229  Biso   1.000  O
  O19      1.0000 0.19966  0.92584  0.61094  Biso   1.000  O
  O20      1.0000 0.17684  0.83944  0.48050  Biso   1.000  O
  C21      1.0000 0.37180  0.02922  0.44759  Biso   1.000  C
  C22      1.0000 0.36980  0.95572  0.51446  Biso   1.000  C
  C23      1.0000 0.50240  0.07187  0.43349  Biso   1.000  C
  H5       1.0000 0.50370  0.12080  0.38730  Biso   1.000  H
  C24      1.0000 0.23850  0.07046  0.39364  Biso   1.000  C
  C25      1.0000 0.23570  0.90262  0.53424  Biso   1.000  C
  O21      1.0000 0.79248  0.32910  0.33576  Biso   1.000  O
  O22      1.0000 0.01647  0.27186  0.37250  Biso   1.000  O
  O23      1.0000 0.04691  0.62364  0.28851  Biso   1.000  O
  O24      1.0000 0.03930  0.45944  0.26156  Biso   1.000  O
  C26      1.0000 0.95980  0.42447  0.43633  Biso   1.000  C
  C27      1.0000 0.94240  0.41069  0.52658  Biso   1.000  C
  H6       1.0000 0.90270  0.34960  0.54480  Biso   1.000  H
  C28      1.0000 0.01760  0.51486  0.40971  Biso   1.000  C
  C29      1.0000 0.91770  0.33706  0.37404  Biso   1.000  C
  C30      1.0000 0.03580  0.53321  0.31313  Biso   1.000  C
  Zn4      1.0000 0.03224  0.63161  0.15580  Biso   1.000  Zn
  O25      1.0000 0.87831  0.56008  0.07346  Biso   1.000  O
  O26      1.0000 0.75290  0.61654  0.17771  Biso   1.000  O
  O27      1.0000 0.80034  0.42584  0.88906  Biso   1.000  O
  O28      1.0000 0.82316  0.33944  0.01950  Biso   1.000  O
  C31      1.0000 0.62820  0.52922  0.05241  Biso   1.000  C
  C32      1.0000 0.63020  0.45572  0.98554  Biso   1.000  C
  C33      1.0000 0.49760  0.57187  0.06651  Biso   1.000  C
  H7       1.0000 0.49630  0.62080  0.11270  Biso   1.000  H
  C34      1.0000 0.76150  0.57046  0.10636  Biso   1.000  C
  C35      1.0000 0.76430  0.40262  0.96576  Biso   1.000  C
  O29      1.0000 0.20752  0.82910  0.16424  Biso   1.000  O
  O30      1.0000 0.98353  0.77186  0.12750  Biso   1.000  O
  O31      1.0000 0.95309  0.12364  0.21149  Biso   1.000  O
  O32      1.0000 0.96070  0.95944  0.23844  Biso   1.000  O
  C36      1.0000 0.04020  0.92447  0.06367  Biso   1.000  C
  C37      1.0000 0.05760  0.91069  0.97342  Biso   1.000  C
  H8       1.0000 0.09730  0.84960  0.95520  Biso   1.000  H
  C38      1.0000 0.98240  0.01486  0.09029  Biso   1.000  C
  C39      1.0000 0.08230  0.83706  0.12596  Biso   1.000  C
  C40      1.0000 0.96420  0.03321  0.18687  Biso   1.000  C
