data_image0
_cell_length_a       28.642
_cell_length_b       13.1862
_cell_length_c       8.5395
_cell_angle_alpha    90
_cell_angle_beta     91.66
_cell_angle_gamma    90

_symmetry_space_group_name_H-M    "P 1"
_symmetry_int_tables_number       1

loop_
  _symmetry_equiv_pos_as_xyz
  'x, y, z'

loop_
  _atom_site_label
  _atom_site_occupancy
  _atom_site_fract_x
  _atom_site_fract_y
  _atom_site_fract_z
  _atom_site_thermal_displace_type
  _atom_site_B_iso_or_equiv
  _atom_site_type_symbol
  C1       1.0000 0.34606  0.97380  0.33930  Biso   1.000  C
  H1       1.0000 0.32330  0.00990  0.39140  Biso   1.000  H
  C2       1.0000 0.38013  0.02720  0.26300  Biso   1.000  C
  H2       1.0000 0.38000  0.09770  0.26390  Biso   1.000  H
  C3       1.0000 0.41442  0.97530  0.18520  Biso   1.000  C
  C4       1.0000 0.41183  0.87080  0.18410  Biso   1.000  C
  H3       1.0000 0.43390  0.83280  0.13180  Biso   1.000  H
  C5       1.0000 0.37645  0.82310  0.26100  Biso   1.000  C
  H4       1.0000 0.37480  0.75270  0.25690  Biso   1.000  H
  C6       1.0000 0.45244  0.03040  0.10320  Biso   1.000  C
  C7       1.0000 0.45207  0.14250  0.10800  Biso   1.000  C
  H5       1.0000 0.47810  0.16820  0.05180  Biso   1.000  H
  H6       1.0000 0.45440  0.16490  0.21490  Biso   1.000  H
  H7       1.0000 0.42350  0.16710  0.06050  Biso   1.000  H
  C8       1.0000 0.21016  0.76540  0.23180  Biso   1.000  C
  C9       1.0000 0.18721  0.78890  0.07440  Biso   1.000  C
  H8       1.0000 0.15360  0.79110  0.08530  Biso   1.000  H
  H9       1.0000 0.19420  0.73490  0.00150  Biso   1.000  H
  C10      1.0000 0.20374  0.89010  0.00760  Biso   1.000  C
  H10      1.0000 0.23690  0.88600  0.98820  Biso   1.000  H
  H11      1.0000 0.18750  0.90270  0.90830  Biso   1.000  H
  C11      1.0000 0.19484  0.97830  0.11960  Biso   1.000  C
  H12      1.0000 0.16140  0.98500  0.13120  Biso   1.000  H
  H13      1.0000 0.20840  0.96140  0.22160  Biso   1.000  H
  C12      1.0000 0.21414  0.08030  0.06960  Biso   1.000  C
  N1       1.0000 0.34433  0.87310  0.34160  Biso   1.000  N
  N2       1.0000 0.48203  0.97350  0.03690  Biso   1.000  N
  O1       1.0000 0.18559  0.72190  0.33290  Biso   1.000  O
  O2       1.0000 0.18905  0.15620  0.09020  Biso   1.000  O
  O3       1.0000 0.25200  0.79160  0.25270  Biso   1.000  O
  O4       1.0000 0.25419  0.08120  0.01390  Biso   1.000  O
  Cu1      1.0000 0.28809  0.79465  0.45252  Biso   1.000  Cu
  C13      1.0000 0.84606  0.47380  0.33930  Biso   1.000  C
  H14      1.0000 0.82330  0.50990  0.39140  Biso   1.000  H
  C14      1.0000 0.88013  0.52720  0.26300  Biso   1.000  C
  H15      1.0000 0.88000  0.59770  0.26390  Biso   1.000  H
  C15      1.0000 0.91442  0.47530  0.18520  Biso   1.000  C
  C16      1.0000 0.91183  0.37080  0.18410  Biso   1.000  C
  H16      1.0000 0.93390  0.33280  0.13180  Biso   1.000  H
  C17      1.0000 0.87645  0.32310  0.26100  Biso   1.000  C
  H17      1.0000 0.87480  0.25270  0.25690  Biso   1.000  H
  C18      1.0000 0.95244  0.53040  0.10320  Biso   1.000  C
  C19      1.0000 0.95207  0.64250  0.10800  Biso   1.000  C
  H18      1.0000 0.97810  0.66820  0.05180  Biso   1.000  H
  H19      1.0000 0.95440  0.66490  0.21490  Biso   1.000  H
  H20      1.0000 0.92350  0.66710  0.06050  Biso   1.000  H
  C20      1.0000 0.71016  0.26540  0.23180  Biso   1.000  C
  C21      1.0000 0.68721  0.28890  0.07440  Biso   1.000  C
  H21      1.0000 0.65360  0.29110  0.08530  Biso   1.000  H
  H22      1.0000 0.69420  0.23490  0.00150  Biso   1.000  H
  C22      1.0000 0.70374  0.39010  0.00760  Biso   1.000  C
  H23      1.0000 0.73690  0.38600  0.98820  Biso   1.000  H
  H24      1.0000 0.68750  0.40270  0.90830  Biso   1.000  H
  C23      1.0000 0.69484  0.47830  0.11960  Biso   1.000  C
  H25      1.0000 0.66140  0.48500  0.13120  Biso   1.000  H
  H26      1.0000 0.70840  0.46140  0.22160  Biso   1.000  H
  C24      1.0000 0.71414  0.58030  0.06960  Biso   1.000  C
  N3       1.0000 0.84433  0.37310  0.34160  Biso   1.000  N
  N4       1.0000 0.98203  0.47350  0.03690  Biso   1.000  N
  O5       1.0000 0.68559  0.22190  0.33290  Biso   1.000  O
  O6       1.0000 0.68905  0.65620  0.09020  Biso   1.000  O
  O7       1.0000 0.75200  0.29160  0.25270  Biso   1.000  O
  O8       1.0000 0.75419  0.58120  0.01390  Biso   1.000  O
  Cu2      1.0000 0.78809  0.29465  0.45252  Biso   1.000  Cu
  C25      1.0000 0.65394  0.97380  0.16070  Biso   1.000  C
  H27      1.0000 0.67670  0.00990  0.10860  Biso   1.000  H
  C26      1.0000 0.61987  0.02720  0.23700  Biso   1.000  C
  H28      1.0000 0.62000  0.09770  0.23610  Biso   1.000  H
  C27      1.0000 0.58558  0.97530  0.31480  Biso   1.000  C
  C28      1.0000 0.58817  0.87080  0.31590  Biso   1.000  C
  H29      1.0000 0.56610  0.83280  0.36820  Biso   1.000  H
  C29      1.0000 0.62355  0.82310  0.23900  Biso   1.000  C
  H30      1.0000 0.62520  0.75270  0.24310  Biso   1.000  H
  C30      1.0000 0.54756  0.03040  0.39680  Biso   1.000  C
  C31      1.0000 0.54793  0.14250  0.39200  Biso   1.000  C
  H31      1.0000 0.52190  0.16820  0.44820  Biso   1.000  H
  H32      1.0000 0.54560  0.16490  0.28510  Biso   1.000  H
  H33      1.0000 0.57650  0.16710  0.43950  Biso   1.000  H
  C32      1.0000 0.78984  0.76540  0.26820  Biso   1.000  C
  C33      1.0000 0.81279  0.78890  0.42560  Biso   1.000  C
  H34      1.0000 0.84640  0.79110  0.41470  Biso   1.000  H
  H35      1.0000 0.80580  0.73490  0.49850  Biso   1.000  H
  C34      1.0000 0.79626  0.89010  0.49240  Biso   1.000  C
  H36      1.0000 0.76310  0.88600  0.51180  Biso   1.000  H
  H37      1.0000 0.81250  0.90270  0.59170  Biso   1.000  H
  C35      1.0000 0.80516  0.97830  0.38040  Biso   1.000  C
  H38      1.0000 0.83860  0.98500  0.36880  Biso   1.000  H
  H39      1.0000 0.79160  0.96140  0.27840  Biso   1.000  H
  C36      1.0000 0.78586  0.08030  0.43040  Biso   1.000  C
  N5       1.0000 0.65567  0.87310  0.15840  Biso   1.000  N
  N6       1.0000 0.51797  0.97350  0.46310  Biso   1.000  N
  O9       1.0000 0.81441  0.72190  0.16710  Biso   1.000  O
  O10      1.0000 0.81095  0.15620  0.40980  Biso   1.000  O
  O11      1.0000 0.74800  0.79160  0.24730  Biso   1.000  O
  O12      1.0000 0.74581  0.08120  0.48610  Biso   1.000  O
  Cu3      1.0000 0.71191  0.79465  0.04748  Biso   1.000  Cu
  C37      1.0000 0.15394  0.47380  0.16070  Biso   1.000  C
  H40      1.0000 0.17670  0.50990  0.10860  Biso   1.000  H
  C38      1.0000 0.11987  0.52720  0.23700  Biso   1.000  C
  H41      1.0000 0.12000  0.59770  0.23610  Biso   1.000  H
  C39      1.0000 0.08558  0.47530  0.31480  Biso   1.000  C
  C40      1.0000 0.08817  0.37080  0.31590  Biso   1.000  C
  H42      1.0000 0.06610  0.33280  0.36820  Biso   1.000  H
  C41      1.0000 0.12355  0.32310  0.23900  Biso   1.000  C
  H43      1.0000 0.12520  0.25270  0.24310  Biso   1.000  H
  C42      1.0000 0.04756  0.53040  0.39680  Biso   1.000  C
  C43      1.0000 0.04793  0.64250  0.39200  Biso   1.000  C
  H44      1.0000 0.02190  0.66820  0.44820  Biso   1.000  H
  H45      1.0000 0.04560  0.66490  0.28510  Biso   1.000  H
  H46      1.0000 0.07650  0.66710  0.43950  Biso   1.000  H
  C44      1.0000 0.28984  0.26540  0.26820  Biso   1.000  C
  C45      1.0000 0.31279  0.28890  0.42560  Biso   1.000  C
  H47      1.0000 0.34640  0.29110  0.41470  Biso   1.000  H
  H48      1.0000 0.30580  0.23490  0.49850  Biso   1.000  H
  C46      1.0000 0.29626  0.39010  0.49240  Biso   1.000  C
  H49      1.0000 0.26310  0.38600  0.51180  Biso   1.000  H
  H50      1.0000 0.31250  0.40270  0.59170  Biso   1.000  H
  C47      1.0000 0.30516  0.47830  0.38040  Biso   1.000  C
  H51      1.0000 0.33860  0.48500  0.36880  Biso   1.000  H
  H52      1.0000 0.29160  0.46140  0.27840  Biso   1.000  H
  C48      1.0000 0.28586  0.58030  0.43040  Biso   1.000  C
  N7       1.0000 0.15567  0.37310  0.15840  Biso   1.000  N
  N8       1.0000 0.01797  0.47350  0.46310  Biso   1.000  N
  O13      1.0000 0.31441  0.22190  0.16710  Biso   1.000  O
  O14      1.0000 0.31095  0.65620  0.40980  Biso   1.000  O
  O15      1.0000 0.24800  0.29160  0.24730  Biso   1.000  O
  O16      1.0000 0.24581  0.58120  0.48610  Biso   1.000  O
  Cu4      1.0000 0.21191  0.29465  0.04748  Biso   1.000  Cu
  C49      1.0000 0.65394  0.02620  0.66070  Biso   1.000  C
  H53      1.0000 0.67670  0.99010  0.60860  Biso   1.000  H
  C50      1.0000 0.61987  0.97280  0.73700  Biso   1.000  C
  H54      1.0000 0.62000  0.90230  0.73610  Biso   1.000  H
  C51      1.0000 0.58558  0.02470  0.81480  Biso   1.000  C
  C52      1.0000 0.58817  0.12920  0.81590  Biso   1.000  C
  H55      1.0000 0.56610  0.16720  0.86820  Biso   1.000  H
  C53      1.0000 0.62355  0.17690  0.73900  Biso   1.000  C
  H56      1.0000 0.62520  0.24730  0.74310  Biso   1.000  H
  C54      1.0000 0.54756  0.96960  0.89680  Biso   1.000  C
  C55      1.0000 0.54793  0.85750  0.89200  Biso   1.000  C
  H57      1.0000 0.52190  0.83180  0.94820  Biso   1.000  H
  H58      1.0000 0.54560  0.83510  0.78510  Biso   1.000  H
  H59      1.0000 0.57650  0.83290  0.93950  Biso   1.000  H
  C56      1.0000 0.78984  0.23460  0.76820  Biso   1.000  C
  C57      1.0000 0.81279  0.21110  0.92560  Biso   1.000  C
  H60      1.0000 0.84640  0.20890  0.91470  Biso   1.000  H
  H61      1.0000 0.80580  0.26510  0.99850  Biso   1.000  H
  C58      1.0000 0.79626  0.10990  0.99240  Biso   1.000  C
  H62      1.0000 0.76310  0.11400  0.01180  Biso   1.000  H
  H63      1.0000 0.81250  0.09730  0.09170  Biso   1.000  H
  C59      1.0000 0.80516  0.02170  0.88040  Biso   1.000  C
  H64      1.0000 0.83860  0.01500  0.86880  Biso   1.000  H
  H65      1.0000 0.79160  0.03860  0.77840  Biso   1.000  H
  C60      1.0000 0.78586  0.91970  0.93040  Biso   1.000  C
  N9       1.0000 0.65567  0.12690  0.65840  Biso   1.000  N
  N10      1.0000 0.51797  0.02650  0.96310  Biso   1.000  N
  O17      1.0000 0.81441  0.27810  0.66710  Biso   1.000  O
  O18      1.0000 0.81095  0.84380  0.90980  Biso   1.000  O
  O19      1.0000 0.74800  0.20840  0.74730  Biso   1.000  O
  O20      1.0000 0.74581  0.91880  0.98610  Biso   1.000  O
  Cu5      1.0000 0.71191  0.20535  0.54748  Biso   1.000  Cu
  C61      1.0000 0.15394  0.52620  0.66070  Biso   1.000  C
  H66      1.0000 0.17670  0.49010  0.60860  Biso   1.000  H
  C62      1.0000 0.11987  0.47280  0.73700  Biso   1.000  C
  H67      1.0000 0.12000  0.40230  0.73610  Biso   1.000  H
  C63      1.0000 0.08558  0.52470  0.81480  Biso   1.000  C
  C64      1.0000 0.08817  0.62920  0.81590  Biso   1.000  C
  H68      1.0000 0.06610  0.66720  0.86820  Biso   1.000  H
  C65      1.0000 0.12355  0.67690  0.73900  Biso   1.000  C
  H69      1.0000 0.12520  0.74730  0.74310  Biso   1.000  H
  C66      1.0000 0.04756  0.46960  0.89680  Biso   1.000  C
  C67      1.0000 0.04793  0.35750  0.89200  Biso   1.000  C
  H70      1.0000 0.02190  0.33180  0.94820  Biso   1.000  H
  H71      1.0000 0.04560  0.33510  0.78510  Biso   1.000  H
  H72      1.0000 0.07650  0.33290  0.93950  Biso   1.000  H
  C68      1.0000 0.28984  0.73460  0.76820  Biso   1.000  C
  C69      1.0000 0.31279  0.71110  0.92560  Biso   1.000  C
  H73      1.0000 0.34640  0.70890  0.91470  Biso   1.000  H
  H74      1.0000 0.30580  0.76510  0.99850  Biso   1.000  H
  C70      1.0000 0.29626  0.60990  0.99240  Biso   1.000  C
  H75      1.0000 0.26310  0.61400  0.01180  Biso   1.000  H
  H76      1.0000 0.31250  0.59730  0.09170  Biso   1.000  H
  C71      1.0000 0.30516  0.52170  0.88040  Biso   1.000  C
  H77      1.0000 0.33860  0.51500  0.86880  Biso   1.000  H
  H78      1.0000 0.29160  0.53860  0.77840  Biso   1.000  H
  C72      1.0000 0.28586  0.41970  0.93040  Biso   1.000  C
  N11      1.0000 0.15567  0.62690  0.65840  Biso   1.000  N
  N12      1.0000 0.01797  0.52650  0.96310  Biso   1.000  N
  O21      1.0000 0.31441  0.77810  0.66710  Biso   1.000  O
  O22      1.0000 0.31095  0.34380  0.90980  Biso   1.000  O
  O23      1.0000 0.24800  0.70840  0.74730  Biso   1.000  O
  O24      1.0000 0.24581  0.41880  0.98610  Biso   1.000  O
  Cu6      1.0000 0.21191  0.70535  0.54748  Biso   1.000  Cu
  C73      1.0000 0.34606  0.02620  0.83930  Biso   1.000  C
  H79      1.0000 0.32330  0.99010  0.89140  Biso   1.000  H
  C74      1.0000 0.38013  0.97280  0.76300  Biso   1.000  C
  H80      1.0000 0.38000  0.90230  0.76390  Biso   1.000  H
  C75      1.0000 0.41442  0.02470  0.68520  Biso   1.000  C
  C76      1.0000 0.41183  0.12920  0.68410  Biso   1.000  C
  H81      1.0000 0.43390  0.16720  0.63180  Biso   1.000  H
  C77      1.0000 0.37645  0.17690  0.76100  Biso   1.000  C
  H82      1.0000 0.37480  0.24730  0.75690  Biso   1.000  H
  C78      1.0000 0.45244  0.96960  0.60320  Biso   1.000  C
  C79      1.0000 0.45207  0.85750  0.60800  Biso   1.000  C
  H83      1.0000 0.47810  0.83180  0.55180  Biso   1.000  H
  H84      1.0000 0.45440  0.83510  0.71490  Biso   1.000  H
  H85      1.0000 0.42350  0.83290  0.56050  Biso   1.000  H
  C80      1.0000 0.21016  0.23460  0.73180  Biso   1.000  C
  C81      1.0000 0.18721  0.21110  0.57440  Biso   1.000  C
  H86      1.0000 0.15360  0.20890  0.58530  Biso   1.000  H
  H87      1.0000 0.19420  0.26510  0.50150  Biso   1.000  H
  C82      1.0000 0.20374  0.10990  0.50760  Biso   1.000  C
  H88      1.0000 0.23690  0.11400  0.48820  Biso   1.000  H
  H89      1.0000 0.18750  0.09730  0.40830  Biso   1.000  H
  C83      1.0000 0.19484  0.02170  0.61960  Biso   1.000  C
  H90      1.0000 0.16140  0.01500  0.63120  Biso   1.000  H
  H91      1.0000 0.20840  0.03860  0.72160  Biso   1.000  H
  C84      1.0000 0.21414  0.91970  0.56960  Biso   1.000  C
  N13      1.0000 0.34433  0.12690  0.84160  Biso   1.000  N
  N14      1.0000 0.48203  0.02650  0.53690  Biso   1.000  N
  O25      1.0000 0.18559  0.27810  0.83290  Biso   1.000  O
  O26      1.0000 0.18905  0.84380  0.59020  Biso   1.000  O
  O27      1.0000 0.25200  0.20840  0.75270  Biso   1.000  O
  O28      1.0000 0.25419  0.91880  0.51390  Biso   1.000  O
  Cu7      1.0000 0.28809  0.20535  0.95252  Biso   1.000  Cu
  C85      1.0000 0.84606  0.52620  0.83930  Biso   1.000  C
  H92      1.0000 0.82330  0.49010  0.89140  Biso   1.000  H
  C86      1.0000 0.88013  0.47280  0.76300  Biso   1.000  C
  H93      1.0000 0.88000  0.40230  0.76390  Biso   1.000  H
  C87      1.0000 0.91442  0.52470  0.68520  Biso   1.000  C
  C88      1.0000 0.91183  0.62920  0.68410  Biso   1.000  C
  H94      1.0000 0.93390  0.66720  0.63180  Biso   1.000  H
  C89      1.0000 0.87645  0.67690  0.76100  Biso   1.000  C
  H95      1.0000 0.87480  0.74730  0.75690  Biso   1.000  H
  C90      1.0000 0.95244  0.46960  0.60320  Biso   1.000  C
  C91      1.0000 0.95207  0.35750  0.60800  Biso   1.000  C
  H96      1.0000 0.97810  0.33180  0.55180  Biso   1.000  H
  H97      1.0000 0.95440  0.33510  0.71490  Biso   1.000  H
  H98      1.0000 0.92350  0.33290  0.56050  Biso   1.000  H
  C92      1.0000 0.71016  0.73460  0.73180  Biso   1.000  C
  C93      1.0000 0.68721  0.71110  0.57440  Biso   1.000  C
  H99      1.0000 0.65360  0.70890  0.58530  Biso   1.000  H
  H100     1.0000 0.69420  0.76510  0.50150  Biso   1.000  H
  C94      1.0000 0.70374  0.60990  0.50760  Biso   1.000  C
  H101     1.0000 0.73690  0.61400  0.48820  Biso   1.000  H
  H102     1.0000 0.68750  0.59730  0.40830  Biso   1.000  H
  C95      1.0000 0.69484  0.52170  0.61960  Biso   1.000  C
  H103     1.0000 0.66140  0.51500  0.63120  Biso   1.000  H
  H104     1.0000 0.70840  0.53860  0.72160  Biso   1.000  H
  C96      1.0000 0.71414  0.41970  0.56960  Biso   1.000  C
  N15      1.0000 0.84433  0.62690  0.84160  Biso   1.000  N
  N16      1.0000 0.98203  0.52650  0.53690  Biso   1.000  N
  O29      1.0000 0.68559  0.77810  0.83290  Biso   1.000  O
  O30      1.0000 0.68905  0.34380  0.59020  Biso   1.000  O
  O31      1.0000 0.75200  0.70840  0.75270  Biso   1.000  O
  O32      1.0000 0.75419  0.41880  0.51390  Biso   1.000  O
  Cu8      1.0000 0.78809  0.70535  0.95252  Biso   1.000  Cu
