data_image0
_cell_length_a       29.135
_cell_length_b       13.191
_cell_length_c       8.599
_cell_angle_alpha    90
_cell_angle_beta     90.247
_cell_angle_gamma    90

_symmetry_space_group_name_H-M    "P 1"
_symmetry_int_tables_number       1

loop_
  _symmetry_equiv_pos_as_xyz
  'x, y, z'

loop_
  _atom_site_label
  _atom_site_occupancy
  _atom_site_fract_x
  _atom_site_fract_y
  _atom_site_fract_z
  _atom_site_thermal_displace_type
  _atom_site_B_iso_or_equiv
  _atom_site_type_symbol
  C1       1.0000 0.37646  0.82540  0.73880  Biso   1.000  C
  H1       1.0000 0.37610  0.75490  0.73730  Biso   1.000  H
  C2       1.0000 0.41149  0.87250  0.81670  Biso   1.000  C
  H2       1.0000 0.43380  0.83400  0.86700  Biso   1.000  H
  C3       1.0000 0.41390  0.97580  0.82110  Biso   1.000  C
  C4       1.0000 0.37858  0.02710  0.74750  Biso   1.000  C
  H3       1.0000 0.37780  0.09750  0.74930  Biso   1.000  H
  C5       1.0000 0.34447  0.97380  0.67160  Biso   1.000  C
  H4       1.0000 0.32130  0.01020  0.62210  Biso   1.000  H
  C6       1.0000 0.45202  0.03040  0.90010  Biso   1.000  C
  C7       1.0000 0.45216  0.14250  0.89690  Biso   1.000  C
  H5       1.0000 0.47870  0.16730  0.95150  Biso   1.000  H
  H6       1.0000 0.42490  0.16760  0.94630  Biso   1.000  H
  H7       1.0000 0.45290  0.16550  0.79110  Biso   1.000  H
  C8       1.0000 0.21112  0.76660  0.76200  Biso   1.000  C
  C9       1.0000 0.18851  0.79000  0.91520  Biso   1.000  C
  H8       1.0000 0.19510  0.73580  0.98820  Biso   1.000  H
  H9       1.0000 0.15550  0.79290  0.90030  Biso   1.000  H
  C10      1.0000 0.20519  0.89050  0.98340  Biso   1.000  C
  H10      1.0000 0.19030  0.90190  0.08250  Biso   1.000  H
  H11      1.0000 0.23800  0.88650  0.00220  Biso   1.000  H
  C11      1.0000 0.19527  0.97900  0.87640  Biso   1.000  C
  H12      1.0000 0.16220  0.98560  0.86550  Biso   1.000  H
  H13      1.0000 0.20750  0.96330  0.77440  Biso   1.000  H
  C12      1.0000 0.21454  0.08080  0.92750  Biso   1.000  C
  N1       1.0000 0.34310  0.87360  0.66550  Biso   1.000  N
  N2       1.0000 0.48184  0.97350  0.96400  Biso   1.000  N
  O1       1.0000 0.25193  0.79300  0.74580  Biso   1.000  O
  O2       1.0000 0.18730  0.72220  0.66000  Biso   1.000  O
  O3       1.0000 0.19042  0.15670  0.90370  Biso   1.000  O
  O4       1.0000 0.25385  0.08120  0.98550  Biso   1.000  O
  Cu1      1.0000 0.28745  0.79518  0.55066  Biso   1.000  Cu
  C13      1.0000 0.87646  0.32540  0.73880  Biso   1.000  C
  H14      1.0000 0.87610  0.25490  0.73730  Biso   1.000  H
  C14      1.0000 0.91149  0.37250  0.81670  Biso   1.000  C
  H15      1.0000 0.93380  0.33400  0.86700  Biso   1.000  H
  C15      1.0000 0.91390  0.47580  0.82110  Biso   1.000  C
  C16      1.0000 0.87858  0.52710  0.74750  Biso   1.000  C
  H16      1.0000 0.87780  0.59750  0.74930  Biso   1.000  H
  C17      1.0000 0.84447  0.47380  0.67160  Biso   1.000  C
  H17      1.0000 0.82130  0.51020  0.62210  Biso   1.000  H
  C18      1.0000 0.95202  0.53040  0.90010  Biso   1.000  C
  C19      1.0000 0.95216  0.64250  0.89690  Biso   1.000  C
  H18      1.0000 0.97870  0.66730  0.95150  Biso   1.000  H
  H19      1.0000 0.92490  0.66760  0.94630  Biso   1.000  H
  H20      1.0000 0.95290  0.66550  0.79110  Biso   1.000  H
  C20      1.0000 0.71112  0.26660  0.76200  Biso   1.000  C
  C21      1.0000 0.68851  0.29000  0.91520  Biso   1.000  C
  H21      1.0000 0.69510  0.23580  0.98820  Biso   1.000  H
  H22      1.0000 0.65550  0.29290  0.90030  Biso   1.000  H
  C22      1.0000 0.70519  0.39050  0.98340  Biso   1.000  C
  H23      1.0000 0.69030  0.40190  0.08250  Biso   1.000  H
  H24      1.0000 0.73800  0.38650  0.00220  Biso   1.000  H
  C23      1.0000 0.69527  0.47900  0.87640  Biso   1.000  C
  H25      1.0000 0.66220  0.48560  0.86550  Biso   1.000  H
  H26      1.0000 0.70750  0.46330  0.77440  Biso   1.000  H
  C24      1.0000 0.71454  0.58080  0.92750  Biso   1.000  C
  N3       1.0000 0.84310  0.37360  0.66550  Biso   1.000  N
  N4       1.0000 0.98184  0.47350  0.96400  Biso   1.000  N
  O5       1.0000 0.75193  0.29300  0.74580  Biso   1.000  O
  O6       1.0000 0.68730  0.22220  0.66000  Biso   1.000  O
  O7       1.0000 0.69042  0.65670  0.90370  Biso   1.000  O
  O8       1.0000 0.75385  0.58120  0.98550  Biso   1.000  O
  Cu2      1.0000 0.78745  0.29518  0.55066  Biso   1.000  Cu
  C25      1.0000 0.62354  0.82540  0.76120  Biso   1.000  C
  H27      1.0000 0.62390  0.75490  0.76270  Biso   1.000  H
  C26      1.0000 0.58851  0.87250  0.68330  Biso   1.000  C
  H28      1.0000 0.56620  0.83400  0.63300  Biso   1.000  H
  C27      1.0000 0.58610  0.97580  0.67890  Biso   1.000  C
  C28      1.0000 0.62142  0.02710  0.75250  Biso   1.000  C
  H29      1.0000 0.62220  0.09750  0.75070  Biso   1.000  H
  C29      1.0000 0.65553  0.97380  0.82840  Biso   1.000  C
  H30      1.0000 0.67870  0.01020  0.87790  Biso   1.000  H
  C30      1.0000 0.54798  0.03040  0.59990  Biso   1.000  C
  C31      1.0000 0.54784  0.14250  0.60310  Biso   1.000  C
  H31      1.0000 0.52130  0.16730  0.54850  Biso   1.000  H
  H32      1.0000 0.57510  0.16760  0.55370  Biso   1.000  H
  H33      1.0000 0.54710  0.16550  0.70890  Biso   1.000  H
  C32      1.0000 0.78888  0.76660  0.73800  Biso   1.000  C
  C33      1.0000 0.81149  0.79000  0.58480  Biso   1.000  C
  H34      1.0000 0.80490  0.73580  0.51180  Biso   1.000  H
  H35      1.0000 0.84450  0.79290  0.59970  Biso   1.000  H
  C34      1.0000 0.79481  0.89050  0.51660  Biso   1.000  C
  H36      1.0000 0.80970  0.90190  0.41750  Biso   1.000  H
  H37      1.0000 0.76200  0.88650  0.49780  Biso   1.000  H
  C35      1.0000 0.80473  0.97900  0.62360  Biso   1.000  C
  H38      1.0000 0.83780  0.98560  0.63450  Biso   1.000  H
  H39      1.0000 0.79250  0.96330  0.72560  Biso   1.000  H
  C36      1.0000 0.78546  0.08080  0.57250  Biso   1.000  C
  N5       1.0000 0.65690  0.87360  0.83450  Biso   1.000  N
  N6       1.0000 0.51816  0.97350  0.53600  Biso   1.000  N
  O9       1.0000 0.74807  0.79300  0.75420  Biso   1.000  O
  O10      1.0000 0.81270  0.72220  0.84000  Biso   1.000  O
  O11      1.0000 0.80958  0.15670  0.59630  Biso   1.000  O
  O12      1.0000 0.74615  0.08120  0.51450  Biso   1.000  O
  Cu3      1.0000 0.71255  0.79518  0.94934  Biso   1.000  Cu
  C37      1.0000 0.12354  0.32540  0.76120  Biso   1.000  C
  H40      1.0000 0.12390  0.25490  0.76270  Biso   1.000  H
  C38      1.0000 0.08851  0.37250  0.68330  Biso   1.000  C
  H41      1.0000 0.06620  0.33400  0.63300  Biso   1.000  H
  C39      1.0000 0.08610  0.47580  0.67890  Biso   1.000  C
  C40      1.0000 0.12142  0.52710  0.75250  Biso   1.000  C
  H42      1.0000 0.12220  0.59750  0.75070  Biso   1.000  H
  C41      1.0000 0.15553  0.47380  0.82840  Biso   1.000  C
  H43      1.0000 0.17870  0.51020  0.87790  Biso   1.000  H
  C42      1.0000 0.04798  0.53040  0.59990  Biso   1.000  C
  C43      1.0000 0.04784  0.64250  0.60310  Biso   1.000  C
  H44      1.0000 0.02130  0.66730  0.54850  Biso   1.000  H
  H45      1.0000 0.07510  0.66760  0.55370  Biso   1.000  H
  H46      1.0000 0.04710  0.66550  0.70890  Biso   1.000  H
  C44      1.0000 0.28888  0.26660  0.73800  Biso   1.000  C
  C45      1.0000 0.31149  0.29000  0.58480  Biso   1.000  C
  H47      1.0000 0.30490  0.23580  0.51180  Biso   1.000  H
  H48      1.0000 0.34450  0.29290  0.59970  Biso   1.000  H
  C46      1.0000 0.29481  0.39050  0.51660  Biso   1.000  C
  H49      1.0000 0.30970  0.40190  0.41750  Biso   1.000  H
  H50      1.0000 0.26200  0.38650  0.49780  Biso   1.000  H
  C47      1.0000 0.30473  0.47900  0.62360  Biso   1.000  C
  H51      1.0000 0.33780  0.48560  0.63450  Biso   1.000  H
  H52      1.0000 0.29250  0.46330  0.72560  Biso   1.000  H
  C48      1.0000 0.28546  0.58080  0.57250  Biso   1.000  C
  N7       1.0000 0.15690  0.37360  0.83450  Biso   1.000  N
  N8       1.0000 0.01816  0.47350  0.53600  Biso   1.000  N
  O13      1.0000 0.24807  0.29300  0.75420  Biso   1.000  O
  O14      1.0000 0.31270  0.22220  0.84000  Biso   1.000  O
  O15      1.0000 0.30958  0.65670  0.59630  Biso   1.000  O
  O16      1.0000 0.24615  0.58120  0.51450  Biso   1.000  O
  Cu4      1.0000 0.21255  0.29518  0.94934  Biso   1.000  Cu
  C49      1.0000 0.62354  0.17460  0.26120  Biso   1.000  C
  H53      1.0000 0.62390  0.24510  0.26270  Biso   1.000  H
  C50      1.0000 0.58851  0.12750  0.18330  Biso   1.000  C
  H54      1.0000 0.56620  0.16600  0.13300  Biso   1.000  H
  C51      1.0000 0.58610  0.02420  0.17890  Biso   1.000  C
  C52      1.0000 0.62142  0.97290  0.25250  Biso   1.000  C
  H55      1.0000 0.62220  0.90250  0.25070  Biso   1.000  H
  C53      1.0000 0.65553  0.02620  0.32840  Biso   1.000  C
  H56      1.0000 0.67870  0.98980  0.37790  Biso   1.000  H
  C54      1.0000 0.54798  0.96960  0.09990  Biso   1.000  C
  C55      1.0000 0.54784  0.85750  0.10310  Biso   1.000  C
  H57      1.0000 0.52130  0.83270  0.04850  Biso   1.000  H
  H58      1.0000 0.57510  0.83240  0.05370  Biso   1.000  H
  H59      1.0000 0.54710  0.83450  0.20890  Biso   1.000  H
  C56      1.0000 0.78888  0.23340  0.23800  Biso   1.000  C
  C57      1.0000 0.81149  0.21000  0.08480  Biso   1.000  C
  H60      1.0000 0.80490  0.26420  0.01180  Biso   1.000  H
  H61      1.0000 0.84450  0.20710  0.09970  Biso   1.000  H
  C58      1.0000 0.79481  0.10950  0.01660  Biso   1.000  C
  H62      1.0000 0.80970  0.09810  0.91750  Biso   1.000  H
  H63      1.0000 0.76200  0.11350  0.99780  Biso   1.000  H
  C59      1.0000 0.80473  0.02100  0.12360  Biso   1.000  C
  H64      1.0000 0.83780  0.01440  0.13450  Biso   1.000  H
  H65      1.0000 0.79250  0.03670  0.22560  Biso   1.000  H
  C60      1.0000 0.78546  0.91920  0.07250  Biso   1.000  C
  N9       1.0000 0.65690  0.12640  0.33450  Biso   1.000  N
  N10      1.0000 0.51816  0.02650  0.03600  Biso   1.000  N
  O17      1.0000 0.74807  0.20700  0.25420  Biso   1.000  O
  O18      1.0000 0.81270  0.27780  0.34000  Biso   1.000  O
  O19      1.0000 0.80958  0.84330  0.09630  Biso   1.000  O
  O20      1.0000 0.74615  0.91880  0.01450  Biso   1.000  O
  Cu5      1.0000 0.71255  0.20482  0.44934  Biso   1.000  Cu
  C61      1.0000 0.12354  0.67460  0.26120  Biso   1.000  C
  H66      1.0000 0.12390  0.74510  0.26270  Biso   1.000  H
  C62      1.0000 0.08851  0.62750  0.18330  Biso   1.000  C
  H67      1.0000 0.06620  0.66600  0.13300  Biso   1.000  H
  C63      1.0000 0.08610  0.52420  0.17890  Biso   1.000  C
  C64      1.0000 0.12142  0.47290  0.25250  Biso   1.000  C
  H68      1.0000 0.12220  0.40250  0.25070  Biso   1.000  H
  C65      1.0000 0.15553  0.52620  0.32840  Biso   1.000  C
  H69      1.0000 0.17870  0.48980  0.37790  Biso   1.000  H
  C66      1.0000 0.04798  0.46960  0.09990  Biso   1.000  C
  C67      1.0000 0.04784  0.35750  0.10310  Biso   1.000  C
  H70      1.0000 0.02130  0.33270  0.04850  Biso   1.000  H
  H71      1.0000 0.07510  0.33240  0.05370  Biso   1.000  H
  H72      1.0000 0.04710  0.33450  0.20890  Biso   1.000  H
  C68      1.0000 0.28888  0.73340  0.23800  Biso   1.000  C
  C69      1.0000 0.31149  0.71000  0.08480  Biso   1.000  C
  H73      1.0000 0.30490  0.76420  0.01180  Biso   1.000  H
  H74      1.0000 0.34450  0.70710  0.09970  Biso   1.000  H
  C70      1.0000 0.29481  0.60950  0.01660  Biso   1.000  C
  H75      1.0000 0.30970  0.59810  0.91750  Biso   1.000  H
  H76      1.0000 0.26200  0.61350  0.99780  Biso   1.000  H
  C71      1.0000 0.30473  0.52100  0.12360  Biso   1.000  C
  H77      1.0000 0.33780  0.51440  0.13450  Biso   1.000  H
  H78      1.0000 0.29250  0.53670  0.22560  Biso   1.000  H
  C72      1.0000 0.28546  0.41920  0.07250  Biso   1.000  C
  N11      1.0000 0.15690  0.62640  0.33450  Biso   1.000  N
  N12      1.0000 0.01816  0.52650  0.03600  Biso   1.000  N
  O21      1.0000 0.24807  0.70700  0.25420  Biso   1.000  O
  O22      1.0000 0.31270  0.77780  0.34000  Biso   1.000  O
  O23      1.0000 0.30958  0.34330  0.09630  Biso   1.000  O
  O24      1.0000 0.24615  0.41880  0.01450  Biso   1.000  O
  Cu6      1.0000 0.21255  0.70482  0.44934  Biso   1.000  Cu
  C73      1.0000 0.37646  0.17460  0.23880  Biso   1.000  C
  H79      1.0000 0.37610  0.24510  0.23730  Biso   1.000  H
  C74      1.0000 0.41149  0.12750  0.31670  Biso   1.000  C
  H80      1.0000 0.43380  0.16600  0.36700  Biso   1.000  H
  C75      1.0000 0.41390  0.02420  0.32110  Biso   1.000  C
  C76      1.0000 0.37858  0.97290  0.24750  Biso   1.000  C
  H81      1.0000 0.37780  0.90250  0.24930  Biso   1.000  H
  C77      1.0000 0.34447  0.02620  0.17160  Biso   1.000  C
  H82      1.0000 0.32130  0.98980  0.12210  Biso   1.000  H
  C78      1.0000 0.45202  0.96960  0.40010  Biso   1.000  C
  C79      1.0000 0.45216  0.85750  0.39690  Biso   1.000  C
  H83      1.0000 0.47870  0.83270  0.45150  Biso   1.000  H
  H84      1.0000 0.42490  0.83240  0.44630  Biso   1.000  H
  H85      1.0000 0.45290  0.83450  0.29110  Biso   1.000  H
  C80      1.0000 0.21112  0.23340  0.26200  Biso   1.000  C
  C81      1.0000 0.18851  0.21000  0.41520  Biso   1.000  C
  H86      1.0000 0.19510  0.26420  0.48820  Biso   1.000  H
  H87      1.0000 0.15550  0.20710  0.40030  Biso   1.000  H
  C82      1.0000 0.20519  0.10950  0.48340  Biso   1.000  C
  H88      1.0000 0.19030  0.09810  0.58250  Biso   1.000  H
  H89      1.0000 0.23800  0.11350  0.50220  Biso   1.000  H
  C83      1.0000 0.19527  0.02100  0.37640  Biso   1.000  C
  H90      1.0000 0.16220  0.01440  0.36550  Biso   1.000  H
  H91      1.0000 0.20750  0.03670  0.27440  Biso   1.000  H
  C84      1.0000 0.21454  0.91920  0.42750  Biso   1.000  C
  N13      1.0000 0.34310  0.12640  0.16550  Biso   1.000  N
  N14      1.0000 0.48184  0.02650  0.46400  Biso   1.000  N
  O25      1.0000 0.25193  0.20700  0.24580  Biso   1.000  O
  O26      1.0000 0.18730  0.27780  0.16000  Biso   1.000  O
  O27      1.0000 0.19042  0.84330  0.40370  Biso   1.000  O
  O28      1.0000 0.25385  0.91880  0.48550  Biso   1.000  O
  Cu7      1.0000 0.28745  0.20482  0.05066  Biso   1.000  Cu
  C85      1.0000 0.87646  0.67460  0.23880  Biso   1.000  C
  H92      1.0000 0.87610  0.74510  0.23730  Biso   1.000  H
  C86      1.0000 0.91149  0.62750  0.31670  Biso   1.000  C
  H93      1.0000 0.93380  0.66600  0.36700  Biso   1.000  H
  C87      1.0000 0.91390  0.52420  0.32110  Biso   1.000  C
  C88      1.0000 0.87858  0.47290  0.24750  Biso   1.000  C
  H94      1.0000 0.87780  0.40250  0.24930  Biso   1.000  H
  C89      1.0000 0.84447  0.52620  0.17160  Biso   1.000  C
  H95      1.0000 0.82130  0.48980  0.12210  Biso   1.000  H
  C90      1.0000 0.95202  0.46960  0.40010  Biso   1.000  C
  C91      1.0000 0.95216  0.35750  0.39690  Biso   1.000  C
  H96      1.0000 0.97870  0.33270  0.45150  Biso   1.000  H
  H97      1.0000 0.92490  0.33240  0.44630  Biso   1.000  H
  H98      1.0000 0.95290  0.33450  0.29110  Biso   1.000  H
  C92      1.0000 0.71112  0.73340  0.26200  Biso   1.000  C
  C93      1.0000 0.68851  0.71000  0.41520  Biso   1.000  C
  H99      1.0000 0.69510  0.76420  0.48820  Biso   1.000  H
  H100     1.0000 0.65550  0.70710  0.40030  Biso   1.000  H
  C94      1.0000 0.70519  0.60950  0.48340  Biso   1.000  C
  H101     1.0000 0.69030  0.59810  0.58250  Biso   1.000  H
  H102     1.0000 0.73800  0.61350  0.50220  Biso   1.000  H
  C95      1.0000 0.69527  0.52100  0.37640  Biso   1.000  C
  H103     1.0000 0.66220  0.51440  0.36550  Biso   1.000  H
  H104     1.0000 0.70750  0.53670  0.27440  Biso   1.000  H
  C96      1.0000 0.71454  0.41920  0.42750  Biso   1.000  C
  N15      1.0000 0.84310  0.62640  0.16550  Biso   1.000  N
  N16      1.0000 0.98184  0.52650  0.46400  Biso   1.000  N
  O29      1.0000 0.75193  0.70700  0.24580  Biso   1.000  O
  O30      1.0000 0.68730  0.77780  0.16000  Biso   1.000  O
  O31      1.0000 0.69042  0.34330  0.40370  Biso   1.000  O
  O32      1.0000 0.75385  0.41880  0.48550  Biso   1.000  O
  Cu8      1.0000 0.78745  0.70482  0.05066  Biso   1.000  Cu
