data_image0
_cell_length_a       23.0051
_cell_length_b       23.0051
_cell_length_c       15.7608
_cell_angle_alpha    90
_cell_angle_beta     90
_cell_angle_gamma    120

_symmetry_space_group_name_H-M    "P 1"
_symmetry_int_tables_number       1

loop_
  _symmetry_equiv_pos_as_xyz
  'x, y, z'

loop_
  _atom_site_label
  _atom_site_occupancy
  _atom_site_fract_x
  _atom_site_fract_y
  _atom_site_fract_z
  _atom_site_thermal_displace_type
  _atom_site_B_iso_or_equiv
  _atom_site_type_symbol
  N1       1.0000 0.96844  0.31790  0.42521  Biso   1.000  N
  C1       1.0000 0.99094  0.35809  0.49264  Biso   1.000  C
  H1       1.0000 0.98461  0.39474  0.49887  Biso   1.000  H
  N2       1.0000 0.02340  0.34252  0.55122  Biso   1.000  N
  C2       1.0000 0.98962  0.27128  0.43890  Biso   1.000  C
  C3       1.0000 0.98063  0.21726  0.39130  Biso   1.000  C
  H2       1.0000 0.95835  0.20704  0.33954  Biso   1.000  H
  C4       1.0000 0.00628  0.17939  0.42342  Biso   1.000  C
  H3       1.0000 0.00146  0.14286  0.39244  Biso   1.000  H
  C5       1.0000 0.03978  0.19419  0.50285  Biso   1.000  C
  H4       1.0000 0.05663  0.16737  0.52254  Biso   1.000  H
  C6       1.0000 0.02290  0.28607  0.51774  Biso   1.000  C
  C7       1.0000 0.04783  0.24717  0.55086  Biso   1.000  C
  H5       1.0000 0.06904  0.25663  0.60345  Biso   1.000  H
  N3       1.0000 0.92601  0.41563  0.35376  Biso   1.000  N
  C8       1.0000 0.94710  0.47651  0.32463  Biso   1.000  C
  H6       1.0000 0.97576  0.49313  0.27827  Biso   1.000  H
  N4       1.0000 0.92576  0.51288  0.36392  Biso   1.000  N
  C9       1.0000 0.88498  0.47106  0.42680  Biso   1.000  C
  C10      1.0000 0.84796  0.48132  0.49211  Biso   1.000  C
  H7       1.0000 0.84896  0.52200  0.49709  Biso   1.000  H
  C11      1.0000 0.88449  0.41149  0.42193  Biso   1.000  C
  C12      1.0000 0.84632  0.35688  0.47996  Biso   1.000  C
  H8       1.0000 0.84639  0.31656  0.47632  Biso   1.000  H
  C13      1.0000 0.81122  0.43028  0.54673  Biso   1.000  C
  H9       1.0000 0.78646  0.43658  0.58865  Biso   1.000  H
  C14      1.0000 0.80948  0.36780  0.54198  Biso   1.000  C
  H10      1.0000 0.78360  0.33391  0.58033  Biso   1.000  H
  Zn1      1.0000 0.93425  0.32844  0.32063  Biso   1.000  Zn
  N5       1.0000 0.63511  0.65123  0.75854  Biso   1.000  N
  C15      1.0000 0.65761  0.69142  0.82597  Biso   1.000  C
  H11      1.0000 0.65128  0.72807  0.83220  Biso   1.000  H
  N6       1.0000 0.69007  0.67585  0.88455  Biso   1.000  N
  C16      1.0000 0.65629  0.60461  0.77223  Biso   1.000  C
  C17      1.0000 0.64730  0.55059  0.72463  Biso   1.000  C
  H12      1.0000 0.62502  0.54037  0.67287  Biso   1.000  H
  C18      1.0000 0.67295  0.51272  0.75675  Biso   1.000  C
  H13      1.0000 0.66813  0.47619  0.72577  Biso   1.000  H
  C19      1.0000 0.70645  0.52752  0.83618  Biso   1.000  C
  H14      1.0000 0.72330  0.50070  0.85587  Biso   1.000  H
  C20      1.0000 0.68957  0.61940  0.85107  Biso   1.000  C
  C21      1.0000 0.71450  0.58050  0.88419  Biso   1.000  C
  H15      1.0000 0.73571  0.58996  0.93678  Biso   1.000  H
  N7       1.0000 0.59268  0.74896  0.68709  Biso   1.000  N
  C22      1.0000 0.61377  0.80984  0.65796  Biso   1.000  C
  H16      1.0000 0.64243  0.82646  0.61160  Biso   1.000  H
  N8       1.0000 0.59243  0.84621  0.69725  Biso   1.000  N
  C23      1.0000 0.55165  0.80439  0.76013  Biso   1.000  C
  C24      1.0000 0.51463  0.81465  0.82544  Biso   1.000  C
  H17      1.0000 0.51563  0.85533  0.83042  Biso   1.000  H
  C25      1.0000 0.55116  0.74482  0.75526  Biso   1.000  C
  C26      1.0000 0.51299  0.69021  0.81329  Biso   1.000  C
  H18      1.0000 0.51306  0.64989  0.80965  Biso   1.000  H
  C27      1.0000 0.47789  0.76361  0.88006  Biso   1.000  C
  H19      1.0000 0.45313  0.76991  0.92198  Biso   1.000  H
  C28      1.0000 0.47615  0.70113  0.87531  Biso   1.000  C
  H20      1.0000 0.45027  0.66724  0.91366  Biso   1.000  H
  Zn2      1.0000 0.60092  0.66177  0.65396  Biso   1.000  Zn
  N9       1.0000 0.30177  0.98457  0.09188  Biso   1.000  N
  C29      1.0000 0.32427  0.02476  0.15931  Biso   1.000  C
  H21      1.0000 0.31794  0.06141  0.16554  Biso   1.000  H
  N10      1.0000 0.35673  0.00919  0.21789  Biso   1.000  N
  C30      1.0000 0.32295  0.93795  0.10557  Biso   1.000  C
  C31      1.0000 0.31396  0.88393  0.05797  Biso   1.000  C
  H22      1.0000 0.29168  0.87371  0.00621  Biso   1.000  H
  C32      1.0000 0.33961  0.84606  0.09009  Biso   1.000  C
  H23      1.0000 0.33479  0.80953  0.05911  Biso   1.000  H
  C33      1.0000 0.37311  0.86086  0.16952  Biso   1.000  C
  H24      1.0000 0.38996  0.83404  0.18921  Biso   1.000  H
  C34      1.0000 0.35623  0.95274  0.18441  Biso   1.000  C
  C35      1.0000 0.38116  0.91384  0.21753  Biso   1.000  C
  H25      1.0000 0.40237  0.92330  0.27012  Biso   1.000  H
  N11      1.0000 0.25934  0.08230  0.02043  Biso   1.000  N
  C36      1.0000 0.28043  0.14318  0.99130  Biso   1.000  C
  H26      1.0000 0.30909  0.15980  0.94494  Biso   1.000  H
  N12      1.0000 0.25909  0.17955  0.03059  Biso   1.000  N
  C37      1.0000 0.21831  0.13773  0.09347  Biso   1.000  C
  C38      1.0000 0.18129  0.14799  0.15878  Biso   1.000  C
  H27      1.0000 0.18229  0.18867  0.16376  Biso   1.000  H
  C39      1.0000 0.21782  0.07816  0.08860  Biso   1.000  C
  C40      1.0000 0.17965  0.02355  0.14663  Biso   1.000  C
  H28      1.0000 0.17972  0.98323  0.14299  Biso   1.000  H
  C41      1.0000 0.14455  0.09695  0.21340  Biso   1.000  C
  H29      1.0000 0.11979  0.10325  0.25532  Biso   1.000  H
  C42      1.0000 0.14281  0.03447  0.20865  Biso   1.000  C
  H30      1.0000 0.11693  0.00058  0.24700  Biso   1.000  H
  Zn3      1.0000 0.26758  0.99511  0.98730  Biso   1.000  Zn
  N13      1.0000 0.68210  0.65054  0.42521  Biso   1.000  N
  C43      1.0000 0.64191  0.63285  0.49264  Biso   1.000  C
  H31      1.0000 0.60526  0.58987  0.49887  Biso   1.000  H
  N14      1.0000 0.65748  0.68088  0.55122  Biso   1.000  N
  C44      1.0000 0.72872  0.71834  0.43890  Biso   1.000  C
  C45      1.0000 0.78274  0.76337  0.39130  Biso   1.000  C
  H32      1.0000 0.79296  0.75131  0.33954  Biso   1.000  H
  C46      1.0000 0.82061  0.82689  0.42342  Biso   1.000  C
  H33      1.0000 0.85714  0.85860  0.39244  Biso   1.000  H
  C47      1.0000 0.80581  0.84559  0.50285  Biso   1.000  C
  H34      1.0000 0.83263  0.88926  0.52254  Biso   1.000  H
  C48      1.0000 0.71393  0.73683  0.51774  Biso   1.000  C
  C49      1.0000 0.75283  0.80066  0.55086  Biso   1.000  C
  H35      1.0000 0.74337  0.81241  0.60345  Biso   1.000  H
  N15      1.0000 0.58437  0.51038  0.35376  Biso   1.000  N
  C50      1.0000 0.52349  0.47059  0.32463  Biso   1.000  C
  H36      1.0000 0.50687  0.48263  0.27827  Biso   1.000  H
  N16      1.0000 0.48712  0.41288  0.36392  Biso   1.000  N
  C51      1.0000 0.52894  0.41392  0.42680  Biso   1.000  C
  C52      1.0000 0.51868  0.36664  0.49211  Biso   1.000  C
  H37      1.0000 0.47800  0.32696  0.49709  Biso   1.000  H
  C53      1.0000 0.58851  0.47300  0.42193  Biso   1.000  C
  C54      1.0000 0.64312  0.48944  0.47996  Biso   1.000  C
  H38      1.0000 0.68344  0.52983  0.47632  Biso   1.000  H
  C55      1.0000 0.56972  0.38094  0.54673  Biso   1.000  C
  H39      1.0000 0.56342  0.34988  0.58865  Biso   1.000  H
  C56      1.0000 0.63220  0.44168  0.54198  Biso   1.000  C
  H40      1.0000 0.66609  0.44969  0.58033  Biso   1.000  H
  Zn4      1.0000 0.67156  0.60581  0.32063  Biso   1.000  Zn
  N17      1.0000 0.34877  0.98387  0.75854  Biso   1.000  N
  C57      1.0000 0.30858  0.96618  0.82597  Biso   1.000  C
  H41      1.0000 0.27193  0.92320  0.83220  Biso   1.000  H
  N18      1.0000 0.32415  0.01421  0.88455  Biso   1.000  N
  C58      1.0000 0.39539  0.05167  0.77223  Biso   1.000  C
  C59      1.0000 0.44941  0.09670  0.72463  Biso   1.000  C
  H42      1.0000 0.45963  0.08464  0.67287  Biso   1.000  H
  C60      1.0000 0.48728  0.16022  0.75675  Biso   1.000  C
  H43      1.0000 0.52381  0.19193  0.72577  Biso   1.000  H
  C61      1.0000 0.47248  0.17892  0.83618  Biso   1.000  C
  H44      1.0000 0.49930  0.22259  0.85587  Biso   1.000  H
  C62      1.0000 0.38060  0.07016  0.85107  Biso   1.000  C
  C63      1.0000 0.41950  0.13399  0.88419  Biso   1.000  C
  H45      1.0000 0.41004  0.14574  0.93678  Biso   1.000  H
  N19      1.0000 0.25104  0.84371  0.68709  Biso   1.000  N
  C64      1.0000 0.19016  0.80392  0.65796  Biso   1.000  C
  H46      1.0000 0.17354  0.81596  0.61160  Biso   1.000  H
  N20      1.0000 0.15379  0.74621  0.69725  Biso   1.000  N
  C65      1.0000 0.19561  0.74725  0.76013  Biso   1.000  C
  C66      1.0000 0.18535  0.69997  0.82544  Biso   1.000  C
  H47      1.0000 0.14467  0.66029  0.83042  Biso   1.000  H
  C67      1.0000 0.25518  0.80633  0.75526  Biso   1.000  C
  C68      1.0000 0.30979  0.82277  0.81329  Biso   1.000  C
  H48      1.0000 0.35011  0.86316  0.80965  Biso   1.000  H
  C69      1.0000 0.23639  0.71427  0.88006  Biso   1.000  C
  H49      1.0000 0.23009  0.68321  0.92198  Biso   1.000  H
  C70      1.0000 0.29887  0.77501  0.87531  Biso   1.000  C
  H50      1.0000 0.33276  0.78302  0.91366  Biso   1.000  H
  Zn5      1.0000 0.33823  0.93914  0.65396  Biso   1.000  Zn
  N21      1.0000 0.01543  0.31721  0.09188  Biso   1.000  N
  C71      1.0000 0.97524  0.29952  0.15931  Biso   1.000  C
  H51      1.0000 0.93859  0.25654  0.16554  Biso   1.000  H
  N22      1.0000 0.99081  0.34755  0.21789  Biso   1.000  N
  C72      1.0000 0.06205  0.38501  0.10557  Biso   1.000  C
  C73      1.0000 0.11607  0.43004  0.05797  Biso   1.000  C
  H52      1.0000 0.12629  0.41798  0.00621  Biso   1.000  H
  C74      1.0000 0.15394  0.49356  0.09009  Biso   1.000  C
  H53      1.0000 0.19047  0.52527  0.05911  Biso   1.000  H
  C75      1.0000 0.13914  0.51226  0.16952  Biso   1.000  C
  H54      1.0000 0.16596  0.55593  0.18921  Biso   1.000  H
  C76      1.0000 0.04726  0.40350  0.18441  Biso   1.000  C
  C77      1.0000 0.08616  0.46733  0.21753  Biso   1.000  C
  H55      1.0000 0.07670  0.47908  0.27012  Biso   1.000  H
  N23      1.0000 0.91770  0.17705  0.02043  Biso   1.000  N
  C78      1.0000 0.85682  0.13726  0.99130  Biso   1.000  C
  H56      1.0000 0.84020  0.14930  0.94494  Biso   1.000  H
  N24      1.0000 0.82045  0.07955  0.03059  Biso   1.000  N
  C79      1.0000 0.86227  0.08059  0.09347  Biso   1.000  C
  C80      1.0000 0.85201  0.03331  0.15878  Biso   1.000  C
  H57      1.0000 0.81133  0.99363  0.16376  Biso   1.000  H
  C81      1.0000 0.92184  0.13967  0.08860  Biso   1.000  C
  C82      1.0000 0.97645  0.15611  0.14663  Biso   1.000  C
  H58      1.0000 0.01677  0.19650  0.14299  Biso   1.000  H
  C83      1.0000 0.90305  0.04761  0.21340  Biso   1.000  C
  H59      1.0000 0.89675  0.01655  0.25532  Biso   1.000  H
  C84      1.0000 0.96553  0.10835  0.20865  Biso   1.000  C
  H60      1.0000 0.99942  0.11636  0.24700  Biso   1.000  H
  Zn6      1.0000 0.00489  0.27248  0.98730  Biso   1.000  Zn
  N25      1.0000 0.34946  0.03156  0.42521  Biso   1.000  N
  C85      1.0000 0.36715  0.00906  0.49264  Biso   1.000  C
  H61      1.0000 0.41013  0.01539  0.49887  Biso   1.000  H
  N26      1.0000 0.31912  0.97660  0.55122  Biso   1.000  N
  C86      1.0000 0.28166  0.01038  0.43890  Biso   1.000  C
  C87      1.0000 0.23663  0.01937  0.39130  Biso   1.000  C
  H62      1.0000 0.24869  0.04165  0.33954  Biso   1.000  H
  C88      1.0000 0.17311  0.99372  0.42342  Biso   1.000  C
  H63      1.0000 0.14140  0.99854  0.39244  Biso   1.000  H
  C89      1.0000 0.15441  0.96022  0.50285  Biso   1.000  C
  H64      1.0000 0.11074  0.94337  0.52254  Biso   1.000  H
  C90      1.0000 0.26317  0.97710  0.51774  Biso   1.000  C
  C91      1.0000 0.19934  0.95217  0.55086  Biso   1.000  C
  H65      1.0000 0.18759  0.93096  0.60345  Biso   1.000  H
  N27      1.0000 0.48962  0.07399  0.35376  Biso   1.000  N
  C92      1.0000 0.52941  0.05290  0.32463  Biso   1.000  C
  H66      1.0000 0.51737  0.02424  0.27827  Biso   1.000  H
  N28      1.0000 0.58712  0.07424  0.36392  Biso   1.000  N
  C93      1.0000 0.58608  0.11502  0.42680  Biso   1.000  C
  C94      1.0000 0.63336  0.15204  0.49211  Biso   1.000  C
  H67      1.0000 0.67304  0.15104  0.49709  Biso   1.000  H
  C95      1.0000 0.52700  0.11551  0.42193  Biso   1.000  C
  C96      1.0000 0.51056  0.15368  0.47996  Biso   1.000  C
  H68      1.0000 0.47017  0.15361  0.47632  Biso   1.000  H
  C97      1.0000 0.61906  0.18878  0.54673  Biso   1.000  C
  H69      1.0000 0.65012  0.21354  0.58865  Biso   1.000  H
  C98      1.0000 0.55832  0.19052  0.54198  Biso   1.000  C
  H70      1.0000 0.55031  0.21640  0.58033  Biso   1.000  H
  Zn7      1.0000 0.39419  0.06575  0.32063  Biso   1.000  Zn
  N29      1.0000 0.01613  0.36489  0.75854  Biso   1.000  N
  C99      1.0000 0.03382  0.34239  0.82597  Biso   1.000  C
  H71      1.0000 0.07680  0.34872  0.83220  Biso   1.000  H
  N30      1.0000 0.98579  0.30993  0.88455  Biso   1.000  N
  C100     1.0000 0.94833  0.34371  0.77223  Biso   1.000  C
  C101     1.0000 0.90330  0.35270  0.72463  Biso   1.000  C
  H72      1.0000 0.91536  0.37498  0.67287  Biso   1.000  H
  C102     1.0000 0.83978  0.32705  0.75675  Biso   1.000  C
  H73      1.0000 0.80807  0.33187  0.72577  Biso   1.000  H
  C103     1.0000 0.82108  0.29355  0.83618  Biso   1.000  C
  H74      1.0000 0.77741  0.27670  0.85587  Biso   1.000  H
  C104     1.0000 0.92984  0.31043  0.85107  Biso   1.000  C
  C105     1.0000 0.86601  0.28550  0.88419  Biso   1.000  C
  H75      1.0000 0.85426  0.26429  0.93678  Biso   1.000  H
  N31      1.0000 0.15629  0.40732  0.68709  Biso   1.000  N
  C106     1.0000 0.19608  0.38623  0.65796  Biso   1.000  C
  H76      1.0000 0.18404  0.35757  0.61160  Biso   1.000  H
  N32      1.0000 0.25379  0.40757  0.69725  Biso   1.000  N
  C107     1.0000 0.25275  0.44835  0.76013  Biso   1.000  C
  C108     1.0000 0.30003  0.48537  0.82544  Biso   1.000  C
  H77      1.0000 0.33971  0.48437  0.83042  Biso   1.000  H
  C109     1.0000 0.19367  0.44884  0.75526  Biso   1.000  C
  C110     1.0000 0.17723  0.48701  0.81329  Biso   1.000  C
  H78      1.0000 0.13684  0.48694  0.80965  Biso   1.000  H
  C111     1.0000 0.28573  0.52211  0.88006  Biso   1.000  C
  H79      1.0000 0.31679  0.54687  0.92198  Biso   1.000  H
  C112     1.0000 0.22499  0.52385  0.87531  Biso   1.000  C
  H80      1.0000 0.21698  0.54973  0.91366  Biso   1.000  H
  Zn8      1.0000 0.06086  0.39908  0.65396  Biso   1.000  Zn
  N33      1.0000 0.68279  0.69823  0.09188  Biso   1.000  N
  C113     1.0000 0.70048  0.67573  0.15931  Biso   1.000  C
  H81      1.0000 0.74346  0.68206  0.16554  Biso   1.000  H
  N34      1.0000 0.65245  0.64327  0.21789  Biso   1.000  N
  C114     1.0000 0.61499  0.67705  0.10557  Biso   1.000  C
  C115     1.0000 0.56996  0.68604  0.05797  Biso   1.000  C
  H82      1.0000 0.58202  0.70832  0.00621  Biso   1.000  H
  C116     1.0000 0.50644  0.66039  0.09009  Biso   1.000  C
  H83      1.0000 0.47473  0.66521  0.05911  Biso   1.000  H
  C117     1.0000 0.48774  0.62689  0.16952  Biso   1.000  C
  H84      1.0000 0.44407  0.61004  0.18921  Biso   1.000  H
  C118     1.0000 0.59650  0.64377  0.18441  Biso   1.000  C
  C119     1.0000 0.53267  0.61884  0.21753  Biso   1.000  C
  H85      1.0000 0.52092  0.59763  0.27012  Biso   1.000  H
  N35      1.0000 0.82295  0.74066  0.02043  Biso   1.000  N
  C120     1.0000 0.86274  0.71957  0.99130  Biso   1.000  C
  H86      1.0000 0.85070  0.69091  0.94494  Biso   1.000  H
  N36      1.0000 0.92045  0.74091  0.03059  Biso   1.000  N
  C121     1.0000 0.91941  0.78169  0.09347  Biso   1.000  C
  C122     1.0000 0.96669  0.81871  0.15878  Biso   1.000  C
  H87      1.0000 0.00637  0.81771  0.16376  Biso   1.000  H
  C123     1.0000 0.86033  0.78218  0.08860  Biso   1.000  C
  C124     1.0000 0.84389  0.82035  0.14663  Biso   1.000  C
  H88      1.0000 0.80350  0.82028  0.14299  Biso   1.000  H
  C125     1.0000 0.95239  0.85545  0.21340  Biso   1.000  C
  H89      1.0000 0.98345  0.88021  0.25532  Biso   1.000  H
  C126     1.0000 0.89165  0.85719  0.20865  Biso   1.000  C
  H90      1.0000 0.88364  0.88307  0.24700  Biso   1.000  H
  Zn9      1.0000 0.72752  0.73242  0.98730  Biso   1.000  Zn
  N37      1.0000 0.03156  0.68210  0.57479  Biso   1.000  N
  C127     1.0000 0.00906  0.64191  0.50736  Biso   1.000  C
  H91      1.0000 0.01539  0.60526  0.50113  Biso   1.000  H
  N38      1.0000 0.97660  0.65748  0.44878  Biso   1.000  N
  C128     1.0000 0.01038  0.72872  0.56110  Biso   1.000  C
  C129     1.0000 0.01937  0.78274  0.60870  Biso   1.000  C
  H92      1.0000 0.04165  0.79296  0.66046  Biso   1.000  H
  C130     1.0000 0.99372  0.82061  0.57658  Biso   1.000  C
  H93      1.0000 0.99854  0.85714  0.60756  Biso   1.000  H
  C131     1.0000 0.96022  0.80581  0.49715  Biso   1.000  C
  H94      1.0000 0.94337  0.83263  0.47746  Biso   1.000  H
  C132     1.0000 0.97710  0.71393  0.48226  Biso   1.000  C
  C133     1.0000 0.95217  0.75283  0.44914  Biso   1.000  C
  H95      1.0000 0.93096  0.74337  0.39655  Biso   1.000  H
  N39      1.0000 0.07399  0.58437  0.64624  Biso   1.000  N
  C134     1.0000 0.05290  0.52349  0.67537  Biso   1.000  C
  H96      1.0000 0.02424  0.50687  0.72173  Biso   1.000  H
  N40      1.0000 0.07424  0.48712  0.63608  Biso   1.000  N
  C135     1.0000 0.11502  0.52894  0.57320  Biso   1.000  C
  C136     1.0000 0.15204  0.51868  0.50789  Biso   1.000  C
  H97      1.0000 0.15104  0.47800  0.50291  Biso   1.000  H
  C137     1.0000 0.11551  0.58851  0.57807  Biso   1.000  C
  C138     1.0000 0.15368  0.64312  0.52004  Biso   1.000  C
  H98      1.0000 0.15361  0.68344  0.52368  Biso   1.000  H
  C139     1.0000 0.18878  0.56972  0.45327  Biso   1.000  C
  H99      1.0000 0.21354  0.56342  0.41135  Biso   1.000  H
  C140     1.0000 0.19052  0.63220  0.45802  Biso   1.000  C
  H100     1.0000 0.21640  0.66609  0.41967  Biso   1.000  H
  Zn10     1.0000 0.06575  0.67156  0.67937  Biso   1.000  Zn
  N41      1.0000 0.69823  0.01543  0.90812  Biso   1.000  N
  C141     1.0000 0.67573  0.97524  0.84069  Biso   1.000  C
  H101     1.0000 0.68206  0.93859  0.83446  Biso   1.000  H
  N42      1.0000 0.64327  0.99081  0.78211  Biso   1.000  N
  C142     1.0000 0.67705  0.06205  0.89443  Biso   1.000  C
  C143     1.0000 0.68604  0.11607  0.94203  Biso   1.000  C
  H102     1.0000 0.70832  0.12629  0.99379  Biso   1.000  H
  C144     1.0000 0.66039  0.15394  0.90991  Biso   1.000  C
  H103     1.0000 0.66521  0.19047  0.94089  Biso   1.000  H
  C145     1.0000 0.62689  0.13914  0.83048  Biso   1.000  C
  H104     1.0000 0.61004  0.16596  0.81079  Biso   1.000  H
  C146     1.0000 0.64377  0.04726  0.81559  Biso   1.000  C
  C147     1.0000 0.61884  0.08616  0.78247  Biso   1.000  C
  H105     1.0000 0.59763  0.07670  0.72988  Biso   1.000  H
  N43      1.0000 0.74066  0.91770  0.97957  Biso   1.000  N
  C148     1.0000 0.71957  0.85682  0.00870  Biso   1.000  C
  H106     1.0000 0.69091  0.84020  0.05506  Biso   1.000  H
  N44      1.0000 0.74091  0.82045  0.96941  Biso   1.000  N
  C149     1.0000 0.78169  0.86227  0.90653  Biso   1.000  C
  C150     1.0000 0.81871  0.85201  0.84122  Biso   1.000  C
  H107     1.0000 0.81771  0.81133  0.83624  Biso   1.000  H
  C151     1.0000 0.78218  0.92184  0.91140  Biso   1.000  C
  C152     1.0000 0.82035  0.97645  0.85337  Biso   1.000  C
  H108     1.0000 0.82028  0.01677  0.85701  Biso   1.000  H
  C153     1.0000 0.85545  0.90305  0.78660  Biso   1.000  C
  H109     1.0000 0.88021  0.89675  0.74468  Biso   1.000  H
  C154     1.0000 0.85719  0.96553  0.79135  Biso   1.000  C
  H110     1.0000 0.88307  0.99942  0.75300  Biso   1.000  H
  Zn11     1.0000 0.73242  0.00489  0.01270  Biso   1.000  Zn
  N45      1.0000 0.36489  0.34877  0.24146  Biso   1.000  N
  C155     1.0000 0.34239  0.30858  0.17403  Biso   1.000  C
  H111     1.0000 0.34872  0.27193  0.16780  Biso   1.000  H
  N46      1.0000 0.30993  0.32415  0.11545  Biso   1.000  N
  C156     1.0000 0.34371  0.39539  0.22777  Biso   1.000  C
  C157     1.0000 0.35270  0.44941  0.27537  Biso   1.000  C
  H112     1.0000 0.37498  0.45963  0.32713  Biso   1.000  H
  C158     1.0000 0.32705  0.48728  0.24325  Biso   1.000  C
  H113     1.0000 0.33187  0.52381  0.27423  Biso   1.000  H
  C159     1.0000 0.29355  0.47248  0.16382  Biso   1.000  C
  H114     1.0000 0.27670  0.49930  0.14413  Biso   1.000  H
  C160     1.0000 0.31043  0.38060  0.14893  Biso   1.000  C
  C161     1.0000 0.28550  0.41950  0.11581  Biso   1.000  C
  H115     1.0000 0.26429  0.41004  0.06322  Biso   1.000  H
  N47      1.0000 0.40732  0.25104  0.31291  Biso   1.000  N
  C162     1.0000 0.38623  0.19016  0.34204  Biso   1.000  C
  H116     1.0000 0.35757  0.17354  0.38840  Biso   1.000  H
  N48      1.0000 0.40757  0.15379  0.30275  Biso   1.000  N
  C163     1.0000 0.44835  0.19561  0.23987  Biso   1.000  C
  C164     1.0000 0.48537  0.18535  0.17456  Biso   1.000  C
  H117     1.0000 0.48437  0.14467  0.16958  Biso   1.000  H
  C165     1.0000 0.44884  0.25518  0.24474  Biso   1.000  C
  C166     1.0000 0.48701  0.30979  0.18671  Biso   1.000  C
  H118     1.0000 0.48694  0.35011  0.19035  Biso   1.000  H
  C167     1.0000 0.52211  0.23639  0.11994  Biso   1.000  C
  H119     1.0000 0.54687  0.23009  0.07802  Biso   1.000  H
  C168     1.0000 0.52385  0.29887  0.12469  Biso   1.000  C
  H120     1.0000 0.54973  0.33276  0.08634  Biso   1.000  H
  Zn12     1.0000 0.39908  0.33823  0.34604  Biso   1.000  Zn
  N49      1.0000 0.31790  0.34946  0.57479  Biso   1.000  N
  C169     1.0000 0.35809  0.36715  0.50736  Biso   1.000  C
  H121     1.0000 0.39474  0.41013  0.50113  Biso   1.000  H
  N50      1.0000 0.34252  0.31912  0.44878  Biso   1.000  N
  C170     1.0000 0.27128  0.28166  0.56110  Biso   1.000  C
  C171     1.0000 0.21726  0.23663  0.60870  Biso   1.000  C
  H122     1.0000 0.20704  0.24869  0.66046  Biso   1.000  H
  C172     1.0000 0.17939  0.17311  0.57658  Biso   1.000  C
  H123     1.0000 0.14286  0.14140  0.60756  Biso   1.000  H
  C173     1.0000 0.19419  0.15441  0.49715  Biso   1.000  C
  H124     1.0000 0.16737  0.11074  0.47746  Biso   1.000  H
  C174     1.0000 0.28607  0.26317  0.48226  Biso   1.000  C
  C175     1.0000 0.24717  0.19934  0.44914  Biso   1.000  C
  H125     1.0000 0.25663  0.18759  0.39655  Biso   1.000  H
  N51      1.0000 0.41563  0.48962  0.64624  Biso   1.000  N
  C176     1.0000 0.47651  0.52941  0.67537  Biso   1.000  C
  H126     1.0000 0.49313  0.51737  0.72173  Biso   1.000  H
  N52      1.0000 0.51288  0.58712  0.63608  Biso   1.000  N
  C177     1.0000 0.47106  0.58608  0.57320  Biso   1.000  C
  C178     1.0000 0.48132  0.63336  0.50789  Biso   1.000  C
  H127     1.0000 0.52200  0.67304  0.50291  Biso   1.000  H
  C179     1.0000 0.41149  0.52700  0.57807  Biso   1.000  C
  C180     1.0000 0.35688  0.51056  0.52004  Biso   1.000  C
  H128     1.0000 0.31656  0.47017  0.52368  Biso   1.000  H
  C181     1.0000 0.43028  0.61906  0.45327  Biso   1.000  C
  H129     1.0000 0.43658  0.65012  0.41135  Biso   1.000  H
  C182     1.0000 0.36780  0.55832  0.45802  Biso   1.000  C
  H130     1.0000 0.33391  0.55031  0.41967  Biso   1.000  H
  Zn13     1.0000 0.32844  0.39419  0.67937  Biso   1.000  Zn
  N53      1.0000 0.98457  0.68279  0.90812  Biso   1.000  N
  C183     1.0000 0.02476  0.70048  0.84069  Biso   1.000  C
  H131     1.0000 0.06141  0.74346  0.83446  Biso   1.000  H
  N54      1.0000 0.00919  0.65245  0.78211  Biso   1.000  N
  C184     1.0000 0.93795  0.61499  0.89443  Biso   1.000  C
  C185     1.0000 0.88393  0.56996  0.94203  Biso   1.000  C
  H132     1.0000 0.87371  0.58202  0.99379  Biso   1.000  H
  C186     1.0000 0.84606  0.50644  0.90991  Biso   1.000  C
  H133     1.0000 0.80953  0.47473  0.94089  Biso   1.000  H
  C187     1.0000 0.86086  0.48774  0.83048  Biso   1.000  C
  H134     1.0000 0.83404  0.44407  0.81079  Biso   1.000  H
  C188     1.0000 0.95274  0.59650  0.81559  Biso   1.000  C
  C189     1.0000 0.91384  0.53267  0.78247  Biso   1.000  C
  H135     1.0000 0.92330  0.52092  0.72988  Biso   1.000  H
  N55      1.0000 0.08230  0.82295  0.97957  Biso   1.000  N
  C190     1.0000 0.14318  0.86274  0.00870  Biso   1.000  C
  H136     1.0000 0.15980  0.85070  0.05506  Biso   1.000  H
  N56      1.0000 0.17955  0.92045  0.96941  Biso   1.000  N
  C191     1.0000 0.13773  0.91941  0.90653  Biso   1.000  C
  C192     1.0000 0.14799  0.96669  0.84122  Biso   1.000  C
  H137     1.0000 0.18867  0.00637  0.83624  Biso   1.000  H
  C193     1.0000 0.07816  0.86033  0.91140  Biso   1.000  C
  C194     1.0000 0.02355  0.84389  0.85337  Biso   1.000  C
  H138     1.0000 0.98323  0.80350  0.85701  Biso   1.000  H
  C195     1.0000 0.09695  0.95239  0.78660  Biso   1.000  C
  H139     1.0000 0.10325  0.98345  0.74468  Biso   1.000  H
  C196     1.0000 0.03447  0.89165  0.79135  Biso   1.000  C
  H140     1.0000 0.00058  0.88364  0.75300  Biso   1.000  H
  Zn14     1.0000 0.99511  0.72752  0.01270  Biso   1.000  Zn
  N57      1.0000 0.65123  0.01613  0.24146  Biso   1.000  N
  C197     1.0000 0.69142  0.03382  0.17403  Biso   1.000  C
  H141     1.0000 0.72807  0.07680  0.16780  Biso   1.000  H
  N58      1.0000 0.67585  0.98579  0.11545  Biso   1.000  N
  C198     1.0000 0.60461  0.94833  0.22777  Biso   1.000  C
  C199     1.0000 0.55059  0.90330  0.27537  Biso   1.000  C
  H142     1.0000 0.54037  0.91536  0.32713  Biso   1.000  H
  C200     1.0000 0.51272  0.83978  0.24325  Biso   1.000  C
  H143     1.0000 0.47619  0.80807  0.27423  Biso   1.000  H
  C201     1.0000 0.52752  0.82108  0.16382  Biso   1.000  C
  H144     1.0000 0.50070  0.77741  0.14413  Biso   1.000  H
  C202     1.0000 0.61940  0.92984  0.14893  Biso   1.000  C
  C203     1.0000 0.58050  0.86601  0.11581  Biso   1.000  C
  H145     1.0000 0.58996  0.85426  0.06322  Biso   1.000  H
  N59      1.0000 0.74896  0.15629  0.31291  Biso   1.000  N
  C204     1.0000 0.80984  0.19608  0.34204  Biso   1.000  C
  H146     1.0000 0.82646  0.18404  0.38840  Biso   1.000  H
  N60      1.0000 0.84621  0.25379  0.30275  Biso   1.000  N
  C205     1.0000 0.80439  0.25275  0.23987  Biso   1.000  C
  C206     1.0000 0.81465  0.30003  0.17456  Biso   1.000  C
  H147     1.0000 0.85533  0.33971  0.16958  Biso   1.000  H
  C207     1.0000 0.74482  0.19367  0.24474  Biso   1.000  C
  C208     1.0000 0.69021  0.17723  0.18671  Biso   1.000  C
  H148     1.0000 0.64989  0.13684  0.19035  Biso   1.000  H
  C209     1.0000 0.76361  0.28573  0.11994  Biso   1.000  C
  H149     1.0000 0.76991  0.31679  0.07802  Biso   1.000  H
  C210     1.0000 0.70113  0.22499  0.12469  Biso   1.000  C
  H150     1.0000 0.66724  0.21698  0.08634  Biso   1.000  H
  Zn15     1.0000 0.66177  0.06086  0.34604  Biso   1.000  Zn
  N61      1.0000 0.65054  0.96844  0.57479  Biso   1.000  N
  C211     1.0000 0.63285  0.99094  0.50736  Biso   1.000  C
  H151     1.0000 0.58987  0.98461  0.50113  Biso   1.000  H
  N62      1.0000 0.68088  0.02340  0.44878  Biso   1.000  N
  C212     1.0000 0.71834  0.98962  0.56110  Biso   1.000  C
  C213     1.0000 0.76337  0.98063  0.60870  Biso   1.000  C
  H152     1.0000 0.75131  0.95835  0.66046  Biso   1.000  H
  C214     1.0000 0.82689  0.00628  0.57658  Biso   1.000  C
  H153     1.0000 0.85860  0.00146  0.60756  Biso   1.000  H
  C215     1.0000 0.84559  0.03978  0.49715  Biso   1.000  C
  H154     1.0000 0.88926  0.05663  0.47746  Biso   1.000  H
  C216     1.0000 0.73683  0.02290  0.48226  Biso   1.000  C
  C217     1.0000 0.80066  0.04783  0.44914  Biso   1.000  C
  H155     1.0000 0.81241  0.06904  0.39655  Biso   1.000  H
  N63      1.0000 0.51038  0.92601  0.64624  Biso   1.000  N
  C218     1.0000 0.47059  0.94710  0.67537  Biso   1.000  C
  H156     1.0000 0.48263  0.97576  0.72173  Biso   1.000  H
  N64      1.0000 0.41288  0.92576  0.63608  Biso   1.000  N
  C219     1.0000 0.41392  0.88498  0.57320  Biso   1.000  C
  C220     1.0000 0.36664  0.84796  0.50789  Biso   1.000  C
  H157     1.0000 0.32696  0.84896  0.50291  Biso   1.000  H
  C221     1.0000 0.47300  0.88449  0.57807  Biso   1.000  C
  C222     1.0000 0.48944  0.84632  0.52004  Biso   1.000  C
  H158     1.0000 0.52983  0.84639  0.52368  Biso   1.000  H
  C223     1.0000 0.38094  0.81122  0.45327  Biso   1.000  C
  H159     1.0000 0.34988  0.78646  0.41135  Biso   1.000  H
  C224     1.0000 0.44168  0.80948  0.45802  Biso   1.000  C
  H160     1.0000 0.44969  0.78360  0.41967  Biso   1.000  H
  Zn16     1.0000 0.60581  0.93425  0.67937  Biso   1.000  Zn
  N65      1.0000 0.31721  0.30177  0.90812  Biso   1.000  N
  C225     1.0000 0.29952  0.32427  0.84069  Biso   1.000  C
  H161     1.0000 0.25654  0.31794  0.83446  Biso   1.000  H
  N66      1.0000 0.34755  0.35673  0.78211  Biso   1.000  N
  C226     1.0000 0.38501  0.32295  0.89443  Biso   1.000  C
  C227     1.0000 0.43004  0.31396  0.94203  Biso   1.000  C
  H162     1.0000 0.41798  0.29168  0.99379  Biso   1.000  H
  C228     1.0000 0.49356  0.33961  0.90991  Biso   1.000  C
  H163     1.0000 0.52527  0.33479  0.94089  Biso   1.000  H
  C229     1.0000 0.51226  0.37311  0.83048  Biso   1.000  C
  H164     1.0000 0.55593  0.38996  0.81079  Biso   1.000  H
  C230     1.0000 0.40350  0.35623  0.81559  Biso   1.000  C
  C231     1.0000 0.46733  0.38116  0.78247  Biso   1.000  C
  H165     1.0000 0.47908  0.40237  0.72988  Biso   1.000  H
  N67      1.0000 0.17705  0.25934  0.97957  Biso   1.000  N
  C232     1.0000 0.13726  0.28043  0.00870  Biso   1.000  C
  H166     1.0000 0.14930  0.30909  0.05506  Biso   1.000  H
  N68      1.0000 0.07955  0.25909  0.96941  Biso   1.000  N
  C233     1.0000 0.08059  0.21831  0.90653  Biso   1.000  C
  C234     1.0000 0.03331  0.18129  0.84122  Biso   1.000  C
  H167     1.0000 0.99363  0.18229  0.83624  Biso   1.000  H
  C235     1.0000 0.13967  0.21782  0.91140  Biso   1.000  C
  C236     1.0000 0.15611  0.17965  0.85337  Biso   1.000  C
  H168     1.0000 0.19650  0.17972  0.85701  Biso   1.000  H
  C237     1.0000 0.04761  0.14455  0.78660  Biso   1.000  C
  H169     1.0000 0.01655  0.11979  0.74468  Biso   1.000  H
  C238     1.0000 0.10835  0.14281  0.79135  Biso   1.000  C
  H170     1.0000 0.11636  0.11693  0.75300  Biso   1.000  H
  Zn17     1.0000 0.27248  0.26758  0.01270  Biso   1.000  Zn
  N69      1.0000 0.98387  0.63511  0.24146  Biso   1.000  N
  C239     1.0000 0.96618  0.65761  0.17403  Biso   1.000  C
  H171     1.0000 0.92320  0.65128  0.16780  Biso   1.000  H
  N70      1.0000 0.01421  0.69007  0.11545  Biso   1.000  N
  C240     1.0000 0.05167  0.65629  0.22777  Biso   1.000  C
  C241     1.0000 0.09670  0.64730  0.27537  Biso   1.000  C
  H172     1.0000 0.08464  0.62502  0.32713  Biso   1.000  H
  C242     1.0000 0.16022  0.67295  0.24325  Biso   1.000  C
  H173     1.0000 0.19193  0.66813  0.27423  Biso   1.000  H
  C243     1.0000 0.17892  0.70645  0.16382  Biso   1.000  C
  H174     1.0000 0.22259  0.72330  0.14413  Biso   1.000  H
  C244     1.0000 0.07016  0.68957  0.14893  Biso   1.000  C
  C245     1.0000 0.13399  0.71450  0.11581  Biso   1.000  C
  H175     1.0000 0.14574  0.73571  0.06322  Biso   1.000  H
  N71      1.0000 0.84371  0.59268  0.31291  Biso   1.000  N
  C246     1.0000 0.80392  0.61377  0.34204  Biso   1.000  C
  H176     1.0000 0.81596  0.64243  0.38840  Biso   1.000  H
  N72      1.0000 0.74621  0.59243  0.30275  Biso   1.000  N
  C247     1.0000 0.74725  0.55165  0.23987  Biso   1.000  C
  C248     1.0000 0.69997  0.51463  0.17456  Biso   1.000  C
  H177     1.0000 0.66029  0.51563  0.16958  Biso   1.000  H
  C249     1.0000 0.80633  0.55116  0.24474  Biso   1.000  C
  C250     1.0000 0.82277  0.51299  0.18671  Biso   1.000  C
  H178     1.0000 0.86316  0.51306  0.19035  Biso   1.000  H
  C251     1.0000 0.71427  0.47789  0.11994  Biso   1.000  C
  H179     1.0000 0.68321  0.45313  0.07802  Biso   1.000  H
  C252     1.0000 0.77501  0.47615  0.12469  Biso   1.000  C
  H180     1.0000 0.78302  0.45027  0.08634  Biso   1.000  H
  Zn18     1.0000 0.93914  0.60092  0.34604  Biso   1.000  Zn
