data_image0
_cell_length_a       22.9463
_cell_length_b       22.9463
_cell_length_c       15.7127
_cell_angle_alpha    90
_cell_angle_beta     90
_cell_angle_gamma    120

_symmetry_space_group_name_H-M    "P 1"
_symmetry_int_tables_number       1

loop_
  _symmetry_equiv_pos_as_xyz
  'x, y, z'

loop_
  _atom_site_label
  _atom_site_occupancy
  _atom_site_fract_x
  _atom_site_fract_y
  _atom_site_fract_z
  _atom_site_thermal_displace_type
  _atom_site_B_iso_or_equiv
  _atom_site_type_symbol
  N1       1.0000 0.96840  0.31614  0.42636  Biso   1.000  N
  C1       1.0000 0.99362  0.35906  0.49122  Biso   1.000  C
  H1       1.0000 0.98745  0.39600  0.49624  Biso   1.000  H
  N2       1.0000 0.02858  0.34581  0.54906  Biso   1.000  N
  C2       1.0000 0.99028  0.27002  0.44103  Biso   1.000  C
  C3       1.0000 0.97942  0.21404  0.39599  Biso   1.000  C
  H2       1.0000 0.95500  0.20175  0.34557  Biso   1.000  H
  C4       1.0000 0.00652  0.17741  0.42855  Biso   1.000  C
  H3       1.0000 0.00050  0.13960  0.39924  Biso   1.000  H
  C5       1.0000 0.04331  0.19539  0.50597  Biso   1.000  C
  H4       1.0000 0.06106  0.16932  0.52603  Biso   1.000  H
  C6       1.0000 0.02682  0.28797  0.51787  Biso   1.000  C
  C7       1.0000 0.05324  0.25034  0.55151  Biso   1.000  C
  H5       1.0000 0.07663  0.26190  0.60283  Biso   1.000  H
  N3       1.0000 0.92084  0.41597  0.35053  Biso   1.000  N
  C8       1.0000 0.93823  0.47654  0.32264  Biso   1.000  C
  H6       1.0000 0.96441  0.49411  0.27410  Biso   1.000  H
  N4       1.0000 0.91688  0.51120  0.36640  Biso   1.000  N
  C9       1.0000 0.88027  0.46841  0.43132  Biso   1.000  C
  C10      1.0000 0.84537  0.47680  0.50129  Biso   1.000  C
  H7       1.0000 0.84488  0.51668  0.50854  Biso   1.000  H
  C11      1.0000 0.88211  0.41005  0.42302  Biso   1.000  C
  C12      1.0000 0.84848  0.35486  0.48205  Biso   1.000  C
  H8       1.0000 0.85011  0.31538  0.47604  Biso   1.000  H
  C13      1.0000 0.81287  0.42516  0.55696  Biso   1.000  C
  H9       1.0000 0.78946  0.43022  0.60198  Biso   1.000  H
  C14      1.0000 0.81356  0.36390  0.54876  Biso   1.000  C
  H10      1.0000 0.79057  0.32954  0.58797  Biso   1.000  H
  Zn1      1.0000 0.93335  0.33251  0.32710  Biso   1.000  Zn
  N5       1.0000 0.63507  0.64947  0.75969  Biso   1.000  N
  C15      1.0000 0.66029  0.69239  0.82455  Biso   1.000  C
  H11      1.0000 0.65412  0.72933  0.82957  Biso   1.000  H
  N6       1.0000 0.69525  0.67914  0.88239  Biso   1.000  N
  C16      1.0000 0.65695  0.60335  0.77436  Biso   1.000  C
  C17      1.0000 0.64609  0.54737  0.72932  Biso   1.000  C
  H12      1.0000 0.62167  0.53508  0.67890  Biso   1.000  H
  C18      1.0000 0.67319  0.51074  0.76188  Biso   1.000  C
  H13      1.0000 0.66717  0.47293  0.73257  Biso   1.000  H
  C19      1.0000 0.70998  0.52872  0.83930  Biso   1.000  C
  H14      1.0000 0.72773  0.50265  0.85936  Biso   1.000  H
  C20      1.0000 0.69349  0.62130  0.85120  Biso   1.000  C
  C21      1.0000 0.71991  0.58367  0.88484  Biso   1.000  C
  H15      1.0000 0.74330  0.59523  0.93616  Biso   1.000  H
  N7       1.0000 0.58751  0.74930  0.68386  Biso   1.000  N
  C22      1.0000 0.60490  0.80987  0.65597  Biso   1.000  C
  H16      1.0000 0.63108  0.82744  0.60743  Biso   1.000  H
  N8       1.0000 0.58355  0.84453  0.69973  Biso   1.000  N
  C23      1.0000 0.54694  0.80174  0.76465  Biso   1.000  C
  C24      1.0000 0.51204  0.81013  0.83462  Biso   1.000  C
  H17      1.0000 0.51155  0.85001  0.84187  Biso   1.000  H
  C25      1.0000 0.54878  0.74338  0.75635  Biso   1.000  C
  C26      1.0000 0.51515  0.68819  0.81538  Biso   1.000  C
  H18      1.0000 0.51678  0.64871  0.80937  Biso   1.000  H
  C27      1.0000 0.47954  0.75849  0.89029  Biso   1.000  C
  H19      1.0000 0.45613  0.76355  0.93531  Biso   1.000  H
  C28      1.0000 0.48023  0.69723  0.88209  Biso   1.000  C
  H20      1.0000 0.45724  0.66287  0.92130  Biso   1.000  H
  Zn2      1.0000 0.60002  0.66584  0.66043  Biso   1.000  Zn
  N9       1.0000 0.30173  0.98281  0.09303  Biso   1.000  N
  C29      1.0000 0.32695  0.02573  0.15789  Biso   1.000  C
  H21      1.0000 0.32078  0.06267  0.16291  Biso   1.000  H
  N10      1.0000 0.36191  0.01248  0.21573  Biso   1.000  N
  C30      1.0000 0.32361  0.93669  0.10770  Biso   1.000  C
  C31      1.0000 0.31275  0.88071  0.06266  Biso   1.000  C
  H22      1.0000 0.28833  0.86842  0.01224  Biso   1.000  H
  C32      1.0000 0.33985  0.84408  0.09522  Biso   1.000  C
  H23      1.0000 0.33383  0.80627  0.06591  Biso   1.000  H
  C33      1.0000 0.37664  0.86206  0.17264  Biso   1.000  C
  H24      1.0000 0.39439  0.83599  0.19270  Biso   1.000  H
  C34      1.0000 0.36015  0.95464  0.18454  Biso   1.000  C
  C35      1.0000 0.38657  0.91701  0.21818  Biso   1.000  C
  H25      1.0000 0.40996  0.92857  0.26950  Biso   1.000  H
  N11      1.0000 0.25417  0.08264  0.01720  Biso   1.000  N
  C36      1.0000 0.27156  0.14321  0.98931  Biso   1.000  C
  H26      1.0000 0.29774  0.16078  0.94077  Biso   1.000  H
  N12      1.0000 0.25021  0.17787  0.03307  Biso   1.000  N
  C37      1.0000 0.21360  0.13508  0.09799  Biso   1.000  C
  C38      1.0000 0.17870  0.14347  0.16796  Biso   1.000  C
  H27      1.0000 0.17821  0.18335  0.17521  Biso   1.000  H
  C39      1.0000 0.21544  0.07672  0.08969  Biso   1.000  C
  C40      1.0000 0.18181  0.02153  0.14872  Biso   1.000  C
  H28      1.0000 0.18344  0.98205  0.14271  Biso   1.000  H
  C41      1.0000 0.14620  0.09183  0.22363  Biso   1.000  C
  H29      1.0000 0.12279  0.09689  0.26865  Biso   1.000  H
  C42      1.0000 0.14689  0.03057  0.21543  Biso   1.000  C
  H30      1.0000 0.12390  0.99621  0.25464  Biso   1.000  H
  Zn3      1.0000 0.26668  0.99918  0.99377  Biso   1.000  Zn
  N13      1.0000 0.68386  0.65226  0.42636  Biso   1.000  N
  C43      1.0000 0.64094  0.63456  0.49122  Biso   1.000  C
  H31      1.0000 0.60400  0.59145  0.49624  Biso   1.000  H
  N14      1.0000 0.65419  0.68277  0.54906  Biso   1.000  N
  C44      1.0000 0.72998  0.72026  0.44103  Biso   1.000  C
  C45      1.0000 0.78596  0.76538  0.39599  Biso   1.000  C
  H32      1.0000 0.79825  0.75325  0.34557  Biso   1.000  H
  C46      1.0000 0.82259  0.82911  0.42855  Biso   1.000  C
  H33      1.0000 0.86040  0.86090  0.39924  Biso   1.000  H
  C47      1.0000 0.80461  0.84792  0.50597  Biso   1.000  C
  H34      1.0000 0.83068  0.89174  0.52603  Biso   1.000  H
  C48      1.0000 0.71203  0.73885  0.51787  Biso   1.000  C
  C49      1.0000 0.74966  0.80290  0.55151  Biso   1.000  C
  H35      1.0000 0.73810  0.81473  0.60283  Biso   1.000  H
  N15      1.0000 0.58403  0.50487  0.35053  Biso   1.000  N
  C50      1.0000 0.52346  0.46169  0.32264  Biso   1.000  C
  H36      1.0000 0.50589  0.47030  0.27410  Biso   1.000  H
  N16      1.0000 0.48880  0.40568  0.36640  Biso   1.000  N
  C51      1.0000 0.53159  0.41186  0.43132  Biso   1.000  C
  C52      1.0000 0.52320  0.36857  0.50129  Biso   1.000  C
  H37      1.0000 0.48332  0.32820  0.50854  Biso   1.000  H
  C53      1.0000 0.58995  0.47206  0.42302  Biso   1.000  C
  C54      1.0000 0.64514  0.49362  0.48205  Biso   1.000  C
  H38      1.0000 0.68462  0.53473  0.47604  Biso   1.000  H
  C55      1.0000 0.57484  0.38771  0.55696  Biso   1.000  C
  H39      1.0000 0.56978  0.35924  0.60198  Biso   1.000  H
  C56      1.0000 0.63610  0.44966  0.54876  Biso   1.000  C
  H40      1.0000 0.67046  0.46103  0.58797  Biso   1.000  H
  Zn4      1.0000 0.66749  0.60084  0.32710  Biso   1.000  Zn
  N17      1.0000 0.35053  0.98559  0.75969  Biso   1.000  N
  C57      1.0000 0.30761  0.96789  0.82455  Biso   1.000  C
  H41      1.0000 0.27067  0.92478  0.82957  Biso   1.000  H
  N18      1.0000 0.32086  0.01610  0.88239  Biso   1.000  N
  C58      1.0000 0.39665  0.05359  0.77436  Biso   1.000  C
  C59      1.0000 0.45263  0.09871  0.72932  Biso   1.000  C
  H42      1.0000 0.46492  0.08658  0.67890  Biso   1.000  H
  C60      1.0000 0.48926  0.16244  0.76188  Biso   1.000  C
  H43      1.0000 0.52707  0.19423  0.73257  Biso   1.000  H
  C61      1.0000 0.47128  0.18125  0.83930  Biso   1.000  C
  H44      1.0000 0.49735  0.22507  0.85936  Biso   1.000  H
  C62      1.0000 0.37870  0.07218  0.85120  Biso   1.000  C
  C63      1.0000 0.41633  0.13623  0.88484  Biso   1.000  C
  H45      1.0000 0.40477  0.14806  0.93616  Biso   1.000  H
  N19      1.0000 0.25070  0.83820  0.68386  Biso   1.000  N
  C64      1.0000 0.19013  0.79502  0.65597  Biso   1.000  C
  H46      1.0000 0.17256  0.80363  0.60743  Biso   1.000  H
  N20      1.0000 0.15547  0.73901  0.69973  Biso   1.000  N
  C65      1.0000 0.19826  0.74519  0.76465  Biso   1.000  C
  C66      1.0000 0.18987  0.70190  0.83462  Biso   1.000  C
  H47      1.0000 0.14999  0.66153  0.84187  Biso   1.000  H
  C67      1.0000 0.25662  0.80539  0.75635  Biso   1.000  C
  C68      1.0000 0.31181  0.82695  0.81538  Biso   1.000  C
  H48      1.0000 0.35129  0.86806  0.80937  Biso   1.000  H
  C69      1.0000 0.24151  0.72104  0.89029  Biso   1.000  C
  H49      1.0000 0.23645  0.69257  0.93531  Biso   1.000  H
  C70      1.0000 0.30277  0.78299  0.88209  Biso   1.000  C
  H50      1.0000 0.33713  0.79436  0.92130  Biso   1.000  H
  Zn5      1.0000 0.33416  0.93417  0.66043  Biso   1.000  Zn
  N21      1.0000 0.01719  0.31893  0.09303  Biso   1.000  N
  C71      1.0000 0.97427  0.30123  0.15789  Biso   1.000  C
  H51      1.0000 0.93733  0.25812  0.16291  Biso   1.000  H
  N22      1.0000 0.98752  0.34944  0.21573  Biso   1.000  N
  C72      1.0000 0.06331  0.38693  0.10770  Biso   1.000  C
  C73      1.0000 0.11929  0.43205  0.06266  Biso   1.000  C
  H52      1.0000 0.13158  0.41992  0.01224  Biso   1.000  H
  C74      1.0000 0.15592  0.49578  0.09522  Biso   1.000  C
  H53      1.0000 0.19373  0.52757  0.06591  Biso   1.000  H
  C75      1.0000 0.13794  0.51459  0.17264  Biso   1.000  C
  H54      1.0000 0.16401  0.55841  0.19270  Biso   1.000  H
  C76      1.0000 0.04536  0.40552  0.18454  Biso   1.000  C
  C77      1.0000 0.08299  0.46957  0.21818  Biso   1.000  C
  H55      1.0000 0.07143  0.48140  0.26950  Biso   1.000  H
  N23      1.0000 0.91736  0.17154  0.01720  Biso   1.000  N
  C78      1.0000 0.85679  0.12836  0.98931  Biso   1.000  C
  H56      1.0000 0.83922  0.13697  0.94077  Biso   1.000  H
  N24      1.0000 0.82213  0.07235  0.03307  Biso   1.000  N
  C79      1.0000 0.86492  0.07853  0.09799  Biso   1.000  C
  C80      1.0000 0.85653  0.03524  0.16796  Biso   1.000  C
  H57      1.0000 0.81665  0.99487  0.17521  Biso   1.000  H
  C81      1.0000 0.92328  0.13873  0.08969  Biso   1.000  C
  C82      1.0000 0.97847  0.16029  0.14872  Biso   1.000  C
  H58      1.0000 0.01795  0.20140  0.14271  Biso   1.000  H
  C83      1.0000 0.90817  0.05438  0.22363  Biso   1.000  C
  H59      1.0000 0.90311  0.02591  0.26865  Biso   1.000  H
  C84      1.0000 0.96943  0.11633  0.21543  Biso   1.000  C
  H60      1.0000 0.00379  0.12770  0.25464  Biso   1.000  H
  Zn6      1.0000 0.00082  0.26751  0.99377  Biso   1.000  Zn
  N25      1.0000 0.34774  0.03160  0.42636  Biso   1.000  N
  C85      1.0000 0.36544  0.00638  0.49122  Biso   1.000  C
  H61      1.0000 0.40855  0.01255  0.49624  Biso   1.000  H
  N26      1.0000 0.31723  0.97142  0.54906  Biso   1.000  N
  C86      1.0000 0.27974  0.00972  0.44103  Biso   1.000  C
  C87      1.0000 0.23462  0.02058  0.39599  Biso   1.000  C
  H62      1.0000 0.24675  0.04500  0.34557  Biso   1.000  H
  C88      1.0000 0.17089  0.99348  0.42855  Biso   1.000  C
  H63      1.0000 0.13910  0.99950  0.39924  Biso   1.000  H
  C89      1.0000 0.15208  0.95669  0.50597  Biso   1.000  C
  H64      1.0000 0.10826  0.93894  0.52603  Biso   1.000  H
  C90      1.0000 0.26115  0.97318  0.51787  Biso   1.000  C
  C91      1.0000 0.19710  0.94676  0.55151  Biso   1.000  C
  H65      1.0000 0.18527  0.92337  0.60283  Biso   1.000  H
  N27      1.0000 0.49513  0.07916  0.35053  Biso   1.000  N
  C92      1.0000 0.53831  0.06177  0.32264  Biso   1.000  C
  H66      1.0000 0.52970  0.03559  0.27410  Biso   1.000  H
  N28      1.0000 0.59432  0.08312  0.36640  Biso   1.000  N
  C93      1.0000 0.58814  0.11973  0.43132  Biso   1.000  C
  C94      1.0000 0.63143  0.15463  0.50129  Biso   1.000  C
  H67      1.0000 0.67180  0.15512  0.50854  Biso   1.000  H
  C95      1.0000 0.52794  0.11789  0.42302  Biso   1.000  C
  C96      1.0000 0.50638  0.15152  0.48205  Biso   1.000  C
  H68      1.0000 0.46527  0.14989  0.47604  Biso   1.000  H
  C97      1.0000 0.61229  0.18713  0.55696  Biso   1.000  C
  H69      1.0000 0.64076  0.21054  0.60198  Biso   1.000  H
  C98      1.0000 0.55034  0.18644  0.54876  Biso   1.000  C
  H70      1.0000 0.53897  0.20943  0.58797  Biso   1.000  H
  Zn7      1.0000 0.39916  0.06665  0.32710  Biso   1.000  Zn
  N29      1.0000 0.01441  0.36493  0.75969  Biso   1.000  N
  C99      1.0000 0.03211  0.33971  0.82455  Biso   1.000  C
  H71      1.0000 0.07522  0.34588  0.82957  Biso   1.000  H
  N30      1.0000 0.98390  0.30475  0.88239  Biso   1.000  N
  C100     1.0000 0.94641  0.34305  0.77436  Biso   1.000  C
  C101     1.0000 0.90129  0.35391  0.72932  Biso   1.000  C
  H72      1.0000 0.91342  0.37833  0.67890  Biso   1.000  H
  C102     1.0000 0.83756  0.32681  0.76188  Biso   1.000  C
  H73      1.0000 0.80577  0.33283  0.73257  Biso   1.000  H
  C103     1.0000 0.81875  0.29002  0.83930  Biso   1.000  C
  H74      1.0000 0.77493  0.27227  0.85936  Biso   1.000  H
  C104     1.0000 0.92782  0.30651  0.85120  Biso   1.000  C
  C105     1.0000 0.86377  0.28009  0.88484  Biso   1.000  C
  H75      1.0000 0.85194  0.25670  0.93616  Biso   1.000  H
  N31      1.0000 0.16180  0.41249  0.68386  Biso   1.000  N
  C106     1.0000 0.20498  0.39510  0.65597  Biso   1.000  C
  H76      1.0000 0.19637  0.36892  0.60743  Biso   1.000  H
  N32      1.0000 0.26099  0.41645  0.69973  Biso   1.000  N
  C107     1.0000 0.25481  0.45306  0.76465  Biso   1.000  C
  C108     1.0000 0.29810  0.48796  0.83462  Biso   1.000  C
  H77      1.0000 0.33847  0.48845  0.84187  Biso   1.000  H
  C109     1.0000 0.19461  0.45122  0.75635  Biso   1.000  C
  C110     1.0000 0.17305  0.48485  0.81538  Biso   1.000  C
  H78      1.0000 0.13194  0.48322  0.80937  Biso   1.000  H
  C111     1.0000 0.27896  0.52046  0.89029  Biso   1.000  C
  H79      1.0000 0.30743  0.54387  0.93531  Biso   1.000  H
  C112     1.0000 0.21701  0.51977  0.88209  Biso   1.000  C
  H80      1.0000 0.20564  0.54276  0.92130  Biso   1.000  H
  Zn8      1.0000 0.06583  0.39998  0.66043  Biso   1.000  Zn
  N33      1.0000 0.68107  0.69827  0.09303  Biso   1.000  N
  C113     1.0000 0.69877  0.67305  0.15789  Biso   1.000  C
  H81      1.0000 0.74188  0.67922  0.16291  Biso   1.000  H
  N34      1.0000 0.65056  0.63809  0.21573  Biso   1.000  N
  C114     1.0000 0.61307  0.67639  0.10770  Biso   1.000  C
  C115     1.0000 0.56795  0.68725  0.06266  Biso   1.000  C
  H82      1.0000 0.58008  0.71167  0.01224  Biso   1.000  H
  C116     1.0000 0.50422  0.66015  0.09522  Biso   1.000  C
  H83      1.0000 0.47243  0.66617  0.06591  Biso   1.000  H
  C117     1.0000 0.48541  0.62336  0.17264  Biso   1.000  C
  H84      1.0000 0.44159  0.60561  0.19270  Biso   1.000  H
  C118     1.0000 0.59448  0.63985  0.18454  Biso   1.000  C
  C119     1.0000 0.53043  0.61343  0.21818  Biso   1.000  C
  H85      1.0000 0.51860  0.59004  0.26950  Biso   1.000  H
  N35      1.0000 0.82846  0.74583  0.01720  Biso   1.000  N
  C120     1.0000 0.87164  0.72844  0.98931  Biso   1.000  C
  H86      1.0000 0.86303  0.70226  0.94077  Biso   1.000  H
  N36      1.0000 0.92765  0.74979  0.03307  Biso   1.000  N
  C121     1.0000 0.92147  0.78640  0.09799  Biso   1.000  C
  C122     1.0000 0.96476  0.82130  0.16796  Biso   1.000  C
  H87      1.0000 0.00513  0.82179  0.17521  Biso   1.000  H
  C123     1.0000 0.86127  0.78456  0.08969  Biso   1.000  C
  C124     1.0000 0.83971  0.81819  0.14872  Biso   1.000  C
  H88      1.0000 0.79860  0.81656  0.14271  Biso   1.000  H
  C125     1.0000 0.94562  0.85380  0.22363  Biso   1.000  C
  H89      1.0000 0.97409  0.87721  0.26865  Biso   1.000  H
  C126     1.0000 0.88367  0.85311  0.21543  Biso   1.000  C
  H90      1.0000 0.87230  0.87610  0.25464  Biso   1.000  H
  Zn9      1.0000 0.73249  0.73332  0.99377  Biso   1.000  Zn
  N37      1.0000 0.03160  0.68386  0.57364  Biso   1.000  N
  C127     1.0000 0.00638  0.64094  0.50878  Biso   1.000  C
  H91      1.0000 0.01255  0.60400  0.50376  Biso   1.000  H
  N38      1.0000 0.97142  0.65419  0.45094  Biso   1.000  N
  C128     1.0000 0.00972  0.72998  0.55897  Biso   1.000  C
  C129     1.0000 0.02058  0.78596  0.60401  Biso   1.000  C
  H92      1.0000 0.04500  0.79825  0.65443  Biso   1.000  H
  C130     1.0000 0.99348  0.82259  0.57145  Biso   1.000  C
  H93      1.0000 0.99950  0.86040  0.60076  Biso   1.000  H
  C131     1.0000 0.95669  0.80461  0.49403  Biso   1.000  C
  H94      1.0000 0.93894  0.83068  0.47397  Biso   1.000  H
  C132     1.0000 0.97318  0.71203  0.48213  Biso   1.000  C
  C133     1.0000 0.94676  0.74966  0.44849  Biso   1.000  C
  H95      1.0000 0.92337  0.73810  0.39717  Biso   1.000  H
  N39      1.0000 0.07916  0.58403  0.64947  Biso   1.000  N
  C134     1.0000 0.06177  0.52346  0.67736  Biso   1.000  C
  H96      1.0000 0.03559  0.50589  0.72590  Biso   1.000  H
  N40      1.0000 0.08312  0.48880  0.63360  Biso   1.000  N
  C135     1.0000 0.11973  0.53159  0.56868  Biso   1.000  C
  C136     1.0000 0.15463  0.52320  0.49871  Biso   1.000  C
  H97      1.0000 0.15512  0.48332  0.49146  Biso   1.000  H
  C137     1.0000 0.11789  0.58995  0.57698  Biso   1.000  C
  C138     1.0000 0.15152  0.64514  0.51795  Biso   1.000  C
  H98      1.0000 0.14989  0.68462  0.52396  Biso   1.000  H
  C139     1.0000 0.18713  0.57484  0.44304  Biso   1.000  C
  H99      1.0000 0.21054  0.56978  0.39802  Biso   1.000  H
  C140     1.0000 0.18644  0.63610  0.45124  Biso   1.000  C
  H100     1.0000 0.20943  0.67046  0.41203  Biso   1.000  H
  Zn10     1.0000 0.06665  0.66749  0.67290  Biso   1.000  Zn
  N41      1.0000 0.69827  0.01719  0.90697  Biso   1.000  N
  C141     1.0000 0.67305  0.97427  0.84211  Biso   1.000  C
  H101     1.0000 0.67922  0.93733  0.83709  Biso   1.000  H
  N42      1.0000 0.63809  0.98752  0.78427  Biso   1.000  N
  C142     1.0000 0.67639  0.06331  0.89230  Biso   1.000  C
  C143     1.0000 0.68725  0.11929  0.93734  Biso   1.000  C
  H102     1.0000 0.71167  0.13158  0.98776  Biso   1.000  H
  C144     1.0000 0.66015  0.15592  0.90478  Biso   1.000  C
  H103     1.0000 0.66617  0.19373  0.93409  Biso   1.000  H
  C145     1.0000 0.62336  0.13794  0.82736  Biso   1.000  C
  H104     1.0000 0.60561  0.16401  0.80730  Biso   1.000  H
  C146     1.0000 0.63985  0.04536  0.81546  Biso   1.000  C
  C147     1.0000 0.61343  0.08299  0.78182  Biso   1.000  C
  H105     1.0000 0.59004  0.07143  0.73050  Biso   1.000  H
  N43      1.0000 0.74583  0.91736  0.98280  Biso   1.000  N
  C148     1.0000 0.72844  0.85679  0.01069  Biso   1.000  C
  H106     1.0000 0.70226  0.83922  0.05923  Biso   1.000  H
  N44      1.0000 0.74979  0.82213  0.96693  Biso   1.000  N
  C149     1.0000 0.78640  0.86492  0.90201  Biso   1.000  C
  C150     1.0000 0.82130  0.85653  0.83204  Biso   1.000  C
  H107     1.0000 0.82179  0.81665  0.82479  Biso   1.000  H
  C151     1.0000 0.78456  0.92328  0.91031  Biso   1.000  C
  C152     1.0000 0.81819  0.97847  0.85128  Biso   1.000  C
  H108     1.0000 0.81656  0.01795  0.85729  Biso   1.000  H
  C153     1.0000 0.85380  0.90817  0.77637  Biso   1.000  C
  H109     1.0000 0.87721  0.90311  0.73135  Biso   1.000  H
  C154     1.0000 0.85311  0.96943  0.78457  Biso   1.000  C
  H110     1.0000 0.87610  0.00379  0.74536  Biso   1.000  H
  Zn11     1.0000 0.73332  0.00082  0.00623  Biso   1.000  Zn
  N45      1.0000 0.36493  0.35053  0.24031  Biso   1.000  N
  C155     1.0000 0.33971  0.30761  0.17545  Biso   1.000  C
  H111     1.0000 0.34588  0.27067  0.17043  Biso   1.000  H
  N46      1.0000 0.30475  0.32086  0.11761  Biso   1.000  N
  C156     1.0000 0.34305  0.39665  0.22564  Biso   1.000  C
  C157     1.0000 0.35391  0.45263  0.27068  Biso   1.000  C
  H112     1.0000 0.37833  0.46492  0.32110  Biso   1.000  H
  C158     1.0000 0.32681  0.48926  0.23812  Biso   1.000  C
  H113     1.0000 0.33283  0.52707  0.26743  Biso   1.000  H
  C159     1.0000 0.29002  0.47128  0.16070  Biso   1.000  C
  H114     1.0000 0.27227  0.49735  0.14064  Biso   1.000  H
  C160     1.0000 0.30651  0.37870  0.14880  Biso   1.000  C
  C161     1.0000 0.28009  0.41633  0.11516  Biso   1.000  C
  H115     1.0000 0.25670  0.40477  0.06384  Biso   1.000  H
  N47      1.0000 0.41249  0.25070  0.31614  Biso   1.000  N
  C162     1.0000 0.39510  0.19013  0.34403  Biso   1.000  C
  H116     1.0000 0.36892  0.17256  0.39257  Biso   1.000  H
  N48      1.0000 0.41645  0.15547  0.30027  Biso   1.000  N
  C163     1.0000 0.45306  0.19826  0.23535  Biso   1.000  C
  C164     1.0000 0.48796  0.18987  0.16538  Biso   1.000  C
  H117     1.0000 0.48845  0.14999  0.15813  Biso   1.000  H
  C165     1.0000 0.45122  0.25662  0.24365  Biso   1.000  C
  C166     1.0000 0.48485  0.31181  0.18462  Biso   1.000  C
  H118     1.0000 0.48322  0.35129  0.19063  Biso   1.000  H
  C167     1.0000 0.52046  0.24151  0.10971  Biso   1.000  C
  H119     1.0000 0.54387  0.23645  0.06469  Biso   1.000  H
  C168     1.0000 0.51977  0.30277  0.11791  Biso   1.000  C
  H120     1.0000 0.54276  0.33713  0.07870  Biso   1.000  H
  Zn12     1.0000 0.39998  0.33416  0.33957  Biso   1.000  Zn
  N49      1.0000 0.31614  0.34774  0.57364  Biso   1.000  N
  C169     1.0000 0.35906  0.36544  0.50878  Biso   1.000  C
  H121     1.0000 0.39600  0.40855  0.50376  Biso   1.000  H
  N50      1.0000 0.34581  0.31723  0.45094  Biso   1.000  N
  C170     1.0000 0.27002  0.27974  0.55897  Biso   1.000  C
  C171     1.0000 0.21404  0.23462  0.60401  Biso   1.000  C
  H122     1.0000 0.20175  0.24675  0.65443  Biso   1.000  H
  C172     1.0000 0.17741  0.17089  0.57145  Biso   1.000  C
  H123     1.0000 0.13960  0.13910  0.60076  Biso   1.000  H
  C173     1.0000 0.19539  0.15208  0.49403  Biso   1.000  C
  H124     1.0000 0.16932  0.10826  0.47397  Biso   1.000  H
  C174     1.0000 0.28797  0.26115  0.48213  Biso   1.000  C
  C175     1.0000 0.25034  0.19710  0.44849  Biso   1.000  C
  H125     1.0000 0.26190  0.18527  0.39717  Biso   1.000  H
  N51      1.0000 0.41597  0.49513  0.64947  Biso   1.000  N
  C176     1.0000 0.47654  0.53831  0.67736  Biso   1.000  C
  H126     1.0000 0.49411  0.52970  0.72590  Biso   1.000  H
  N52      1.0000 0.51120  0.59432  0.63360  Biso   1.000  N
  C177     1.0000 0.46841  0.58814  0.56868  Biso   1.000  C
  C178     1.0000 0.47680  0.63143  0.49871  Biso   1.000  C
  H127     1.0000 0.51668  0.67180  0.49146  Biso   1.000  H
  C179     1.0000 0.41005  0.52794  0.57698  Biso   1.000  C
  C180     1.0000 0.35486  0.50638  0.51795  Biso   1.000  C
  H128     1.0000 0.31538  0.46527  0.52396  Biso   1.000  H
  C181     1.0000 0.42516  0.61229  0.44304  Biso   1.000  C
  H129     1.0000 0.43022  0.64076  0.39802  Biso   1.000  H
  C182     1.0000 0.36390  0.55034  0.45124  Biso   1.000  C
  H130     1.0000 0.32954  0.53897  0.41203  Biso   1.000  H
  Zn13     1.0000 0.33251  0.39916  0.67290  Biso   1.000  Zn
  N53      1.0000 0.98281  0.68107  0.90697  Biso   1.000  N
  C183     1.0000 0.02573  0.69877  0.84211  Biso   1.000  C
  H131     1.0000 0.06267  0.74188  0.83709  Biso   1.000  H
  N54      1.0000 0.01248  0.65056  0.78427  Biso   1.000  N
  C184     1.0000 0.93669  0.61307  0.89230  Biso   1.000  C
  C185     1.0000 0.88071  0.56795  0.93734  Biso   1.000  C
  H132     1.0000 0.86842  0.58008  0.98776  Biso   1.000  H
  C186     1.0000 0.84408  0.50422  0.90478  Biso   1.000  C
  H133     1.0000 0.80627  0.47243  0.93409  Biso   1.000  H
  C187     1.0000 0.86206  0.48541  0.82736  Biso   1.000  C
  H134     1.0000 0.83599  0.44159  0.80730  Biso   1.000  H
  C188     1.0000 0.95464  0.59448  0.81546  Biso   1.000  C
  C189     1.0000 0.91701  0.53043  0.78182  Biso   1.000  C
  H135     1.0000 0.92857  0.51860  0.73050  Biso   1.000  H
  N55      1.0000 0.08264  0.82846  0.98280  Biso   1.000  N
  C190     1.0000 0.14321  0.87164  0.01069  Biso   1.000  C
  H136     1.0000 0.16078  0.86303  0.05923  Biso   1.000  H
  N56      1.0000 0.17787  0.92765  0.96693  Biso   1.000  N
  C191     1.0000 0.13508  0.92147  0.90201  Biso   1.000  C
  C192     1.0000 0.14347  0.96476  0.83204  Biso   1.000  C
  H137     1.0000 0.18335  0.00513  0.82479  Biso   1.000  H
  C193     1.0000 0.07672  0.86127  0.91031  Biso   1.000  C
  C194     1.0000 0.02153  0.83971  0.85128  Biso   1.000  C
  H138     1.0000 0.98205  0.79860  0.85729  Biso   1.000  H
  C195     1.0000 0.09183  0.94562  0.77637  Biso   1.000  C
  H139     1.0000 0.09689  0.97409  0.73135  Biso   1.000  H
  C196     1.0000 0.03057  0.88367  0.78457  Biso   1.000  C
  H140     1.0000 0.99621  0.87230  0.74536  Biso   1.000  H
  Zn14     1.0000 0.99918  0.73249  0.00623  Biso   1.000  Zn
  N57      1.0000 0.64947  0.01441  0.24031  Biso   1.000  N
  C197     1.0000 0.69239  0.03211  0.17545  Biso   1.000  C
  H141     1.0000 0.72933  0.07522  0.17043  Biso   1.000  H
  N58      1.0000 0.67914  0.98390  0.11761  Biso   1.000  N
  C198     1.0000 0.60335  0.94641  0.22564  Biso   1.000  C
  C199     1.0000 0.54737  0.90129  0.27068  Biso   1.000  C
  H142     1.0000 0.53508  0.91342  0.32110  Biso   1.000  H
  C200     1.0000 0.51074  0.83756  0.23812  Biso   1.000  C
  H143     1.0000 0.47293  0.80577  0.26743  Biso   1.000  H
  C201     1.0000 0.52872  0.81875  0.16070  Biso   1.000  C
  H144     1.0000 0.50265  0.77493  0.14064  Biso   1.000  H
  C202     1.0000 0.62130  0.92782  0.14880  Biso   1.000  C
  C203     1.0000 0.58367  0.86377  0.11516  Biso   1.000  C
  H145     1.0000 0.59523  0.85194  0.06384  Biso   1.000  H
  N59      1.0000 0.74930  0.16180  0.31614  Biso   1.000  N
  C204     1.0000 0.80987  0.20498  0.34403  Biso   1.000  C
  H146     1.0000 0.82744  0.19637  0.39257  Biso   1.000  H
  N60      1.0000 0.84453  0.26099  0.30027  Biso   1.000  N
  C205     1.0000 0.80174  0.25481  0.23535  Biso   1.000  C
  C206     1.0000 0.81013  0.29810  0.16538  Biso   1.000  C
  H147     1.0000 0.85001  0.33847  0.15813  Biso   1.000  H
  C207     1.0000 0.74338  0.19461  0.24365  Biso   1.000  C
  C208     1.0000 0.68819  0.17305  0.18462  Biso   1.000  C
  H148     1.0000 0.64871  0.13194  0.19063  Biso   1.000  H
  C209     1.0000 0.75849  0.27896  0.10971  Biso   1.000  C
  H149     1.0000 0.76355  0.30743  0.06469  Biso   1.000  H
  C210     1.0000 0.69723  0.21701  0.11791  Biso   1.000  C
  H150     1.0000 0.66287  0.20564  0.07870  Biso   1.000  H
  Zn15     1.0000 0.66584  0.06583  0.33957  Biso   1.000  Zn
  N61      1.0000 0.65226  0.96840  0.57364  Biso   1.000  N
  C211     1.0000 0.63456  0.99362  0.50878  Biso   1.000  C
  H151     1.0000 0.59145  0.98745  0.50376  Biso   1.000  H
  N62      1.0000 0.68277  0.02858  0.45094  Biso   1.000  N
  C212     1.0000 0.72026  0.99028  0.55897  Biso   1.000  C
  C213     1.0000 0.76538  0.97942  0.60401  Biso   1.000  C
  H152     1.0000 0.75325  0.95500  0.65443  Biso   1.000  H
  C214     1.0000 0.82911  0.00652  0.57145  Biso   1.000  C
  H153     1.0000 0.86090  0.00050  0.60076  Biso   1.000  H
  C215     1.0000 0.84792  0.04331  0.49403  Biso   1.000  C
  H154     1.0000 0.89174  0.06106  0.47397  Biso   1.000  H
  C216     1.0000 0.73885  0.02682  0.48213  Biso   1.000  C
  C217     1.0000 0.80290  0.05324  0.44849  Biso   1.000  C
  H155     1.0000 0.81473  0.07663  0.39717  Biso   1.000  H
  N63      1.0000 0.50487  0.92084  0.64947  Biso   1.000  N
  C218     1.0000 0.46169  0.93823  0.67736  Biso   1.000  C
  H156     1.0000 0.47030  0.96441  0.72590  Biso   1.000  H
  N64      1.0000 0.40568  0.91688  0.63360  Biso   1.000  N
  C219     1.0000 0.41186  0.88027  0.56868  Biso   1.000  C
  C220     1.0000 0.36857  0.84537  0.49871  Biso   1.000  C
  H157     1.0000 0.32820  0.84488  0.49146  Biso   1.000  H
  C221     1.0000 0.47206  0.88211  0.57698  Biso   1.000  C
  C222     1.0000 0.49362  0.84848  0.51795  Biso   1.000  C
  H158     1.0000 0.53473  0.85011  0.52396  Biso   1.000  H
  C223     1.0000 0.38771  0.81287  0.44304  Biso   1.000  C
  H159     1.0000 0.35924  0.78946  0.39802  Biso   1.000  H
  C224     1.0000 0.44966  0.81356  0.45124  Biso   1.000  C
  H160     1.0000 0.46103  0.79057  0.41203  Biso   1.000  H
  Zn16     1.0000 0.60084  0.93335  0.67290  Biso   1.000  Zn
  N65      1.0000 0.31893  0.30173  0.90697  Biso   1.000  N
  C225     1.0000 0.30123  0.32695  0.84211  Biso   1.000  C
  H161     1.0000 0.25812  0.32078  0.83709  Biso   1.000  H
  N66      1.0000 0.34944  0.36191  0.78427  Biso   1.000  N
  C226     1.0000 0.38693  0.32361  0.89230  Biso   1.000  C
  C227     1.0000 0.43205  0.31275  0.93734  Biso   1.000  C
  H162     1.0000 0.41992  0.28833  0.98776  Biso   1.000  H
  C228     1.0000 0.49578  0.33985  0.90478  Biso   1.000  C
  H163     1.0000 0.52757  0.33383  0.93409  Biso   1.000  H
  C229     1.0000 0.51459  0.37664  0.82736  Biso   1.000  C
  H164     1.0000 0.55841  0.39439  0.80730  Biso   1.000  H
  C230     1.0000 0.40552  0.36015  0.81546  Biso   1.000  C
  C231     1.0000 0.46957  0.38657  0.78182  Biso   1.000  C
  H165     1.0000 0.48140  0.40996  0.73050  Biso   1.000  H
  N67      1.0000 0.17154  0.25417  0.98280  Biso   1.000  N
  C232     1.0000 0.12836  0.27156  0.01069  Biso   1.000  C
  H166     1.0000 0.13697  0.29774  0.05923  Biso   1.000  H
  N68      1.0000 0.07235  0.25021  0.96693  Biso   1.000  N
  C233     1.0000 0.07853  0.21360  0.90201  Biso   1.000  C
  C234     1.0000 0.03524  0.17870  0.83204  Biso   1.000  C
  H167     1.0000 0.99487  0.17821  0.82479  Biso   1.000  H
  C235     1.0000 0.13873  0.21544  0.91031  Biso   1.000  C
  C236     1.0000 0.16029  0.18181  0.85128  Biso   1.000  C
  H168     1.0000 0.20140  0.18344  0.85729  Biso   1.000  H
  C237     1.0000 0.05438  0.14620  0.77637  Biso   1.000  C
  H169     1.0000 0.02591  0.12279  0.73135  Biso   1.000  H
  C238     1.0000 0.11633  0.14689  0.78457  Biso   1.000  C
  H170     1.0000 0.12770  0.12390  0.74536  Biso   1.000  H
  Zn17     1.0000 0.26751  0.26668  0.00623  Biso   1.000  Zn
  N69      1.0000 0.98559  0.63507  0.24031  Biso   1.000  N
  C239     1.0000 0.96789  0.66029  0.17545  Biso   1.000  C
  H171     1.0000 0.92478  0.65412  0.17043  Biso   1.000  H
  N70      1.0000 0.01610  0.69525  0.11761  Biso   1.000  N
  C240     1.0000 0.05359  0.65695  0.22564  Biso   1.000  C
  C241     1.0000 0.09871  0.64609  0.27068  Biso   1.000  C
  H172     1.0000 0.08658  0.62167  0.32110  Biso   1.000  H
  C242     1.0000 0.16244  0.67319  0.23812  Biso   1.000  C
  H173     1.0000 0.19423  0.66717  0.26743  Biso   1.000  H
  C243     1.0000 0.18125  0.70998  0.16070  Biso   1.000  C
  H174     1.0000 0.22507  0.72773  0.14064  Biso   1.000  H
  C244     1.0000 0.07218  0.69349  0.14880  Biso   1.000  C
  C245     1.0000 0.13623  0.71991  0.11516  Biso   1.000  C
  H175     1.0000 0.14806  0.74330  0.06384  Biso   1.000  H
  N71      1.0000 0.83820  0.58751  0.31614  Biso   1.000  N
  C246     1.0000 0.79502  0.60490  0.34403  Biso   1.000  C
  H176     1.0000 0.80363  0.63108  0.39257  Biso   1.000  H
  N72      1.0000 0.73901  0.58355  0.30027  Biso   1.000  N
  C247     1.0000 0.74519  0.54694  0.23535  Biso   1.000  C
  C248     1.0000 0.70190  0.51204  0.16538  Biso   1.000  C
  H177     1.0000 0.66153  0.51155  0.15813  Biso   1.000  H
  C249     1.0000 0.80539  0.54878  0.24365  Biso   1.000  C
  C250     1.0000 0.82695  0.51515  0.18462  Biso   1.000  C
  H178     1.0000 0.86806  0.51678  0.19063  Biso   1.000  H
  C251     1.0000 0.72104  0.47954  0.10971  Biso   1.000  C
  H179     1.0000 0.69257  0.45613  0.06469  Biso   1.000  H
  C252     1.0000 0.78299  0.48023  0.11791  Biso   1.000  C
  H180     1.0000 0.79436  0.45724  0.07870  Biso   1.000  H
  Zn18     1.0000 0.93417  0.60002  0.33957  Biso   1.000  Zn
