data_image0
_cell_length_a       9.4391
_cell_length_b       16.2024
_cell_length_c       23.9864
_cell_angle_alpha    108.354
_cell_angle_beta     90
_cell_angle_gamma    90

_symmetry_space_group_name_H-M    P 1
_symmetry_int_tables_number       1

loop_
  _symmetry_equiv_pos_as_xyz
  'x, y, z'

loop_
  _atom_site_label
  _atom_site_occupancy
  _atom_site_fract_x
  _atom_site_fract_y
  _atom_site_fract_z
  _atom_site_thermal_displace_type
  _atom_site_B_iso_or_equiv
  _atom_site_type_symbol
  Tb1      1.0000 0.49953  0.70184  0.90304  Biso   1.000  Tb
  Tb2      1.0000 0.49953  0.29816  0.59696  Biso   1.000  Tb
  Tb3      1.0000 0.50047  0.29816  0.09696  Biso   1.000  Tb
  Tb4      1.0000 0.50047  0.70184  0.40304  Biso   1.000  Tb
  Ca1      1.0000 0.00232  0.50000  0.75000  Biso   1.000  Ca
  Ca2      1.0000 0.99768  0.50000  0.25000  Biso   1.000  Ca
  Ca3      1.0000 0.00000  0.50000  0.00000  Biso   1.000  Ca
  Ca4      1.0000 0.00000  0.50000  0.50000  Biso   1.000  Ca
  Ca5      1.0000 0.00000  0.00000  0.00000  Biso   1.000  Ca
  Ca6      1.0000 0.00000  0.00000  0.50000  Biso   1.000  Ca
  H1       1.0000 0.31330  0.90130  0.11640  Biso   1.000  H
  H2       1.0000 0.46990  0.01740  0.13090  Biso   1.000  H
  H3       1.0000 0.64300  0.01010  0.06090  Biso   1.000  H
  H4       1.0000 0.38830  0.86740  0.74490  Biso   1.000  H
  H5       1.0000 0.56880  0.80650  0.67850  Biso   1.000  H
  H6       1.0000 0.72040  0.70700  0.69750  Biso   1.000  H
  H7       1.0000 0.64930  0.41830  0.96100  Biso   1.000  H
  H8       1.0000 0.47380  0.32430  0.90930  Biso   1.000  H
  H9       1.0000 0.31520  0.37210  0.85250  Biso   1.000  H
  H10      1.0000 0.15700  0.65400  0.81000  Biso   1.000  H
  H11      1.0000 0.02700  0.68600  0.80800  Biso   1.000  H
  H12      1.0000 0.17200  0.61200  0.95400  Biso   1.000  H
  H13      1.0000 0.05000  0.60400  0.92300  Biso   1.000  H
  H14      1.0000 0.04500  0.82100  0.96700  Biso   1.000  H
  H15      1.0000 0.17600  0.83800  0.95100  Biso   1.000  H
  H16      1.0000 0.31330  0.09870  0.38360  Biso   1.000  H
  H17      1.0000 0.46990  0.98260  0.36910  Biso   1.000  H
  H18      1.0000 0.64300  0.98990  0.43910  Biso   1.000  H
  H19      1.0000 0.38830  0.13260  0.75510  Biso   1.000  H
  H20      1.0000 0.56880  0.19350  0.82150  Biso   1.000  H
  H21      1.0000 0.72040  0.29300  0.80250  Biso   1.000  H
  H22      1.0000 0.64930  0.58170  0.53900  Biso   1.000  H
  H23      1.0000 0.47380  0.67570  0.59070  Biso   1.000  H
  H24      1.0000 0.31520  0.62790  0.64750  Biso   1.000  H
  H25      1.0000 0.15700  0.34600  0.69000  Biso   1.000  H
  H26      1.0000 0.02700  0.31400  0.69200  Biso   1.000  H
  H27      1.0000 0.17200  0.38800  0.54600  Biso   1.000  H
  H28      1.0000 0.05000  0.39600  0.57700  Biso   1.000  H
  H29      1.0000 0.04500  0.17900  0.53300  Biso   1.000  H
  H30      1.0000 0.17600  0.16200  0.54900  Biso   1.000  H
  H31      1.0000 0.68670  0.09870  0.88360  Biso   1.000  H
  H32      1.0000 0.53010  0.98260  0.86910  Biso   1.000  H
  H33      1.0000 0.35700  0.98990  0.93910  Biso   1.000  H
  H34      1.0000 0.61170  0.13260  0.25510  Biso   1.000  H
  H35      1.0000 0.43120  0.19350  0.32150  Biso   1.000  H
  H36      1.0000 0.27960  0.29300  0.30250  Biso   1.000  H
  H37      1.0000 0.35070  0.58170  0.03900  Biso   1.000  H
  H38      1.0000 0.52620  0.67570  0.09070  Biso   1.000  H
  H39      1.0000 0.68480  0.62790  0.14750  Biso   1.000  H
  H40      1.0000 0.84300  0.34600  0.19000  Biso   1.000  H
  H41      1.0000 0.97300  0.31400  0.19200  Biso   1.000  H
  H42      1.0000 0.82800  0.38800  0.04600  Biso   1.000  H
  H43      1.0000 0.95000  0.39600  0.07700  Biso   1.000  H
  H44      1.0000 0.95500  0.17900  0.03300  Biso   1.000  H
  H45      1.0000 0.82400  0.16200  0.04900  Biso   1.000  H
  H46      1.0000 0.68670  0.90130  0.61640  Biso   1.000  H
  H47      1.0000 0.53010  0.01740  0.63090  Biso   1.000  H
  H48      1.0000 0.35700  0.01010  0.56090  Biso   1.000  H
  H49      1.0000 0.61170  0.86740  0.24490  Biso   1.000  H
  H50      1.0000 0.43120  0.80650  0.17850  Biso   1.000  H
  H51      1.0000 0.27960  0.70700  0.19750  Biso   1.000  H
  H52      1.0000 0.35070  0.41830  0.46100  Biso   1.000  H
  H53      1.0000 0.52620  0.32430  0.40930  Biso   1.000  H
  H54      1.0000 0.68480  0.37210  0.35250  Biso   1.000  H
  H55      1.0000 0.84300  0.65400  0.31000  Biso   1.000  H
  H56      1.0000 0.97300  0.68600  0.30800  Biso   1.000  H
  H57      1.0000 0.82800  0.61200  0.45400  Biso   1.000  H
  H58      1.0000 0.95000  0.60400  0.42300  Biso   1.000  H
  H59      1.0000 0.95500  0.82100  0.46700  Biso   1.000  H
  H60      1.0000 0.82400  0.83800  0.45100  Biso   1.000  H
  C1       1.0000 0.30370  0.75050  0.02580  Biso   1.000  C
  C2       1.0000 0.39680  0.82950  0.03910  Biso   1.000  C
  C3       1.0000 0.38360  0.90000  0.08890  Biso   1.000  C
  C4       1.0000 0.47670  0.96890  0.09760  Biso   1.000  C
  C5       1.0000 0.57940  0.96450  0.05600  Biso   1.000  C
  C6       1.0000 0.58700  0.89160  0.00680  Biso   1.000  C
  C7       1.0000 0.69320  0.88030  0.95900  Biso   1.000  C
  C8       1.0000 0.31880  0.83110  0.84550  Biso   1.000  C
  C9       1.0000 0.43050  0.79580  0.79860  Biso   1.000  C
  C10      1.0000 0.44780  0.82510  0.75070  Biso   1.000  C
  C11      1.0000 0.55610  0.78960  0.71180  Biso   1.000  C
  C12      1.0000 0.64450  0.72950  0.72240  Biso   1.000  C
  C13      1.0000 0.61950  0.70280  0.77070  Biso   1.000  C
  C14      1.0000 0.70960  0.63650  0.78680  Biso   1.000  C
  C15      1.0000 0.69300  0.58840  0.96780  Biso   1.000  C
  C16      1.0000 0.58660  0.52050  0.93470  Biso   1.000  C
  C17      1.0000 0.58350  0.43630  0.93840  Biso   1.000  C
  C18      1.0000 0.47980  0.38060  0.90750  Biso   1.000  C
  C19      1.0000 0.38550  0.40900  0.87380  Biso   1.000  C
  C20      1.0000 0.39690  0.49310  0.87220  Biso   1.000  C
  C21      1.0000 0.29810  0.53190  0.83820  Biso   1.000  C
  C22      1.0000 0.30370  0.24950  0.47420  Biso   1.000  C
  C23      1.0000 0.39680  0.17050  0.46090  Biso   1.000  C
  C24      1.0000 0.38360  0.10000  0.41110  Biso   1.000  C
  C25      1.0000 0.47670  0.03110  0.40240  Biso   1.000  C
  C26      1.0000 0.57940  0.03550  0.44400  Biso   1.000  C
  C27      1.0000 0.58700  0.10840  0.49320  Biso   1.000  C
  C28      1.0000 0.69320  0.11970  0.54100  Biso   1.000  C
  C29      1.0000 0.31880  0.16890  0.65450  Biso   1.000  C
  C30      1.0000 0.43050  0.20420  0.70140  Biso   1.000  C
  C31      1.0000 0.44780  0.17490  0.74930  Biso   1.000  C
  C32      1.0000 0.55610  0.21040  0.78820  Biso   1.000  C
  C33      1.0000 0.64450  0.27050  0.77760  Biso   1.000  C
  C34      1.0000 0.61950  0.29720  0.72930  Biso   1.000  C
  C35      1.0000 0.70960  0.36350  0.71320  Biso   1.000  C
  C36      1.0000 0.69300  0.41160  0.53220  Biso   1.000  C
  C37      1.0000 0.58660  0.47950  0.56530  Biso   1.000  C
  C38      1.0000 0.58350  0.56370  0.56160  Biso   1.000  C
  C39      1.0000 0.47980  0.61940  0.59250  Biso   1.000  C
  C40      1.0000 0.38550  0.59100  0.62620  Biso   1.000  C
  C41      1.0000 0.39690  0.50690  0.62780  Biso   1.000  C
  C42      1.0000 0.29810  0.46810  0.66180  Biso   1.000  C
  C43      1.0000 0.69630  0.24950  0.97420  Biso   1.000  C
  C44      1.0000 0.60320  0.17050  0.96090  Biso   1.000  C
  C45      1.0000 0.61640  0.10000  0.91110  Biso   1.000  C
  C46      1.0000 0.52330  0.03110  0.90240  Biso   1.000  C
  C47      1.0000 0.42060  0.03550  0.94400  Biso   1.000  C
  C48      1.0000 0.41300  0.10840  0.99320  Biso   1.000  C
  C49      1.0000 0.30680  0.11970  0.04100  Biso   1.000  C
  C50      1.0000 0.68120  0.16890  0.15450  Biso   1.000  C
  C51      1.0000 0.56950  0.20420  0.20140  Biso   1.000  C
  C52      1.0000 0.55220  0.17490  0.24930  Biso   1.000  C
  C53      1.0000 0.44390  0.21040  0.28820  Biso   1.000  C
  C54      1.0000 0.35550  0.27050  0.27760  Biso   1.000  C
  C55      1.0000 0.38050  0.29720  0.22930  Biso   1.000  C
  C56      1.0000 0.29040  0.36350  0.21320  Biso   1.000  C
  C57      1.0000 0.30700  0.41160  0.03220  Biso   1.000  C
  C58      1.0000 0.41340  0.47950  0.06530  Biso   1.000  C
  C59      1.0000 0.41650  0.56370  0.06160  Biso   1.000  C
  C60      1.0000 0.52020  0.61940  0.09250  Biso   1.000  C
  C61      1.0000 0.61450  0.59100  0.12620  Biso   1.000  C
  C62      1.0000 0.60310  0.50690  0.12780  Biso   1.000  C
  C63      1.0000 0.70190  0.46810  0.16180  Biso   1.000  C
  C64      1.0000 0.69630  0.75050  0.52580  Biso   1.000  C
  C65      1.0000 0.60320  0.82950  0.53910  Biso   1.000  C
  C66      1.0000 0.61640  0.90000  0.58890  Biso   1.000  C
  C67      1.0000 0.52330  0.96890  0.59760  Biso   1.000  C
  C68      1.0000 0.42060  0.96450  0.55600  Biso   1.000  C
  C69      1.0000 0.41300  0.89160  0.50680  Biso   1.000  C
  C70      1.0000 0.30680  0.88030  0.45900  Biso   1.000  C
  C71      1.0000 0.68120  0.83110  0.34550  Biso   1.000  C
  C72      1.0000 0.56950  0.79580  0.29860  Biso   1.000  C
  C73      1.0000 0.55220  0.82510  0.25070  Biso   1.000  C
  C74      1.0000 0.44390  0.78960  0.21180  Biso   1.000  C
  C75      1.0000 0.35550  0.72950  0.22240  Biso   1.000  C
  C76      1.0000 0.38050  0.70280  0.27070  Biso   1.000  C
  C77      1.0000 0.29040  0.63650  0.28680  Biso   1.000  C
  C78      1.0000 0.30700  0.58840  0.46780  Biso   1.000  C
  C79      1.0000 0.41340  0.52050  0.43470  Biso   1.000  C
  C80      1.0000 0.41650  0.43630  0.43840  Biso   1.000  C
  C81      1.0000 0.52020  0.38060  0.40750  Biso   1.000  C
  C82      1.0000 0.61450  0.40900  0.37380  Biso   1.000  C
  C83      1.0000 0.60310  0.49310  0.37220  Biso   1.000  C
  C84      1.0000 0.70190  0.53190  0.33820  Biso   1.000  C
  N1       1.0000 0.49500  0.82570  0.99820  Biso   1.000  N
  N2       1.0000 0.51500  0.73560  0.80815  Biso   1.000  N
  N3       1.0000 0.49520  0.54750  0.90340  Biso   1.000  N
  N4       1.0000 0.49500  0.17430  0.50180  Biso   1.000  N
  N5       1.0000 0.51500  0.26440  0.69185  Biso   1.000  N
  N6       1.0000 0.49520  0.45250  0.59660  Biso   1.000  N
  N7       1.0000 0.50500  0.17430  0.00180  Biso   1.000  N
  N8       1.0000 0.48500  0.26440  0.19185  Biso   1.000  N
  N9       1.0000 0.50480  0.45250  0.09660  Biso   1.000  N
  N10      1.0000 0.50500  0.82570  0.49820  Biso   1.000  N
  N11      1.0000 0.48500  0.73560  0.30815  Biso   1.000  N
  N12      1.0000 0.50480  0.54750  0.40340  Biso   1.000  N
  O1       1.0000 0.32020  0.69470  0.97502  Biso   1.000  O
  O2       1.0000 0.22060  0.74370  0.06380  Biso   1.000  O
  O3       1.0000 0.67660  0.81430  0.91402  Biso   1.000  O
  O4       1.0000 0.78850  0.93530  0.96531  Biso   1.000  O
  O5       1.0000 0.32700  0.80540  0.89004  Biso   1.000  O
  O6       1.0000 0.23190  0.88360  0.83820  Biso   1.000  O
  O7       1.0000 0.80430  0.59800  0.75241  Biso   1.000  O
  O8       1.0000 0.68120  0.62570  0.83534  Biso   1.000  O
  O9       1.0000 0.67210  0.66420  0.96569  Biso   1.000  O
  O10      1.0000 0.79020  0.56630  0.99461  Biso   1.000  O
  O11      1.0000 0.32140  0.61070  0.84197  Biso   1.000  O
  O12      1.0000 0.20030  0.48670  0.80982  Biso   1.000  O
  O13      1.0000 0.90520  0.53040  0.85169  Biso   1.000  O
  O14      1.0000 0.08660  0.65060  0.78756  Biso   1.000  O
  O15      1.0000 0.93610  0.38660  0.91270  Biso   1.000  O
  O16      1.0000 0.09590  0.58320  0.94660  Biso   1.000  O
  O17      1.0000 0.09990  0.86200  0.96570  Biso   1.000  O
  O18      1.0000 0.05300  0.00950  0.90710  Biso   1.000  O
  O19      1.0000 0.32020  0.30530  0.52498  Biso   1.000  O
  O20      1.0000 0.22060  0.25630  0.43620  Biso   1.000  O
  O21      1.0000 0.67660  0.18570  0.58598  Biso   1.000  O
  O22      1.0000 0.78850  0.06470  0.53469  Biso   1.000  O
  O23      1.0000 0.32700  0.19460  0.60996  Biso   1.000  O
  O24      1.0000 0.23190  0.11640  0.66180  Biso   1.000  O
  O25      1.0000 0.80430  0.40200  0.74759  Biso   1.000  O
  O26      1.0000 0.68120  0.37430  0.66466  Biso   1.000  O
  O27      1.0000 0.67210  0.33580  0.53431  Biso   1.000  O
  O28      1.0000 0.79020  0.43370  0.50539  Biso   1.000  O
  O29      1.0000 0.32140  0.38930  0.65803  Biso   1.000  O
  O30      1.0000 0.20030  0.51330  0.69018  Biso   1.000  O
  O31      1.0000 0.90520  0.46960  0.64831  Biso   1.000  O
  O32      1.0000 0.08660  0.34940  0.71244  Biso   1.000  O
  O33      1.0000 0.93610  0.61340  0.58730  Biso   1.000  O
  O34      1.0000 0.09590  0.41680  0.55340  Biso   1.000  O
  O35      1.0000 0.09990  0.13800  0.53430  Biso   1.000  O
  O36      1.0000 0.05300  0.99050  0.59290  Biso   1.000  O
  O37      1.0000 0.67980  0.30530  0.02498  Biso   1.000  O
  O38      1.0000 0.77940  0.25630  0.93620  Biso   1.000  O
  O39      1.0000 0.32340  0.18570  0.08598  Biso   1.000  O
  O40      1.0000 0.21150  0.06470  0.03469  Biso   1.000  O
  O41      1.0000 0.67300  0.19460  0.10996  Biso   1.000  O
  O42      1.0000 0.76810  0.11640  0.16180  Biso   1.000  O
  O43      1.0000 0.19570  0.40200  0.24759  Biso   1.000  O
  O44      1.0000 0.31880  0.37430  0.16466  Biso   1.000  O
  O45      1.0000 0.32790  0.33580  0.03431  Biso   1.000  O
  O46      1.0000 0.20980  0.43370  0.00539  Biso   1.000  O
  O47      1.0000 0.67860  0.38930  0.15803  Biso   1.000  O
  O48      1.0000 0.79970  0.51330  0.19018  Biso   1.000  O
  O49      1.0000 0.09480  0.46960  0.14831  Biso   1.000  O
  O50      1.0000 0.91340  0.34940  0.21244  Biso   1.000  O
  O51      1.0000 0.06390  0.61340  0.08730  Biso   1.000  O
  O52      1.0000 0.90410  0.41680  0.05340  Biso   1.000  O
  O53      1.0000 0.90010  0.13800  0.03430  Biso   1.000  O
  O54      1.0000 0.94700  0.99050  0.09290  Biso   1.000  O
  O55      1.0000 0.67980  0.69470  0.47502  Biso   1.000  O
  O56      1.0000 0.77940  0.74370  0.56380  Biso   1.000  O
  O57      1.0000 0.32340  0.81430  0.41402  Biso   1.000  O
  O58      1.0000 0.21150  0.93530  0.46531  Biso   1.000  O
  O59      1.0000 0.67300  0.80540  0.39004  Biso   1.000  O
  O60      1.0000 0.76810  0.88360  0.33820  Biso   1.000  O
  O61      1.0000 0.19570  0.59800  0.25241  Biso   1.000  O
  O62      1.0000 0.31880  0.62570  0.33534  Biso   1.000  O
  O63      1.0000 0.32790  0.66420  0.46569  Biso   1.000  O
  O64      1.0000 0.20980  0.56630  0.49461  Biso   1.000  O
  O65      1.0000 0.67860  0.61070  0.34197  Biso   1.000  O
  O66      1.0000 0.79970  0.48670  0.30982  Biso   1.000  O
  O67      1.0000 0.09480  0.53040  0.35169  Biso   1.000  O
  O68      1.0000 0.91340  0.65060  0.28756  Biso   1.000  O
  O69      1.0000 0.06390  0.38660  0.41270  Biso   1.000  O
  O70      1.0000 0.90410  0.58320  0.44660  Biso   1.000  O
  O71      1.0000 0.90010  0.86200  0.46570  Biso   1.000  O
  O72      1.0000 0.94700  0.00950  0.40710  Biso   1.000  O
