data_image0
_cell_length_a       26.113
_cell_length_b       26.113
_cell_length_c       19.6459
_cell_angle_alpha    90
_cell_angle_beta     90
_cell_angle_gamma    120

_symmetry_space_group_name_H-M    "P 1"
_symmetry_int_tables_number       1

loop_
  _symmetry_equiv_pos_as_xyz
  'x, y, z'

loop_
  _atom_site_label
  _atom_site_occupancy
  _atom_site_fract_x
  _atom_site_fract_y
  _atom_site_fract_z
  _atom_site_thermal_displace_type
  _atom_site_B_iso_or_equiv
  _atom_site_type_symbol
  Co1      1.0000 0.66716  0.10261  0.40179  Biso   1.000  Co
  N1       1.0000 0.74115  0.17309  0.43630  Biso   1.000  N
  N2       1.0000 0.65954  0.03720  0.46160  Biso   1.000  N
  N3       1.0000 0.68000  0.07980  0.30810  Biso   1.000  N
  N4       1.0000 0.60340  0.12190  0.43240  Biso   1.000  N
  C1       1.0000 0.75820  0.18630  0.50340  Biso   1.000  C
  C2       1.0000 0.70320  0.02310  0.47480  Biso   1.000  C
  C3       1.0000 0.68070  0.03260  0.28500  Biso   1.000  C
  C4       1.0000 0.60720  0.15950  0.47470  Biso   1.000  C
  C5       1.0000 0.73430  0.15620  0.56490  Biso   1.000  C
  C6       1.0000 0.76050  0.04550  0.44990  Biso   1.000  C
  H1       1.0000 0.68110  0.00370  0.31210  Biso   1.000  H
  H2       1.0000 0.64000  0.18330  0.50150  Biso   1.000  H
  H3       1.0000 0.69890  0.12030  0.56500  Biso   1.000  H
  C7       1.0000 0.76260  0.17970  0.62290  Biso   1.000  C
  C8       1.0000 0.79360  0.02100  0.47400  Biso   1.000  C
  H4       1.0000 0.77610  0.07590  0.41810  Biso   1.000  H
  O1       1.0000 0.67329  0.17952  0.30582  Biso   1.000  O
  O2       1.0000 0.55350  0.02540  0.35520  Biso   1.000  O
  Cl1      1.0000 0.71970  0.13480  0.69500  Biso   1.000  Cl
  Cl2      1.0000 0.85620  0.03020  0.43990  Biso   1.000  Cl
  Co2      1.0000 0.89739  0.56455  0.40179  Biso   1.000  Co
  N5       1.0000 0.82691  0.56806  0.43630  Biso   1.000  N
  N6       1.0000 0.96280  0.62234  0.46160  Biso   1.000  N
  N7       1.0000 0.92020  0.60020  0.30810  Biso   1.000  N
  N8       1.0000 0.87810  0.48150  0.43240  Biso   1.000  N
  C9       1.0000 0.81370  0.57190  0.50340  Biso   1.000  C
  C10      1.0000 0.97690  0.68010  0.47480  Biso   1.000  C
  C11      1.0000 0.96740  0.64810  0.28500  Biso   1.000  C
  C12      1.0000 0.84050  0.44770  0.47470  Biso   1.000  C
  C13      1.0000 0.84380  0.57810  0.56490  Biso   1.000  C
  C14      1.0000 0.95450  0.71500  0.44990  Biso   1.000  C
  H5       1.0000 0.99630  0.67740  0.31210  Biso   1.000  H
  H6       1.0000 0.81670  0.45670  0.50150  Biso   1.000  H
  H7       1.0000 0.87970  0.57860  0.56500  Biso   1.000  H
  C15      1.0000 0.82030  0.58290  0.62290  Biso   1.000  C
  C16      1.0000 0.97900  0.77260  0.47400  Biso   1.000  C
  H8       1.0000 0.92410  0.70020  0.41810  Biso   1.000  H
  O3       1.0000 0.82048  0.49377  0.30582  Biso   1.000  O
  O4       1.0000 0.97460  0.52810  0.35520  Biso   1.000  O
  Cl3      1.0000 0.86520  0.58490  0.69500  Biso   1.000  Cl
  Cl4      1.0000 0.96980  0.82600  0.43990  Biso   1.000  Cl
  Co3      1.0000 0.43545  0.33284  0.40179  Biso   1.000  Co
  N9       1.0000 0.43194  0.25885  0.43630  Biso   1.000  N
  N10      1.0000 0.37766  0.34046  0.46160  Biso   1.000  N
  N11      1.0000 0.39980  0.32000  0.30810  Biso   1.000  N
  N12      1.0000 0.51850  0.39660  0.43240  Biso   1.000  N
  C17      1.0000 0.42810  0.24180  0.50340  Biso   1.000  C
  C18      1.0000 0.31990  0.29680  0.47480  Biso   1.000  C
  C19      1.0000 0.35190  0.31930  0.28500  Biso   1.000  C
  C20      1.0000 0.55230  0.39280  0.47470  Biso   1.000  C
  C21      1.0000 0.42190  0.26570  0.56490  Biso   1.000  C
  C22      1.0000 0.28500  0.23950  0.44990  Biso   1.000  C
  H9       1.0000 0.32260  0.31890  0.31210  Biso   1.000  H
  H10      1.0000 0.54330  0.36000  0.50150  Biso   1.000  H
  H11      1.0000 0.42140  0.30110  0.56500  Biso   1.000  H
  C23      1.0000 0.41710  0.23740  0.62290  Biso   1.000  C
  C24      1.0000 0.22740  0.20640  0.47400  Biso   1.000  C
  H12      1.0000 0.29980  0.22390  0.41810  Biso   1.000  H
  O5       1.0000 0.50623  0.32671  0.30582  Biso   1.000  O
  O6       1.0000 0.47190  0.44650  0.35520  Biso   1.000  O
  Cl5      1.0000 0.41510  0.28030  0.69500  Biso   1.000  Cl
  Cl6      1.0000 0.17400  0.14380  0.43990  Biso   1.000  Cl
  Co4      1.0000 0.33284  0.89739  0.90179  Biso   1.000  Co
  N13      1.0000 0.25885  0.82691  0.93630  Biso   1.000  N
  N14      1.0000 0.34046  0.96280  0.96160  Biso   1.000  N
  N15      1.0000 0.32000  0.92020  0.80810  Biso   1.000  N
  N16      1.0000 0.39660  0.87810  0.93240  Biso   1.000  N
  C25      1.0000 0.24180  0.81370  0.00340  Biso   1.000  C
  C26      1.0000 0.29680  0.97690  0.97480  Biso   1.000  C
  C27      1.0000 0.31930  0.96740  0.78500  Biso   1.000  C
  C28      1.0000 0.39280  0.84050  0.97470  Biso   1.000  C
  C29      1.0000 0.26570  0.84380  0.06490  Biso   1.000  C
  C30      1.0000 0.23950  0.95450  0.94990  Biso   1.000  C
  H13      1.0000 0.31890  0.99630  0.81210  Biso   1.000  H
  H14      1.0000 0.36000  0.81670  0.00150  Biso   1.000  H
  H15      1.0000 0.30110  0.87970  0.06500  Biso   1.000  H
  C31      1.0000 0.23740  0.82030  0.12290  Biso   1.000  C
  C32      1.0000 0.20640  0.97900  0.97400  Biso   1.000  C
  H16      1.0000 0.22390  0.92410  0.91810  Biso   1.000  H
  O7       1.0000 0.32671  0.82048  0.80582  Biso   1.000  O
  O8       1.0000 0.44650  0.97460  0.85520  Biso   1.000  O
  Cl7      1.0000 0.28030  0.86520  0.19500  Biso   1.000  Cl
  Cl8      1.0000 0.14380  0.96980  0.93990  Biso   1.000  Cl
  Co5      1.0000 0.10261  0.43545  0.90179  Biso   1.000  Co
  N17      1.0000 0.17309  0.43194  0.93630  Biso   1.000  N
  N18      1.0000 0.03720  0.37766  0.96160  Biso   1.000  N
  N19      1.0000 0.07980  0.39980  0.80810  Biso   1.000  N
  N20      1.0000 0.12190  0.51850  0.93240  Biso   1.000  N
  C33      1.0000 0.18630  0.42810  0.00340  Biso   1.000  C
  C34      1.0000 0.02310  0.31990  0.97480  Biso   1.000  C
  C35      1.0000 0.03260  0.35190  0.78500  Biso   1.000  C
  C36      1.0000 0.15950  0.55230  0.97470  Biso   1.000  C
  C37      1.0000 0.15620  0.42190  0.06490  Biso   1.000  C
  C38      1.0000 0.04550  0.28500  0.94990  Biso   1.000  C
  H17      1.0000 0.00370  0.32260  0.81210  Biso   1.000  H
  H18      1.0000 0.18330  0.54330  0.00150  Biso   1.000  H
  H19      1.0000 0.12030  0.42140  0.06500  Biso   1.000  H
  C39      1.0000 0.17970  0.41710  0.12290  Biso   1.000  C
  C40      1.0000 0.02100  0.22740  0.97400  Biso   1.000  C
  H20      1.0000 0.07590  0.29980  0.91810  Biso   1.000  H
  O9       1.0000 0.17952  0.50623  0.80582  Biso   1.000  O
  O10      1.0000 0.02540  0.47190  0.85520  Biso   1.000  O
  Cl9      1.0000 0.13480  0.41510  0.19500  Biso   1.000  Cl
  Cl10     1.0000 0.03020  0.17400  0.93990  Biso   1.000  Cl
  Co6      1.0000 0.56455  0.66716  0.90179  Biso   1.000  Co
  N21      1.0000 0.56806  0.74115  0.93630  Biso   1.000  N
  N22      1.0000 0.62234  0.65954  0.96160  Biso   1.000  N
  N23      1.0000 0.60020  0.68000  0.80810  Biso   1.000  N
  N24      1.0000 0.48150  0.60340  0.93240  Biso   1.000  N
  C41      1.0000 0.57190  0.75820  0.00340  Biso   1.000  C
  C42      1.0000 0.68010  0.70320  0.97480  Biso   1.000  C
  C43      1.0000 0.64810  0.68070  0.78500  Biso   1.000  C
  C44      1.0000 0.44770  0.60720  0.97470  Biso   1.000  C
  C45      1.0000 0.57810  0.73430  0.06490  Biso   1.000  C
  C46      1.0000 0.71500  0.76050  0.94990  Biso   1.000  C
  H21      1.0000 0.67740  0.68110  0.81210  Biso   1.000  H
  H22      1.0000 0.45670  0.64000  0.00150  Biso   1.000  H
  H23      1.0000 0.57860  0.69890  0.06500  Biso   1.000  H
  C47      1.0000 0.58290  0.76260  0.12290  Biso   1.000  C
  C48      1.0000 0.77260  0.79360  0.97400  Biso   1.000  C
  H24      1.0000 0.70020  0.77610  0.91810  Biso   1.000  H
  O11      1.0000 0.49377  0.67329  0.80582  Biso   1.000  O
  O12      1.0000 0.52810  0.55350  0.85520  Biso   1.000  O
  Cl11     1.0000 0.58490  0.71970  0.19500  Biso   1.000  Cl
  Cl12     1.0000 0.82600  0.85620  0.93990  Biso   1.000  Cl
  Co7      1.0000 0.10261  0.66716  0.59821  Biso   1.000  Co
  N25      1.0000 0.17309  0.74115  0.56370  Biso   1.000  N
  N26      1.0000 0.03720  0.65954  0.53840  Biso   1.000  N
  N27      1.0000 0.07980  0.68000  0.69190  Biso   1.000  N
  N28      1.0000 0.12190  0.60340  0.56760  Biso   1.000  N
  C49      1.0000 0.18630  0.75820  0.49660  Biso   1.000  C
  C50      1.0000 0.02310  0.70320  0.52520  Biso   1.000  C
  C51      1.0000 0.03260  0.68070  0.71500  Biso   1.000  C
  C52      1.0000 0.15950  0.60720  0.52530  Biso   1.000  C
  C53      1.0000 0.15620  0.73430  0.43510  Biso   1.000  C
  C54      1.0000 0.04550  0.76050  0.55010  Biso   1.000  C
  H25      1.0000 0.00370  0.68110  0.68790  Biso   1.000  H
  H26      1.0000 0.18330  0.64000  0.49850  Biso   1.000  H
  H27      1.0000 0.12030  0.69890  0.43500  Biso   1.000  H
  C55      1.0000 0.17970  0.76260  0.37710  Biso   1.000  C
  C56      1.0000 0.02100  0.79360  0.52600  Biso   1.000  C
  H28      1.0000 0.07590  0.77610  0.58190  Biso   1.000  H
  O13      1.0000 0.17952  0.67329  0.69418  Biso   1.000  O
  O14      1.0000 0.02540  0.55350  0.64480  Biso   1.000  O
  Cl13     1.0000 0.13480  0.71970  0.30500  Biso   1.000  Cl
  Cl14     1.0000 0.03020  0.85620  0.56010  Biso   1.000  Cl
  Co8      1.0000 0.56455  0.89739  0.59821  Biso   1.000  Co
  N29      1.0000 0.56806  0.82691  0.56370  Biso   1.000  N
  N30      1.0000 0.62234  0.96280  0.53840  Biso   1.000  N
  N31      1.0000 0.60020  0.92020  0.69190  Biso   1.000  N
  N32      1.0000 0.48150  0.87810  0.56760  Biso   1.000  N
  C57      1.0000 0.57190  0.81370  0.49660  Biso   1.000  C
  C58      1.0000 0.68010  0.97690  0.52520  Biso   1.000  C
  C59      1.0000 0.64810  0.96740  0.71500  Biso   1.000  C
  C60      1.0000 0.44770  0.84050  0.52530  Biso   1.000  C
  C61      1.0000 0.57810  0.84380  0.43510  Biso   1.000  C
  C62      1.0000 0.71500  0.95450  0.55010  Biso   1.000  C
  H29      1.0000 0.67740  0.99630  0.68790  Biso   1.000  H
  H30      1.0000 0.45670  0.81670  0.49850  Biso   1.000  H
  H31      1.0000 0.57860  0.87970  0.43500  Biso   1.000  H
  C63      1.0000 0.58290  0.82030  0.37710  Biso   1.000  C
  C64      1.0000 0.77260  0.97900  0.52600  Biso   1.000  C
  H32      1.0000 0.70020  0.92410  0.58190  Biso   1.000  H
  O15      1.0000 0.49377  0.82048  0.69418  Biso   1.000  O
  O16      1.0000 0.52810  0.97460  0.64480  Biso   1.000  O
  Cl15     1.0000 0.58490  0.86520  0.30500  Biso   1.000  Cl
  Cl16     1.0000 0.82600  0.96980  0.56010  Biso   1.000  Cl
  Co9      1.0000 0.33284  0.43545  0.59821  Biso   1.000  Co
  N33      1.0000 0.25885  0.43194  0.56370  Biso   1.000  N
  N34      1.0000 0.34046  0.37766  0.53840  Biso   1.000  N
  N35      1.0000 0.32000  0.39980  0.69190  Biso   1.000  N
  N36      1.0000 0.39660  0.51850  0.56760  Biso   1.000  N
  C65      1.0000 0.24180  0.42810  0.49660  Biso   1.000  C
  C66      1.0000 0.29680  0.31990  0.52520  Biso   1.000  C
  C67      1.0000 0.31930  0.35190  0.71500  Biso   1.000  C
  C68      1.0000 0.39280  0.55230  0.52530  Biso   1.000  C
  C69      1.0000 0.26570  0.42190  0.43510  Biso   1.000  C
  C70      1.0000 0.23950  0.28500  0.55010  Biso   1.000  C
  H33      1.0000 0.31890  0.32260  0.68790  Biso   1.000  H
  H34      1.0000 0.36000  0.54330  0.49850  Biso   1.000  H
  H35      1.0000 0.30110  0.42140  0.43500  Biso   1.000  H
  C71      1.0000 0.23740  0.41710  0.37710  Biso   1.000  C
  C72      1.0000 0.20640  0.22740  0.52600  Biso   1.000  C
  H36      1.0000 0.22390  0.29980  0.58190  Biso   1.000  H
  O17      1.0000 0.32671  0.50623  0.69418  Biso   1.000  O
  O18      1.0000 0.44650  0.47190  0.64480  Biso   1.000  O
  Cl17     1.0000 0.28030  0.41510  0.30500  Biso   1.000  Cl
  Cl18     1.0000 0.14380  0.17400  0.56010  Biso   1.000  Cl
  Co10     1.0000 0.89739  0.33284  0.09821  Biso   1.000  Co
  N37      1.0000 0.82691  0.25885  0.06370  Biso   1.000  N
  N38      1.0000 0.96280  0.34046  0.03840  Biso   1.000  N
  N39      1.0000 0.92020  0.32000  0.19190  Biso   1.000  N
  N40      1.0000 0.87810  0.39660  0.06760  Biso   1.000  N
  C73      1.0000 0.81370  0.24180  0.99660  Biso   1.000  C
  C74      1.0000 0.97690  0.29680  0.02520  Biso   1.000  C
  C75      1.0000 0.96740  0.31930  0.21500  Biso   1.000  C
  C76      1.0000 0.84050  0.39280  0.02530  Biso   1.000  C
  C77      1.0000 0.84380  0.26570  0.93510  Biso   1.000  C
  C78      1.0000 0.95450  0.23950  0.05010  Biso   1.000  C
  H37      1.0000 0.99630  0.31890  0.18790  Biso   1.000  H
  H38      1.0000 0.81670  0.36000  0.99850  Biso   1.000  H
  H39      1.0000 0.87970  0.30110  0.93500  Biso   1.000  H
  C79      1.0000 0.82030  0.23740  0.87710  Biso   1.000  C
  C80      1.0000 0.97900  0.20640  0.02600  Biso   1.000  C
  H40      1.0000 0.92410  0.22390  0.08190  Biso   1.000  H
  O19      1.0000 0.82048  0.32671  0.19418  Biso   1.000  O
  O20      1.0000 0.97460  0.44650  0.14480  Biso   1.000  O
  Cl19     1.0000 0.86520  0.28030  0.80500  Biso   1.000  Cl
  Cl20     1.0000 0.96980  0.14380  0.06010  Biso   1.000  Cl
  Co11     1.0000 0.43545  0.10261  0.09821  Biso   1.000  Co
  N41      1.0000 0.43194  0.17309  0.06370  Biso   1.000  N
  N42      1.0000 0.37766  0.03720  0.03840  Biso   1.000  N
  N43      1.0000 0.39980  0.07980  0.19190  Biso   1.000  N
  N44      1.0000 0.51850  0.12190  0.06760  Biso   1.000  N
  C81      1.0000 0.42810  0.18630  0.99660  Biso   1.000  C
  C82      1.0000 0.31990  0.02310  0.02520  Biso   1.000  C
  C83      1.0000 0.35190  0.03260  0.21500  Biso   1.000  C
  C84      1.0000 0.55230  0.15950  0.02530  Biso   1.000  C
  C85      1.0000 0.42190  0.15620  0.93510  Biso   1.000  C
  C86      1.0000 0.28500  0.04550  0.05010  Biso   1.000  C
  H41      1.0000 0.32260  0.00370  0.18790  Biso   1.000  H
  H42      1.0000 0.54330  0.18330  0.99850  Biso   1.000  H
  H43      1.0000 0.42140  0.12030  0.93500  Biso   1.000  H
  C87      1.0000 0.41710  0.17970  0.87710  Biso   1.000  C
  C88      1.0000 0.22740  0.02100  0.02600  Biso   1.000  C
  H44      1.0000 0.29980  0.07590  0.08190  Biso   1.000  H
  O21      1.0000 0.50623  0.17952  0.19418  Biso   1.000  O
  O22      1.0000 0.47190  0.02540  0.14480  Biso   1.000  O
  Cl21     1.0000 0.41510  0.13480  0.80500  Biso   1.000  Cl
  Cl22     1.0000 0.17400  0.03020  0.06010  Biso   1.000  Cl
  Co12     1.0000 0.66716  0.56455  0.09821  Biso   1.000  Co
  N45      1.0000 0.74115  0.56806  0.06370  Biso   1.000  N
  N46      1.0000 0.65954  0.62234  0.03840  Biso   1.000  N
  N47      1.0000 0.68000  0.60020  0.19190  Biso   1.000  N
  N48      1.0000 0.60340  0.48150  0.06760  Biso   1.000  N
  C89      1.0000 0.75820  0.57190  0.99660  Biso   1.000  C
  C90      1.0000 0.70320  0.68010  0.02520  Biso   1.000  C
  C91      1.0000 0.68070  0.64810  0.21500  Biso   1.000  C
  C92      1.0000 0.60720  0.44770  0.02530  Biso   1.000  C
  C93      1.0000 0.73430  0.57810  0.93510  Biso   1.000  C
  C94      1.0000 0.76050  0.71500  0.05010  Biso   1.000  C
  H45      1.0000 0.68110  0.67740  0.18790  Biso   1.000  H
  H46      1.0000 0.64000  0.45670  0.99850  Biso   1.000  H
  H47      1.0000 0.69890  0.57860  0.93500  Biso   1.000  H
  C95      1.0000 0.76260  0.58290  0.87710  Biso   1.000  C
  C96      1.0000 0.79360  0.77260  0.02600  Biso   1.000  C
  H48      1.0000 0.77610  0.70020  0.08190  Biso   1.000  H
  O23      1.0000 0.67329  0.49377  0.19418  Biso   1.000  O
  O24      1.0000 0.55350  0.52810  0.14480  Biso   1.000  O
  Cl23     1.0000 0.71970  0.58490  0.80500  Biso   1.000  Cl
  Cl24     1.0000 0.85620  0.82600  0.06010  Biso   1.000  Cl
  Co13     1.0000 0.33284  0.89739  0.59821  Biso   1.000  Co
  N49      1.0000 0.25885  0.82691  0.56370  Biso   1.000  N
  N50      1.0000 0.34046  0.96280  0.53840  Biso   1.000  N
  N51      1.0000 0.32000  0.92020  0.69190  Biso   1.000  N
  N52      1.0000 0.39660  0.87810  0.56760  Biso   1.000  N
  C97      1.0000 0.24180  0.81370  0.49660  Biso   1.000  C
  C98      1.0000 0.29680  0.97690  0.52520  Biso   1.000  C
  C99      1.0000 0.31930  0.96740  0.71500  Biso   1.000  C
  C100     1.0000 0.39280  0.84050  0.52530  Biso   1.000  C
  C101     1.0000 0.26570  0.84380  0.43510  Biso   1.000  C
  C102     1.0000 0.23950  0.95450  0.55010  Biso   1.000  C
  H49      1.0000 0.31890  0.99630  0.68790  Biso   1.000  H
  H50      1.0000 0.36000  0.81670  0.49850  Biso   1.000  H
  H51      1.0000 0.30110  0.87970  0.43500  Biso   1.000  H
  C103     1.0000 0.23740  0.82030  0.37710  Biso   1.000  C
  C104     1.0000 0.20640  0.97900  0.52600  Biso   1.000  C
  H52      1.0000 0.22390  0.92410  0.58190  Biso   1.000  H
  O25      1.0000 0.32671  0.82048  0.69418  Biso   1.000  O
  O26      1.0000 0.44650  0.97460  0.64480  Biso   1.000  O
  Cl25     1.0000 0.28030  0.86520  0.30500  Biso   1.000  Cl
  Cl26     1.0000 0.14380  0.96980  0.56010  Biso   1.000  Cl
  Co14     1.0000 0.10261  0.43545  0.59821  Biso   1.000  Co
  N53      1.0000 0.17309  0.43194  0.56370  Biso   1.000  N
  N54      1.0000 0.03720  0.37766  0.53840  Biso   1.000  N
  N55      1.0000 0.07980  0.39980  0.69190  Biso   1.000  N
  N56      1.0000 0.12190  0.51850  0.56760  Biso   1.000  N
  C105     1.0000 0.18630  0.42810  0.49660  Biso   1.000  C
  C106     1.0000 0.02310  0.31990  0.52520  Biso   1.000  C
  C107     1.0000 0.03260  0.35190  0.71500  Biso   1.000  C
  C108     1.0000 0.15950  0.55230  0.52530  Biso   1.000  C
  C109     1.0000 0.15620  0.42190  0.43510  Biso   1.000  C
  C110     1.0000 0.04550  0.28500  0.55010  Biso   1.000  C
  H53      1.0000 0.00370  0.32260  0.68790  Biso   1.000  H
  H54      1.0000 0.18330  0.54330  0.49850  Biso   1.000  H
  H55      1.0000 0.12030  0.42140  0.43500  Biso   1.000  H
  C111     1.0000 0.17970  0.41710  0.37710  Biso   1.000  C
  C112     1.0000 0.02100  0.22740  0.52600  Biso   1.000  C
  H56      1.0000 0.07590  0.29980  0.58190  Biso   1.000  H
  O27      1.0000 0.17952  0.50623  0.69418  Biso   1.000  O
  O28      1.0000 0.02540  0.47190  0.64480  Biso   1.000  O
  Cl27     1.0000 0.13480  0.41510  0.30500  Biso   1.000  Cl
  Cl28     1.0000 0.03020  0.17400  0.56010  Biso   1.000  Cl
  Co15     1.0000 0.56455  0.66716  0.59821  Biso   1.000  Co
  N57      1.0000 0.56806  0.74115  0.56370  Biso   1.000  N
  N58      1.0000 0.62234  0.65954  0.53840  Biso   1.000  N
  N59      1.0000 0.60020  0.68000  0.69190  Biso   1.000  N
  N60      1.0000 0.48150  0.60340  0.56760  Biso   1.000  N
  C113     1.0000 0.57190  0.75820  0.49660  Biso   1.000  C
  C114     1.0000 0.68010  0.70320  0.52520  Biso   1.000  C
  C115     1.0000 0.64810  0.68070  0.71500  Biso   1.000  C
  C116     1.0000 0.44770  0.60720  0.52530  Biso   1.000  C
  C117     1.0000 0.57810  0.73430  0.43510  Biso   1.000  C
  C118     1.0000 0.71500  0.76050  0.55010  Biso   1.000  C
  H57      1.0000 0.67740  0.68110  0.68790  Biso   1.000  H
  H58      1.0000 0.45670  0.64000  0.49850  Biso   1.000  H
  H59      1.0000 0.57860  0.69890  0.43500  Biso   1.000  H
  C119     1.0000 0.58290  0.76260  0.37710  Biso   1.000  C
  C120     1.0000 0.77260  0.79360  0.52600  Biso   1.000  C
  H60      1.0000 0.70020  0.77610  0.58190  Biso   1.000  H
  O29      1.0000 0.49377  0.67329  0.69418  Biso   1.000  O
  O30      1.0000 0.52810  0.55350  0.64480  Biso   1.000  O
  Cl29     1.0000 0.58490  0.71970  0.30500  Biso   1.000  Cl
  Cl30     1.0000 0.82600  0.85620  0.56010  Biso   1.000  Cl
  Co16     1.0000 0.66716  0.10261  0.09821  Biso   1.000  Co
  N61      1.0000 0.74115  0.17309  0.06370  Biso   1.000  N
  N62      1.0000 0.65954  0.03720  0.03840  Biso   1.000  N
  N63      1.0000 0.68000  0.07980  0.19190  Biso   1.000  N
  N64      1.0000 0.60340  0.12190  0.06760  Biso   1.000  N
  C121     1.0000 0.75820  0.18630  0.99660  Biso   1.000  C
  C122     1.0000 0.70320  0.02310  0.02520  Biso   1.000  C
  C123     1.0000 0.68070  0.03260  0.21500  Biso   1.000  C
  C124     1.0000 0.60720  0.15950  0.02530  Biso   1.000  C
  C125     1.0000 0.73430  0.15620  0.93510  Biso   1.000  C
  C126     1.0000 0.76050  0.04550  0.05010  Biso   1.000  C
  H61      1.0000 0.68110  0.00370  0.18790  Biso   1.000  H
  H62      1.0000 0.64000  0.18330  0.99850  Biso   1.000  H
  H63      1.0000 0.69890  0.12030  0.93500  Biso   1.000  H
  C127     1.0000 0.76260  0.17970  0.87710  Biso   1.000  C
  C128     1.0000 0.79360  0.02100  0.02600  Biso   1.000  C
  H64      1.0000 0.77610  0.07590  0.08190  Biso   1.000  H
  O31      1.0000 0.67329  0.17952  0.19418  Biso   1.000  O
  O32      1.0000 0.55350  0.02540  0.14480  Biso   1.000  O
  Cl31     1.0000 0.71970  0.13480  0.80500  Biso   1.000  Cl
  Cl32     1.0000 0.85620  0.03020  0.06010  Biso   1.000  Cl
  Co17     1.0000 0.89739  0.56455  0.09821  Biso   1.000  Co
  N65      1.0000 0.82691  0.56806  0.06370  Biso   1.000  N
  N66      1.0000 0.96280  0.62234  0.03840  Biso   1.000  N
  N67      1.0000 0.92020  0.60020  0.19190  Biso   1.000  N
  N68      1.0000 0.87810  0.48150  0.06760  Biso   1.000  N
  C129     1.0000 0.81370  0.57190  0.99660  Biso   1.000  C
  C130     1.0000 0.97690  0.68010  0.02520  Biso   1.000  C
  C131     1.0000 0.96740  0.64810  0.21500  Biso   1.000  C
  C132     1.0000 0.84050  0.44770  0.02530  Biso   1.000  C
  C133     1.0000 0.84380  0.57810  0.93510  Biso   1.000  C
  C134     1.0000 0.95450  0.71500  0.05010  Biso   1.000  C
  H65      1.0000 0.99630  0.67740  0.18790  Biso   1.000  H
  H66      1.0000 0.81670  0.45670  0.99850  Biso   1.000  H
  H67      1.0000 0.87970  0.57860  0.93500  Biso   1.000  H
  C135     1.0000 0.82030  0.58290  0.87710  Biso   1.000  C
  C136     1.0000 0.97900  0.77260  0.02600  Biso   1.000  C
  H68      1.0000 0.92410  0.70020  0.08190  Biso   1.000  H
  O33      1.0000 0.82048  0.49377  0.19418  Biso   1.000  O
  O34      1.0000 0.97460  0.52810  0.14480  Biso   1.000  O
  Cl33     1.0000 0.86520  0.58490  0.80500  Biso   1.000  Cl
  Cl34     1.0000 0.96980  0.82600  0.06010  Biso   1.000  Cl
  Co18     1.0000 0.43545  0.33284  0.09821  Biso   1.000  Co
  N69      1.0000 0.43194  0.25885  0.06370  Biso   1.000  N
  N70      1.0000 0.37766  0.34046  0.03840  Biso   1.000  N
  N71      1.0000 0.39980  0.32000  0.19190  Biso   1.000  N
  N72      1.0000 0.51850  0.39660  0.06760  Biso   1.000  N
  C137     1.0000 0.42810  0.24180  0.99660  Biso   1.000  C
  C138     1.0000 0.31990  0.29680  0.02520  Biso   1.000  C
  C139     1.0000 0.35190  0.31930  0.21500  Biso   1.000  C
  C140     1.0000 0.55230  0.39280  0.02530  Biso   1.000  C
  C141     1.0000 0.42190  0.26570  0.93510  Biso   1.000  C
  C142     1.0000 0.28500  0.23950  0.05010  Biso   1.000  C
  H69      1.0000 0.32260  0.31890  0.18790  Biso   1.000  H
  H70      1.0000 0.54330  0.36000  0.99850  Biso   1.000  H
  H71      1.0000 0.42140  0.30110  0.93500  Biso   1.000  H
  C143     1.0000 0.41710  0.23740  0.87710  Biso   1.000  C
  C144     1.0000 0.22740  0.20640  0.02600  Biso   1.000  C
  H72      1.0000 0.29980  0.22390  0.08190  Biso   1.000  H
  O35      1.0000 0.50623  0.32671  0.19418  Biso   1.000  O
  O36      1.0000 0.47190  0.44650  0.14480  Biso   1.000  O
  Cl35     1.0000 0.41510  0.28030  0.80500  Biso   1.000  Cl
  Cl36     1.0000 0.17400  0.14380  0.06010  Biso   1.000  Cl
  Co19     1.0000 0.89739  0.33284  0.40179  Biso   1.000  Co
  N73      1.0000 0.82691  0.25885  0.43630  Biso   1.000  N
  N74      1.0000 0.96280  0.34046  0.46160  Biso   1.000  N
  N75      1.0000 0.92020  0.32000  0.30810  Biso   1.000  N
  N76      1.0000 0.87810  0.39660  0.43240  Biso   1.000  N
  C145     1.0000 0.81370  0.24180  0.50340  Biso   1.000  C
  C146     1.0000 0.97690  0.29680  0.47480  Biso   1.000  C
  C147     1.0000 0.96740  0.31930  0.28500  Biso   1.000  C
  C148     1.0000 0.84050  0.39280  0.47470  Biso   1.000  C
  C149     1.0000 0.84380  0.26570  0.56490  Biso   1.000  C
  C150     1.0000 0.95450  0.23950  0.44990  Biso   1.000  C
  H73      1.0000 0.99630  0.31890  0.31210  Biso   1.000  H
  H74      1.0000 0.81670  0.36000  0.50150  Biso   1.000  H
  H75      1.0000 0.87970  0.30110  0.56500  Biso   1.000  H
  C151     1.0000 0.82030  0.23740  0.62290  Biso   1.000  C
  C152     1.0000 0.97900  0.20640  0.47400  Biso   1.000  C
  H76      1.0000 0.92410  0.22390  0.41810  Biso   1.000  H
  O37      1.0000 0.82048  0.32671  0.30582  Biso   1.000  O
  O38      1.0000 0.97460  0.44650  0.35520  Biso   1.000  O
  Cl37     1.0000 0.86520  0.28030  0.69500  Biso   1.000  Cl
  Cl38     1.0000 0.96980  0.14380  0.43990  Biso   1.000  Cl
  Co20     1.0000 0.43545  0.10261  0.40179  Biso   1.000  Co
  N77      1.0000 0.43194  0.17309  0.43630  Biso   1.000  N
  N78      1.0000 0.37766  0.03720  0.46160  Biso   1.000  N
  N79      1.0000 0.39980  0.07980  0.30810  Biso   1.000  N
  N80      1.0000 0.51850  0.12190  0.43240  Biso   1.000  N
  C153     1.0000 0.42810  0.18630  0.50340  Biso   1.000  C
  C154     1.0000 0.31990  0.02310  0.47480  Biso   1.000  C
  C155     1.0000 0.35190  0.03260  0.28500  Biso   1.000  C
  C156     1.0000 0.55230  0.15950  0.47470  Biso   1.000  C
  C157     1.0000 0.42190  0.15620  0.56490  Biso   1.000  C
  C158     1.0000 0.28500  0.04550  0.44990  Biso   1.000  C
  H77      1.0000 0.32260  0.00370  0.31210  Biso   1.000  H
  H78      1.0000 0.54330  0.18330  0.50150  Biso   1.000  H
  H79      1.0000 0.42140  0.12030  0.56500  Biso   1.000  H
  C159     1.0000 0.41710  0.17970  0.62290  Biso   1.000  C
  C160     1.0000 0.22740  0.02100  0.47400  Biso   1.000  C
  H80      1.0000 0.29980  0.07590  0.41810  Biso   1.000  H
  O39      1.0000 0.50623  0.17952  0.30582  Biso   1.000  O
  O40      1.0000 0.47190  0.02540  0.35520  Biso   1.000  O
  Cl39     1.0000 0.41510  0.13480  0.69500  Biso   1.000  Cl
  Cl40     1.0000 0.17400  0.03020  0.43990  Biso   1.000  Cl
  Co21     1.0000 0.66716  0.56455  0.40179  Biso   1.000  Co
  N81      1.0000 0.74115  0.56806  0.43630  Biso   1.000  N
  N82      1.0000 0.65954  0.62234  0.46160  Biso   1.000  N
  N83      1.0000 0.68000  0.60020  0.30810  Biso   1.000  N
  N84      1.0000 0.60340  0.48150  0.43240  Biso   1.000  N
  C161     1.0000 0.75820  0.57190  0.50340  Biso   1.000  C
  C162     1.0000 0.70320  0.68010  0.47480  Biso   1.000  C
  C163     1.0000 0.68070  0.64810  0.28500  Biso   1.000  C
  C164     1.0000 0.60720  0.44770  0.47470  Biso   1.000  C
  C165     1.0000 0.73430  0.57810  0.56490  Biso   1.000  C
  C166     1.0000 0.76050  0.71500  0.44990  Biso   1.000  C
  H81      1.0000 0.68110  0.67740  0.31210  Biso   1.000  H
  H82      1.0000 0.64000  0.45670  0.50150  Biso   1.000  H
  H83      1.0000 0.69890  0.57860  0.56500  Biso   1.000  H
  C167     1.0000 0.76260  0.58290  0.62290  Biso   1.000  C
  C168     1.0000 0.79360  0.77260  0.47400  Biso   1.000  C
  H84      1.0000 0.77610  0.70020  0.41810  Biso   1.000  H
  O41      1.0000 0.67329  0.49377  0.30582  Biso   1.000  O
  O42      1.0000 0.55350  0.52810  0.35520  Biso   1.000  O
  Cl41     1.0000 0.71970  0.58490  0.69500  Biso   1.000  Cl
  Cl42     1.0000 0.85620  0.82600  0.43990  Biso   1.000  Cl
  Co22     1.0000 0.10261  0.66716  0.90179  Biso   1.000  Co
  N85      1.0000 0.17309  0.74115  0.93630  Biso   1.000  N
  N86      1.0000 0.03720  0.65954  0.96160  Biso   1.000  N
  N87      1.0000 0.07980  0.68000  0.80810  Biso   1.000  N
  N88      1.0000 0.12190  0.60340  0.93240  Biso   1.000  N
  C169     1.0000 0.18630  0.75820  0.00340  Biso   1.000  C
  C170     1.0000 0.02310  0.70320  0.97480  Biso   1.000  C
  C171     1.0000 0.03260  0.68070  0.78500  Biso   1.000  C
  C172     1.0000 0.15950  0.60720  0.97470  Biso   1.000  C
  C173     1.0000 0.15620  0.73430  0.06490  Biso   1.000  C
  C174     1.0000 0.04550  0.76050  0.94990  Biso   1.000  C
  H85      1.0000 0.00370  0.68110  0.81210  Biso   1.000  H
  H86      1.0000 0.18330  0.64000  0.00150  Biso   1.000  H
  H87      1.0000 0.12030  0.69890  0.06500  Biso   1.000  H
  C175     1.0000 0.17970  0.76260  0.12290  Biso   1.000  C
  C176     1.0000 0.02100  0.79360  0.97400  Biso   1.000  C
  H88      1.0000 0.07590  0.77610  0.91810  Biso   1.000  H
  O43      1.0000 0.17952  0.67329  0.80582  Biso   1.000  O
  O44      1.0000 0.02540  0.55350  0.85520  Biso   1.000  O
  Cl43     1.0000 0.13480  0.71970  0.19500  Biso   1.000  Cl
  Cl44     1.0000 0.03020  0.85620  0.93990  Biso   1.000  Cl
  Co23     1.0000 0.56455  0.89739  0.90179  Biso   1.000  Co
  N89      1.0000 0.56806  0.82691  0.93630  Biso   1.000  N
  N90      1.0000 0.62234  0.96280  0.96160  Biso   1.000  N
  N91      1.0000 0.60020  0.92020  0.80810  Biso   1.000  N
  N92      1.0000 0.48150  0.87810  0.93240  Biso   1.000  N
  C177     1.0000 0.57190  0.81370  0.00340  Biso   1.000  C
  C178     1.0000 0.68010  0.97690  0.97480  Biso   1.000  C
  C179     1.0000 0.64810  0.96740  0.78500  Biso   1.000  C
  C180     1.0000 0.44770  0.84050  0.97470  Biso   1.000  C
  C181     1.0000 0.57810  0.84380  0.06490  Biso   1.000  C
  C182     1.0000 0.71500  0.95450  0.94990  Biso   1.000  C
  H89      1.0000 0.67740  0.99630  0.81210  Biso   1.000  H
  H90      1.0000 0.45670  0.81670  0.00150  Biso   1.000  H
  H91      1.0000 0.57860  0.87970  0.06500  Biso   1.000  H
  C183     1.0000 0.58290  0.82030  0.12290  Biso   1.000  C
  C184     1.0000 0.77260  0.97900  0.97400  Biso   1.000  C
  H92      1.0000 0.70020  0.92410  0.91810  Biso   1.000  H
  O45      1.0000 0.49377  0.82048  0.80582  Biso   1.000  O
  O46      1.0000 0.52810  0.97460  0.85520  Biso   1.000  O
  Cl45     1.0000 0.58490  0.86520  0.19500  Biso   1.000  Cl
  Cl46     1.0000 0.82600  0.96980  0.93990  Biso   1.000  Cl
  Co24     1.0000 0.33284  0.43545  0.90179  Biso   1.000  Co
  N93      1.0000 0.25885  0.43194  0.93630  Biso   1.000  N
  N94      1.0000 0.34046  0.37766  0.96160  Biso   1.000  N
  N95      1.0000 0.32000  0.39980  0.80810  Biso   1.000  N
  N96      1.0000 0.39660  0.51850  0.93240  Biso   1.000  N
  C185     1.0000 0.24180  0.42810  0.00340  Biso   1.000  C
  C186     1.0000 0.29680  0.31990  0.97480  Biso   1.000  C
  C187     1.0000 0.31930  0.35190  0.78500  Biso   1.000  C
  C188     1.0000 0.39280  0.55230  0.97470  Biso   1.000  C
  C189     1.0000 0.26570  0.42190  0.06490  Biso   1.000  C
  C190     1.0000 0.23950  0.28500  0.94990  Biso   1.000  C
  H93      1.0000 0.31890  0.32260  0.81210  Biso   1.000  H
  H94      1.0000 0.36000  0.54330  0.00150  Biso   1.000  H
  H95      1.0000 0.30110  0.42140  0.06500  Biso   1.000  H
  C191     1.0000 0.23740  0.41710  0.12290  Biso   1.000  C
  C192     1.0000 0.20640  0.22740  0.97400  Biso   1.000  C
  H96      1.0000 0.22390  0.29980  0.91810  Biso   1.000  H
  O47      1.0000 0.32671  0.50623  0.80582  Biso   1.000  O
  O48      1.0000 0.44650  0.47190  0.85520  Biso   1.000  O
  Cl47     1.0000 0.28030  0.41510  0.19500  Biso   1.000  Cl
  Cl48     1.0000 0.14380  0.17400  0.93990  Biso   1.000  Cl
  C193     1.0000 0.78285  0.21715  0.40100  Biso   1.000  C
  H97      1.0000 0.78130  0.21870  0.35380  Biso   1.000  H
  C194     1.0000 0.78285  0.56570  0.40100  Biso   1.000  C
  H98      1.0000 0.78130  0.56260  0.35380  Biso   1.000  H
  C195     1.0000 0.43430  0.21715  0.40100  Biso   1.000  C
  H99      1.0000 0.43740  0.21870  0.35380  Biso   1.000  H
  C196     1.0000 0.21715  0.78285  0.90100  Biso   1.000  C
  H100     1.0000 0.21870  0.78130  0.85380  Biso   1.000  H
  C197     1.0000 0.21715  0.43430  0.90100  Biso   1.000  C
  H101     1.0000 0.21870  0.43740  0.85380  Biso   1.000  H
  C198     1.0000 0.56570  0.78285  0.90100  Biso   1.000  C
  H102     1.0000 0.56260  0.78130  0.85380  Biso   1.000  H
  C199     1.0000 0.21715  0.78285  0.59900  Biso   1.000  C
  H103     1.0000 0.21870  0.78130  0.64620  Biso   1.000  H
  C200     1.0000 0.56570  0.78285  0.59900  Biso   1.000  C
  H104     1.0000 0.56260  0.78130  0.64620  Biso   1.000  H
  C201     1.0000 0.21715  0.43430  0.59900  Biso   1.000  C
  H105     1.0000 0.21870  0.43740  0.64620  Biso   1.000  H
  C202     1.0000 0.78285  0.21715  0.09900  Biso   1.000  C
  H106     1.0000 0.78130  0.21870  0.14620  Biso   1.000  H
  C203     1.0000 0.43430  0.21715  0.09900  Biso   1.000  C
  H107     1.0000 0.43740  0.21870  0.14620  Biso   1.000  H
  C204     1.0000 0.78285  0.56570  0.09900  Biso   1.000  C
  H108     1.0000 0.78130  0.56260  0.14620  Biso   1.000  H
  C205     1.0000 0.61370  0.00000  0.50000  Biso   1.000  C
  H109     1.0000 0.57810  0.00000  0.50000  Biso   1.000  H
  C206     1.0000 0.00000  0.61370  0.50000  Biso   1.000  C
  H110     1.0000 0.00000  0.57810  0.50000  Biso   1.000  H
  C207     1.0000 0.38630  0.38630  0.50000  Biso   1.000  C
  H111     1.0000 0.42190  0.42190  0.50000  Biso   1.000  H
  C208     1.0000 0.38630  0.00000  0.00000  Biso   1.000  C
  H112     1.0000 0.42190  0.00000  0.00000  Biso   1.000  H
  C209     1.0000 0.00000  0.38630  0.00000  Biso   1.000  C
  H113     1.0000 0.00000  0.42190  0.00000  Biso   1.000  H
  C210     1.0000 0.61370  0.61370  0.00000  Biso   1.000  C
  H114     1.0000 0.57810  0.57810  0.00000  Biso   1.000  H
  C211     1.0000 0.38630  0.00000  0.50000  Biso   1.000  C
  H115     1.0000 0.42190  0.00000  0.50000  Biso   1.000  H
  C212     1.0000 0.00000  0.38630  0.50000  Biso   1.000  C
  H116     1.0000 0.00000  0.42190  0.50000  Biso   1.000  H
  C213     1.0000 0.61370  0.61370  0.50000  Biso   1.000  C
  H117     1.0000 0.57810  0.57810  0.50000  Biso   1.000  H
  C214     1.0000 0.61370  0.00000  0.00000  Biso   1.000  C
  H118     1.0000 0.57810  0.00000  0.00000  Biso   1.000  H
  C215     1.0000 0.00000  0.61370  0.00000  Biso   1.000  C
  H119     1.0000 0.00000  0.57810  0.00000  Biso   1.000  H
  C216     1.0000 0.38630  0.38630  0.00000  Biso   1.000  C
  H120     1.0000 0.42190  0.42190  0.00000  Biso   1.000  H
  C217     1.0000 0.67740  0.10630  0.25000  Biso   1.000  C
  N97      1.0000 0.67620  0.15920  0.25000  Biso   1.000  N
  C218     1.0000 0.89370  0.57110  0.25000  Biso   1.000  C
  N98      1.0000 0.84080  0.51700  0.25000  Biso   1.000  N
  C219     1.0000 0.42890  0.32260  0.25000  Biso   1.000  C
  N99      1.0000 0.48300  0.32380  0.25000  Biso   1.000  N
  C220     1.0000 0.32260  0.89370  0.75000  Biso   1.000  C
  N100     1.0000 0.32380  0.84080  0.75000  Biso   1.000  N
  C221     1.0000 0.10630  0.42890  0.75000  Biso   1.000  C
  N101     1.0000 0.15920  0.48300  0.75000  Biso   1.000  N
  C222     1.0000 0.57110  0.67740  0.75000  Biso   1.000  C
  N102     1.0000 0.51700  0.67620  0.75000  Biso   1.000  N
  C223     1.0000 0.10630  0.67740  0.75000  Biso   1.000  C
  N103     1.0000 0.15920  0.67620  0.75000  Biso   1.000  N
  C224     1.0000 0.57110  0.89370  0.75000  Biso   1.000  C
  N104     1.0000 0.51700  0.84080  0.75000  Biso   1.000  N
  C225     1.0000 0.32260  0.42890  0.75000  Biso   1.000  C
  N105     1.0000 0.32380  0.48300  0.75000  Biso   1.000  N
  C226     1.0000 0.89370  0.32260  0.25000  Biso   1.000  C
  N106     1.0000 0.84080  0.32380  0.25000  Biso   1.000  N
  C227     1.0000 0.42890  0.10630  0.25000  Biso   1.000  C
  N107     1.0000 0.48300  0.15920  0.25000  Biso   1.000  N
  C228     1.0000 0.67740  0.57110  0.25000  Biso   1.000  C
  N108     1.0000 0.67620  0.51700  0.25000  Biso   1.000  N
  C229     1.0000 0.54805  0.09610  0.41100  Biso   1.000  C
  N109     1.0000 0.52165  0.04330  0.37420  Biso   1.000  N
  C230     1.0000 0.90390  0.45195  0.41100  Biso   1.000  C
  N110     1.0000 0.95670  0.47835  0.37420  Biso   1.000  N
  C231     1.0000 0.54805  0.45195  0.41100  Biso   1.000  C
  N111     1.0000 0.52165  0.47835  0.37420  Biso   1.000  N
  C232     1.0000 0.45195  0.90390  0.91100  Biso   1.000  C
  N112     1.0000 0.47835  0.95670  0.87420  Biso   1.000  N
  C233     1.0000 0.09610  0.54805  0.91100  Biso   1.000  C
  N113     1.0000 0.04330  0.52165  0.87420  Biso   1.000  N
  C234     1.0000 0.45195  0.54805  0.91100  Biso   1.000  C
  N114     1.0000 0.47835  0.52165  0.87420  Biso   1.000  N
  C235     1.0000 0.09610  0.54805  0.58900  Biso   1.000  C
  N115     1.0000 0.04330  0.52165  0.62580  Biso   1.000  N
  C236     1.0000 0.45195  0.90390  0.58900  Biso   1.000  C
  N116     1.0000 0.47835  0.95670  0.62580  Biso   1.000  N
  C237     1.0000 0.45195  0.54805  0.58900  Biso   1.000  C
  N117     1.0000 0.47835  0.52165  0.62580  Biso   1.000  N
  C238     1.0000 0.90390  0.45195  0.08900  Biso   1.000  C
  N118     1.0000 0.95670  0.47835  0.12580  Biso   1.000  N
  C239     1.0000 0.54805  0.09610  0.08900  Biso   1.000  C
  N119     1.0000 0.52165  0.04330  0.12580  Biso   1.000  N
  C240     1.0000 0.54805  0.45195  0.08900  Biso   1.000  C
  N120     1.0000 0.52165  0.47835  0.12580  Biso   1.000  N
