data_image0
_cell_length_a       11.477
_cell_length_b       11.477
_cell_length_c       22.585
_cell_angle_alpha    90
_cell_angle_beta     90
_cell_angle_gamma    120

_symmetry_space_group_name_H-M    P 1
_symmetry_int_tables_number       1

loop_
  _symmetry_equiv_pos_as_xyz
  'x, y, z'

loop_
  _atom_site_label
  _atom_site_occupancy
  _atom_site_fract_x
  _atom_site_fract_y
  _atom_site_fract_z
  _atom_site_thermal_displace_type
  _atom_site_B_iso_or_equiv
  _atom_site_type_symbol
  Cd1      1.0000 0.53010  0.76505  0.91667  Biso   1.000  Cd
  Cd2      1.0000 0.23495  0.46990  0.58333  Biso   1.000  Cd
  Cd3      1.0000 0.23495  0.76505  0.25000  Biso   1.000  Cd
  Cd4      1.0000 0.46990  0.23495  0.41667  Biso   1.000  Cd
  Cd5      1.0000 0.76505  0.53010  0.08333  Biso   1.000  Cd
  Cd6      1.0000 0.76505  0.23495  0.75000  Biso   1.000  Cd
  B1       1.0000 0.64770  0.64770  0.00000  Biso   1.000  B
  B2       1.0000 0.00000  0.35230  0.66667  Biso   1.000  B
  B3       1.0000 0.35230  0.00000  0.33333  Biso   1.000  B
  B4       1.0000 0.35230  0.35230  0.50000  Biso   1.000  B
  B5       1.0000 0.00000  0.64770  0.16667  Biso   1.000  B
  B6       1.0000 0.64770  0.00000  0.83333  Biso   1.000  B
  H1       1.0000 0.85780  0.81460  0.89000  Biso   1.000  H
  H2       1.0000 0.82400  0.65890  0.92010  Biso   1.000  H
  H3       1.0000 0.90070  0.80540  0.96410  Biso   1.000  H
  H4       1.0000 0.33370  0.58230  0.03510  Biso   1.000  H
  H5       1.0000 0.46550  0.62610  0.08620  Biso   1.000  H
  H6       1.0000 0.39670  0.47230  0.04740  Biso   1.000  H
  H7       1.0000 0.95680  0.14220  0.55667  Biso   1.000  H
  H8       1.0000 0.83490  0.17600  0.58677  Biso   1.000  H
  H9       1.0000 0.90470  0.09930  0.63077  Biso   1.000  H
  H10      1.0000 0.24860  0.66630  0.70177  Biso   1.000  H
  H11      1.0000 0.16060  0.53450  0.75287  Biso   1.000  H
  H12      1.0000 0.07560  0.60330  0.71407  Biso   1.000  H
  H13      1.0000 0.18540  0.04320  0.22333  Biso   1.000  H
  H14      1.0000 0.34110  0.16510  0.25343  Biso   1.000  H
  H15      1.0000 0.19460  0.09530  0.29743  Biso   1.000  H
  H16      1.0000 0.41770  0.75140  0.36843  Biso   1.000  H
  H17      1.0000 0.37390  0.83940  0.41953  Biso   1.000  H
  H18      1.0000 0.52770  0.92440  0.38073  Biso   1.000  H
  H19      1.0000 0.14220  0.18540  0.39000  Biso   1.000  H
  H20      1.0000 0.17600  0.34110  0.42010  Biso   1.000  H
  H21      1.0000 0.09930  0.19460  0.46410  Biso   1.000  H
  H22      1.0000 0.66630  0.41770  0.53510  Biso   1.000  H
  H23      1.0000 0.53450  0.37390  0.58620  Biso   1.000  H
  H24      1.0000 0.60330  0.52770  0.54740  Biso   1.000  H
  H25      1.0000 0.04320  0.85780  0.05667  Biso   1.000  H
  H26      1.0000 0.16510  0.82400  0.08677  Biso   1.000  H
  H27      1.0000 0.09530  0.90070  0.13077  Biso   1.000  H
  H28      1.0000 0.75140  0.33370  0.20177  Biso   1.000  H
  H29      1.0000 0.83940  0.46550  0.25287  Biso   1.000  H
  H30      1.0000 0.92440  0.39670  0.21407  Biso   1.000  H
  H31      1.0000 0.81460  0.95680  0.72333  Biso   1.000  H
  H32      1.0000 0.65890  0.83490  0.75343  Biso   1.000  H
  H33      1.0000 0.80540  0.90470  0.79743  Biso   1.000  H
  H34      1.0000 0.58230  0.24860  0.86843  Biso   1.000  H
  H35      1.0000 0.62610  0.16060  0.91953  Biso   1.000  H
  H36      1.0000 0.47230  0.07560  0.88073  Biso   1.000  H
  H37      1.0000 0.04320  0.18540  0.77667  Biso   1.000  H
  H38      1.0000 0.16510  0.34110  0.74657  Biso   1.000  H
  H39      1.0000 0.09530  0.19460  0.70257  Biso   1.000  H
  H40      1.0000 0.75140  0.41770  0.63157  Biso   1.000  H
  H41      1.0000 0.83940  0.37390  0.58047  Biso   1.000  H
  H42      1.0000 0.92440  0.52770  0.61927  Biso   1.000  H
  H43      1.0000 0.81460  0.85780  0.11000  Biso   1.000  H
  H44      1.0000 0.65890  0.82400  0.07990  Biso   1.000  H
  H45      1.0000 0.80540  0.90070  0.03590  Biso   1.000  H
  H46      1.0000 0.58230  0.33370  0.96490  Biso   1.000  H
  H47      1.0000 0.62610  0.46550  0.91380  Biso   1.000  H
  H48      1.0000 0.47230  0.39670  0.95260  Biso   1.000  H
  H49      1.0000 0.14220  0.95680  0.44333  Biso   1.000  H
  H50      1.0000 0.17600  0.83490  0.41323  Biso   1.000  H
  H51      1.0000 0.09930  0.90470  0.36923  Biso   1.000  H
  H52      1.0000 0.66630  0.24860  0.29823  Biso   1.000  H
  H53      1.0000 0.53450  0.16060  0.24713  Biso   1.000  H
  H54      1.0000 0.60330  0.07560  0.28593  Biso   1.000  H
  H55      1.0000 0.95680  0.81460  0.27667  Biso   1.000  H
  H56      1.0000 0.83490  0.65890  0.24657  Biso   1.000  H
  H57      1.0000 0.90470  0.80540  0.20257  Biso   1.000  H
  H58      1.0000 0.24860  0.58230  0.13157  Biso   1.000  H
  H59      1.0000 0.16060  0.62610  0.08047  Biso   1.000  H
  H60      1.0000 0.07560  0.47230  0.11927  Biso   1.000  H
  H61      1.0000 0.18540  0.14220  0.61000  Biso   1.000  H
  H62      1.0000 0.34110  0.17600  0.57990  Biso   1.000  H
  H63      1.0000 0.19460  0.09930  0.53590  Biso   1.000  H
  H64      1.0000 0.41770  0.66630  0.46490  Biso   1.000  H
  H65      1.0000 0.37390  0.53450  0.41380  Biso   1.000  H
  H66      1.0000 0.52770  0.60330  0.45260  Biso   1.000  H
  H67      1.0000 0.85780  0.04320  0.94333  Biso   1.000  H
  H68      1.0000 0.82400  0.16510  0.91323  Biso   1.000  H
  H69      1.0000 0.90070  0.09530  0.86923  Biso   1.000  H
  H70      1.0000 0.33370  0.75140  0.79823  Biso   1.000  H
  H71      1.0000 0.46550  0.83940  0.74713  Biso   1.000  H
  H72      1.0000 0.39670  0.92440  0.78593  Biso   1.000  H
  C1       1.0000 0.96190  0.51220  0.96820  Biso   1.000  C
  C2       1.0000 0.82820  0.75330  0.92950  Biso   1.000  C
  C3       1.0000 0.42290  0.57650  0.04460  Biso   1.000  C
  C4       1.0000 0.55030  0.03810  0.63487  Biso   1.000  C
  C5       1.0000 0.92510  0.17180  0.59617  Biso   1.000  C
  C6       1.0000 0.15360  0.57710  0.71127  Biso   1.000  C
  C7       1.0000 0.48780  0.44970  0.30153  Biso   1.000  C
  C8       1.0000 0.24670  0.07490  0.26283  Biso   1.000  C
  C9       1.0000 0.42350  0.84640  0.37793  Biso   1.000  C
  C10      1.0000 0.03810  0.48780  0.46820  Biso   1.000  C
  C11      1.0000 0.17180  0.24670  0.42950  Biso   1.000  C
  C12      1.0000 0.57710  0.42350  0.54460  Biso   1.000  C
  C13      1.0000 0.44970  0.96190  0.13487  Biso   1.000  C
  C14      1.0000 0.07490  0.82820  0.09617  Biso   1.000  C
  C15      1.0000 0.84640  0.42290  0.21127  Biso   1.000  C
  C16      1.0000 0.51220  0.55030  0.80153  Biso   1.000  C
  C17      1.0000 0.75330  0.92510  0.76283  Biso   1.000  C
  C18      1.0000 0.57650  0.15360  0.87793  Biso   1.000  C
  C19      1.0000 0.44970  0.48780  0.69847  Biso   1.000  C
  C20      1.0000 0.07490  0.24670  0.73717  Biso   1.000  C
  C21      1.0000 0.84640  0.42350  0.62207  Biso   1.000  C
  C22      1.0000 0.51220  0.96190  0.03180  Biso   1.000  C
  C23      1.0000 0.75330  0.82820  0.07050  Biso   1.000  C
  C24      1.0000 0.57650  0.42290  0.95540  Biso   1.000  C
  C25      1.0000 0.03810  0.55030  0.36513  Biso   1.000  C
  C26      1.0000 0.17180  0.92510  0.40383  Biso   1.000  C
  C27      1.0000 0.57710  0.15360  0.28873  Biso   1.000  C
  C28      1.0000 0.55030  0.51220  0.19847  Biso   1.000  C
  C29      1.0000 0.92510  0.75330  0.23717  Biso   1.000  C
  C30      1.0000 0.15360  0.57650  0.12207  Biso   1.000  C
  C31      1.0000 0.48780  0.03810  0.53180  Biso   1.000  C
  C32      1.0000 0.24670  0.17180  0.57050  Biso   1.000  C
  C33      1.0000 0.42350  0.57710  0.45540  Biso   1.000  C
  C34      1.0000 0.96190  0.44970  0.86513  Biso   1.000  C
  C35      1.0000 0.82820  0.07490  0.90383  Biso   1.000  C
  C36      1.0000 0.42290  0.84640  0.78873  Biso   1.000  C
  C37      1.0000 0.03350  0.51675  0.91667  Biso   1.000  C
  C38      1.0000 0.17490  0.58745  0.91667  Biso   1.000  C
  C39      1.0000 0.48325  0.96650  0.58333  Biso   1.000  C
  C40      1.0000 0.41255  0.82510  0.58333  Biso   1.000  C
  C41      1.0000 0.48325  0.51675  0.25000  Biso   1.000  C
  C42      1.0000 0.41255  0.58745  0.25000  Biso   1.000  C
  C43      1.0000 0.96650  0.48325  0.41667  Biso   1.000  C
  C44      1.0000 0.82510  0.41255  0.41667  Biso   1.000  C
  C45      1.0000 0.51675  0.03350  0.08333  Biso   1.000  C
  C46      1.0000 0.58745  0.17490  0.08333  Biso   1.000  C
  C47      1.0000 0.51675  0.48325  0.75000  Biso   1.000  C
  C48      1.0000 0.58745  0.41255  0.75000  Biso   1.000  C
  N1       1.0000 0.90110  0.50870  0.00840  Biso   1.000  N
  N2       1.0000 0.60760  0.09890  0.67507  Biso   1.000  N
  N3       1.0000 0.49130  0.39240  0.34173  Biso   1.000  N
  N4       1.0000 0.09890  0.49130  0.50840  Biso   1.000  N
  N5       1.0000 0.39240  0.90110  0.17507  Biso   1.000  N
  N6       1.0000 0.50870  0.60760  0.84173  Biso   1.000  N
  N7       1.0000 0.39240  0.49130  0.65827  Biso   1.000  N
  N8       1.0000 0.50870  0.90110  0.99160  Biso   1.000  N
  N9       1.0000 0.09890  0.60760  0.32493  Biso   1.000  N
  N10      1.0000 0.60760  0.50870  0.15827  Biso   1.000  N
  N11      1.0000 0.49130  0.09890  0.49160  Biso   1.000  N
  N12      1.0000 0.90110  0.39240  0.82493  Biso   1.000  N
  N13      1.0000 0.28860  0.64430  0.91667  Biso   1.000  N
  N14      1.0000 0.35570  0.71140  0.58333  Biso   1.000  N
  N15      1.0000 0.35570  0.64430  0.25000  Biso   1.000  N
  N16      1.0000 0.71140  0.35570  0.41667  Biso   1.000  N
  N17      1.0000 0.64430  0.28860  0.08333  Biso   1.000  N
  N18      1.0000 0.64430  0.35570  0.75000  Biso   1.000  N
  O1       1.0000 0.70620  0.72930  0.94710  Biso   1.000  O
  O2       1.0000 0.51830  0.64050  0.99870  Biso   1.000  O
  O3       1.0000 0.02310  0.29380  0.61377  Biso   1.000  O
  O4       1.0000 0.12220  0.48170  0.66537  Biso   1.000  O
  O5       1.0000 0.27070  0.97690  0.28043  Biso   1.000  O
  O6       1.0000 0.35950  0.87780  0.33203  Biso   1.000  O
  O7       1.0000 0.29380  0.27070  0.44710  Biso   1.000  O
  O8       1.0000 0.48170  0.35950  0.49870  Biso   1.000  O
  O9       1.0000 0.97690  0.70620  0.11377  Biso   1.000  O
  O10      1.0000 0.87780  0.51830  0.16537  Biso   1.000  O
  O11      1.0000 0.72930  0.02310  0.78043  Biso   1.000  O
  O12      1.0000 0.64050  0.12220  0.83203  Biso   1.000  O
  O13      1.0000 0.97690  0.27070  0.71957  Biso   1.000  O
  O14      1.0000 0.87780  0.35950  0.66797  Biso   1.000  O
  O15      1.0000 0.72930  0.70620  0.05290  Biso   1.000  O
  O16      1.0000 0.64050  0.51830  0.00130  Biso   1.000  O
  O17      1.0000 0.29380  0.02310  0.38623  Biso   1.000  O
  O18      1.0000 0.48170  0.12220  0.33463  Biso   1.000  O
  O19      1.0000 0.02310  0.72930  0.21957  Biso   1.000  O
  O20      1.0000 0.12220  0.64050  0.16797  Biso   1.000  O
  O21      1.0000 0.27070  0.29380  0.55290  Biso   1.000  O
  O22      1.0000 0.35950  0.48170  0.50130  Biso   1.000  O
  O23      1.0000 0.70620  0.97690  0.88623  Biso   1.000  O
  O24      1.0000 0.51830  0.87780  0.83463  Biso   1.000  O
