data_image0
_cell_length_a       8.708
_cell_length_b       11.663
_cell_length_c       27.218
_cell_angle_alpha    101.485
_cell_angle_beta     90
_cell_angle_gamma    90

_symmetry_space_group_name_H-M    P 1
_symmetry_int_tables_number       1

loop_
  _symmetry_equiv_pos_as_xyz
  'x, y, z'

loop_
  _atom_site_label
  _atom_site_occupancy
  _atom_site_fract_x
  _atom_site_fract_y
  _atom_site_fract_z
  _atom_site_thermal_displace_type
  _atom_site_B_iso_or_equiv
  _atom_site_type_symbol
  Mn1      1.0000 0.36613  0.74615  0.80333  Biso   1.000  Mn
  Mn2      1.0000 0.86613  0.75385  0.69667  Biso   1.000  Mn
  Mn3      1.0000 0.63387  0.25385  0.19667  Biso   1.000  Mn
  Mn4      1.0000 0.13387  0.24615  0.30333  Biso   1.000  Mn
  H1       1.0000 0.11370  0.75530  0.84800  Biso   1.000  H
  H2       1.0000 0.04480  0.75890  0.80330  Biso   1.000  H
  H3       1.0000 0.95150  0.88840  0.88750  Biso   1.000  H
  H4       1.0000 0.74900  0.76820  0.87770  Biso   1.000  H
  H5       1.0000 0.64400  0.87390  0.87270  Biso   1.000  H
  H6       1.0000 0.86340  0.11260  0.99370  Biso   1.000  H
  H7       1.0000 0.43350  0.19020  0.04140  Biso   1.000  H
  H8       1.0000 0.34590  0.14950  0.95990  Biso   1.000  H
  H9       1.0000 0.52060  0.09130  0.89420  Biso   1.000  H
  H10      1.0000 0.53660  0.94050  0.75450  Biso   1.000  H
  H11      1.0000 0.54170  0.13460  0.75300  Biso   1.000  H
  H12      1.0000 0.18850  0.17900  0.84840  Biso   1.000  H
  H13      1.0000 0.19110  0.98120  0.84520  Biso   1.000  H
  H14      1.0000 0.46010  0.30630  0.73350  Biso   1.000  H
  H15      1.0000 0.46210  0.50360  0.73860  Biso   1.000  H
  H16      1.0000 0.28340  0.55820  0.87060  Biso   1.000  H
  H17      1.0000 0.27250  0.36310  0.86980  Biso   1.000  H
  H18      1.0000 0.61370  0.74470  0.65200  Biso   1.000  H
  H19      1.0000 0.54480  0.74110  0.69670  Biso   1.000  H
  H20      1.0000 0.45150  0.61160  0.61250  Biso   1.000  H
  H21      1.0000 0.24900  0.73180  0.62230  Biso   1.000  H
  H22      1.0000 0.14400  0.62610  0.62730  Biso   1.000  H
  H23      1.0000 0.36340  0.38740  0.50630  Biso   1.000  H
  H24      1.0000 0.93350  0.30980  0.45860  Biso   1.000  H
  H25      1.0000 0.84590  0.35050  0.54010  Biso   1.000  H
  H26      1.0000 0.02060  0.40870  0.60580  Biso   1.000  H
  H27      1.0000 0.03660  0.55950  0.74550  Biso   1.000  H
  H28      1.0000 0.04170  0.36540  0.74700  Biso   1.000  H
  H29      1.0000 0.68850  0.32100  0.65160  Biso   1.000  H
  H30      1.0000 0.69110  0.51880  0.65480  Biso   1.000  H
  H31      1.0000 0.96010  0.19370  0.76650  Biso   1.000  H
  H32      1.0000 0.96210  0.99640  0.76140  Biso   1.000  H
  H33      1.0000 0.78340  0.94180  0.62940  Biso   1.000  H
  H34      1.0000 0.77250  0.13690  0.63020  Biso   1.000  H
  H35      1.0000 0.88630  0.24470  0.15200  Biso   1.000  H
  H36      1.0000 0.95520  0.24110  0.19670  Biso   1.000  H
  H37      1.0000 0.04850  0.11160  0.11250  Biso   1.000  H
  H38      1.0000 0.25100  0.23180  0.12230  Biso   1.000  H
  H39      1.0000 0.35600  0.12610  0.12730  Biso   1.000  H
  H40      1.0000 0.13660  0.88740  0.00630  Biso   1.000  H
  H41      1.0000 0.56650  0.80980  0.95860  Biso   1.000  H
  H42      1.0000 0.65410  0.85050  0.04010  Biso   1.000  H
  H43      1.0000 0.47940  0.90870  0.10580  Biso   1.000  H
  H44      1.0000 0.46340  0.05950  0.24550  Biso   1.000  H
  H45      1.0000 0.45830  0.86540  0.24700  Biso   1.000  H
  H46      1.0000 0.81150  0.82100  0.15160  Biso   1.000  H
  H47      1.0000 0.80890  0.01880  0.15480  Biso   1.000  H
  H48      1.0000 0.53990  0.69370  0.26650  Biso   1.000  H
  H49      1.0000 0.53790  0.49640  0.26140  Biso   1.000  H
  H50      1.0000 0.71660  0.44180  0.12940  Biso   1.000  H
  H51      1.0000 0.72750  0.63690  0.13020  Biso   1.000  H
  H52      1.0000 0.38630  0.25530  0.34800  Biso   1.000  H
  H53      1.0000 0.45520  0.25890  0.30330  Biso   1.000  H
  H54      1.0000 0.54850  0.38840  0.38750  Biso   1.000  H
  H55      1.0000 0.75100  0.26820  0.37770  Biso   1.000  H
  H56      1.0000 0.85600  0.37390  0.37270  Biso   1.000  H
  H57      1.0000 0.63660  0.61260  0.49370  Biso   1.000  H
  H58      1.0000 0.06650  0.69020  0.54140  Biso   1.000  H
  H59      1.0000 0.15410  0.64950  0.45990  Biso   1.000  H
  H60      1.0000 0.97940  0.59130  0.39420  Biso   1.000  H
  H61      1.0000 0.96340  0.44050  0.25450  Biso   1.000  H
  H62      1.0000 0.95830  0.63460  0.25300  Biso   1.000  H
  H63      1.0000 0.31150  0.67900  0.34840  Biso   1.000  H
  H64      1.0000 0.30890  0.48120  0.34520  Biso   1.000  H
  H65      1.0000 0.03990  0.80630  0.23350  Biso   1.000  H
  H66      1.0000 0.03790  0.00360  0.23860  Biso   1.000  H
  H67      1.0000 0.21660  0.05820  0.37060  Biso   1.000  H
  H68      1.0000 0.22750  0.86310  0.36980  Biso   1.000  H
  C1       1.0000 0.73250  0.79110  0.80532  Biso   1.000  C
  C2       1.0000 0.74050  0.83550  0.86190  Biso   1.000  C
  C3       1.0000 0.70690  0.09670  0.93810  Biso   1.000  C
  C4       1.0000 0.75960  0.12050  0.98710  Biso   1.000  C
  C5       1.0000 0.65730  0.15620  0.02610  Biso   1.000  C
  C6       1.0000 0.50260  0.16660  0.01530  Biso   1.000  C
  C7       1.0000 0.44990  0.14250  0.96670  Biso   1.000  C
  C8       1.0000 0.55440  0.10730  0.92720  Biso   1.000  C
  C9       1.0000 0.71450  0.18590  0.07950  Biso   1.000  C
  C10      1.0000 0.46470  0.98930  0.77350  Biso   1.000  C
  C11      1.0000 0.46900  0.10590  0.77240  Biso   1.000  C
  C12      1.0000 0.36460  0.18090  0.80050  Biso   1.000  C
  C13      1.0000 0.26030  0.13210  0.82850  Biso   1.000  C
  C14      1.0000 0.26370  0.01290  0.82660  Biso   1.000  C
  C15      1.0000 0.36810  0.30880  0.80210  Biso   1.000  C
  C16      1.0000 0.42380  0.35550  0.76230  Biso   1.000  C
  C17      1.0000 0.42480  0.47500  0.76580  Biso   1.000  C
  C18      1.0000 0.32050  0.50660  0.84260  Biso   1.000  C
  C19      1.0000 0.31390  0.38890  0.84240  Biso   1.000  C
  C20      1.0000 0.23250  0.70890  0.69468  Biso   1.000  C
  C21      1.0000 0.24050  0.66450  0.63810  Biso   1.000  C
  C22      1.0000 0.20690  0.40330  0.56190  Biso   1.000  C
  C23      1.0000 0.25960  0.37950  0.51290  Biso   1.000  C
  C24      1.0000 0.15730  0.34380  0.47390  Biso   1.000  C
  C25      1.0000 0.00260  0.33340  0.48470  Biso   1.000  C
  C26      1.0000 0.94990  0.35750  0.53330  Biso   1.000  C
  C27      1.0000 0.05440  0.39270  0.57280  Biso   1.000  C
  C28      1.0000 0.21450  0.31410  0.42050  Biso   1.000  C
  C29      1.0000 0.96470  0.51070  0.72650  Biso   1.000  C
  C30      1.0000 0.96900  0.39410  0.72760  Biso   1.000  C
  C31      1.0000 0.86460  0.31910  0.69950  Biso   1.000  C
  C32      1.0000 0.76030  0.36790  0.67150  Biso   1.000  C
  C33      1.0000 0.76370  0.48710  0.67340  Biso   1.000  C
  C34      1.0000 0.86810  0.19120  0.69790  Biso   1.000  C
  C35      1.0000 0.92380  0.14450  0.73770  Biso   1.000  C
  C36      1.0000 0.92480  0.02500  0.73420  Biso   1.000  C
  C37      1.0000 0.82050  0.99340  0.65740  Biso   1.000  C
  C38      1.0000 0.81390  0.11110  0.65760  Biso   1.000  C
  C39      1.0000 0.26750  0.20890  0.19468  Biso   1.000  C
  C40      1.0000 0.25950  0.16450  0.13810  Biso   1.000  C
  C41      1.0000 0.29310  0.90330  0.06190  Biso   1.000  C
  C42      1.0000 0.24040  0.87950  0.01290  Biso   1.000  C
  C43      1.0000 0.34270  0.84380  0.97390  Biso   1.000  C
  C44      1.0000 0.49740  0.83340  0.98470  Biso   1.000  C
  C45      1.0000 0.55010  0.85750  0.03330  Biso   1.000  C
  C46      1.0000 0.44560  0.89270  0.07280  Biso   1.000  C
  C47      1.0000 0.28550  0.81410  0.92050  Biso   1.000  C
  C48      1.0000 0.53530  0.01070  0.22650  Biso   1.000  C
  C49      1.0000 0.53100  0.89410  0.22760  Biso   1.000  C
  C50      1.0000 0.63540  0.81910  0.19950  Biso   1.000  C
  C51      1.0000 0.73970  0.86790  0.17150  Biso   1.000  C
  C52      1.0000 0.73630  0.98710  0.17340  Biso   1.000  C
  C53      1.0000 0.63190  0.69120  0.19790  Biso   1.000  C
  C54      1.0000 0.57620  0.64450  0.23770  Biso   1.000  C
  C55      1.0000 0.57520  0.52500  0.23420  Biso   1.000  C
  C56      1.0000 0.67950  0.49340  0.15740  Biso   1.000  C
  C57      1.0000 0.68610  0.61110  0.15760  Biso   1.000  C
  C58      1.0000 0.76750  0.29110  0.30532  Biso   1.000  C
  C59      1.0000 0.75950  0.33550  0.36190  Biso   1.000  C
  C60      1.0000 0.79310  0.59670  0.43810  Biso   1.000  C
  C61      1.0000 0.74040  0.62050  0.48710  Biso   1.000  C
  C62      1.0000 0.84270  0.65620  0.52610  Biso   1.000  C
  C63      1.0000 0.99740  0.66660  0.51530  Biso   1.000  C
  C64      1.0000 0.05010  0.64250  0.46670  Biso   1.000  C
  C65      1.0000 0.94560  0.60730  0.42720  Biso   1.000  C
  C66      1.0000 0.78550  0.68590  0.57950  Biso   1.000  C
  C67      1.0000 0.03530  0.48930  0.27350  Biso   1.000  C
  C68      1.0000 0.03100  0.60590  0.27240  Biso   1.000  C
  C69      1.0000 0.13540  0.68090  0.30050  Biso   1.000  C
  C70      1.0000 0.23970  0.63210  0.32850  Biso   1.000  C
  C71      1.0000 0.23630  0.51290  0.32660  Biso   1.000  C
  C72      1.0000 0.13190  0.80880  0.30210  Biso   1.000  C
  C73      1.0000 0.07620  0.85550  0.26230  Biso   1.000  C
  C74      1.0000 0.07520  0.97500  0.26580  Biso   1.000  C
  C75      1.0000 0.17950  0.00660  0.34260  Biso   1.000  C
  C76      1.0000 0.18610  0.88890  0.34240  Biso   1.000  C
  S1       1.0000 0.83990  0.05436  0.88841  Biso   1.000  S
  S2       1.0000 0.33990  0.44564  0.61159  Biso   1.000  S
  S3       1.0000 0.16010  0.94564  0.11159  Biso   1.000  S
  S4       1.0000 0.66010  0.55436  0.38841  Biso   1.000  S
  N1       1.0000 0.86410  0.91560  0.88054  Biso   1.000  N
  N2       1.0000 0.36380  0.94140  0.80006  Biso   1.000  N
  N3       1.0000 0.37690  0.55130  0.80497  Biso   1.000  N
  N4       1.0000 0.36410  0.58440  0.61946  Biso   1.000  N
  N5       1.0000 0.86380  0.55860  0.69994  Biso   1.000  N
  N6       1.0000 0.87690  0.94870  0.69503  Biso   1.000  N
  N7       1.0000 0.13590  0.08440  0.11946  Biso   1.000  N
  N8       1.0000 0.63620  0.05860  0.19994  Biso   1.000  N
  N9       1.0000 0.62310  0.44870  0.19503  Biso   1.000  N
  N10      1.0000 0.63590  0.41560  0.38054  Biso   1.000  N
  N11      1.0000 0.13620  0.44140  0.30006  Biso   1.000  N
  N12      1.0000 0.12310  0.05130  0.30497  Biso   1.000  N
  O1       1.0000 0.60910  0.74360  0.78907  Biso   1.000  O
  O2       1.0000 0.84690  0.80110  0.77880  Biso   1.000  O
  O3       1.0000 0.76900  0.07770  0.84410  Biso   1.000  O
  O4       1.0000 0.98450  0.10630  0.90502  Biso   1.000  O
  O5       1.0000 0.85830  0.19180  0.08516  Biso   1.000  O
  O6       1.0000 0.61850  0.20810  0.11403  Biso   1.000  O
  O7       1.0000 0.12150  0.73520  0.81678  Biso   1.000  O
  O8       1.0000 0.10910  0.75640  0.71093  Biso   1.000  O
  O9       1.0000 0.34690  0.69890  0.72120  Biso   1.000  O
  O10      1.0000 0.26900  0.42230  0.65590  Biso   1.000  O
  O11      1.0000 0.48450  0.39370  0.59498  Biso   1.000  O
  O12      1.0000 0.35830  0.30820  0.41484  Biso   1.000  O
  O13      1.0000 0.11850  0.29190  0.38597  Biso   1.000  O
  O14      1.0000 0.62150  0.76480  0.68322  Biso   1.000  O
  O15      1.0000 0.39090  0.25640  0.21093  Biso   1.000  O
  O16      1.0000 0.15310  0.19890  0.22120  Biso   1.000  O
  O17      1.0000 0.23100  0.92230  0.15590  Biso   1.000  O
  O18      1.0000 0.01550  0.89370  0.09498  Biso   1.000  O
  O19      1.0000 0.14170  0.80820  0.91484  Biso   1.000  O
  O20      1.0000 0.38150  0.79190  0.88597  Biso   1.000  O
  O21      1.0000 0.87850  0.26480  0.18322  Biso   1.000  O
  O22      1.0000 0.89090  0.24360  0.28907  Biso   1.000  O
  O23      1.0000 0.65310  0.30110  0.27880  Biso   1.000  O
  O24      1.0000 0.73100  0.57770  0.34410  Biso   1.000  O
  O25      1.0000 0.51550  0.60630  0.40502  Biso   1.000  O
  O26      1.0000 0.64170  0.69180  0.58516  Biso   1.000  O
  O27      1.0000 0.88150  0.70810  0.61403  Biso   1.000  O
  O28      1.0000 0.37850  0.23520  0.31678  Biso   1.000  O
