data_image0
_cell_length_a       8.67151
_cell_length_b       13.3403
_cell_length_c       27.4412
_cell_angle_alpha    93.8742
_cell_angle_beta     90
_cell_angle_gamma    108.966

_symmetry_space_group_name_H-M    P 1
_symmetry_int_tables_number       1

loop_
  _symmetry_equiv_pos_as_xyz
  'x, y, z'

loop_
  _atom_site_label
  _atom_site_occupancy
  _atom_site_fract_x
  _atom_site_fract_y
  _atom_site_fract_z
  _atom_site_thermal_displace_type
  _atom_site_B_iso_or_equiv
  _atom_site_type_symbol
  Mn1      1.0000 0.87750  0.54192  0.20252  Biso   1.000  Mn
  Mn2      1.0000 0.33558  0.45808  0.29748  Biso   1.000  Mn
  Mn3      1.0000 0.12250  0.45808  0.79748  Biso   1.000  Mn
  Mn4      1.0000 0.66442  0.54192  0.70252  Biso   1.000  Mn
  H1       1.0000 0.63610  0.58300  0.16290  Biso   1.000  H
  H2       1.0000 0.55990  0.53700  0.20330  Biso   1.000  H
  H3       1.0000 0.44720  0.48980  0.11400  Biso   1.000  H
  H4       1.0000 0.30730  0.59880  0.13800  Biso   1.000  H
  H5       1.0000 0.14480  0.50560  0.12600  Biso   1.000  H
  H6       1.0000 0.91950  0.33340  0.08010  Biso   1.000  H
  H7       1.0000 0.75880  0.34540  0.01460  Biso   1.000  H
  H8       1.0000 0.87120  0.38080  0.93900  Biso   1.000  H
  H9       1.0000 0.30810  0.39140  0.99280  Biso   1.000  H
  H10      1.0000 0.92030  0.32080  0.22930  Biso   1.000  H
  H11      1.0000 0.80500  0.14060  0.21810  Biso   1.000  H
  H12      1.0000 0.50010  0.18280  0.11930  Biso   1.000  H
  H13      1.0000 0.61630  0.36280  0.13620  Biso   1.000  H
  H14      1.0000 0.73800  0.97900  0.19070  Biso   1.000  H
  H15      1.0000 0.61880  0.80120  0.17410  Biso   1.000  H
  H16      1.0000 0.25820  0.84080  0.10190  Biso   1.000  H
  H17      1.0000 0.36770  0.02280  0.11740  Biso   1.000  H
  H18      1.0000 0.02530  0.71680  0.28860  Biso   1.000  H
  H19      1.0000 0.10380  0.89480  0.31010  Biso   1.000  H
  H20      1.0000 0.03220  0.94360  0.17370  Biso   1.000  H
  H21      1.0000 0.94480  0.76360  0.15750  Biso   1.000  H
  H22      1.0000 0.05310  0.41700  0.33710  Biso   1.000  H
  H23      1.0000 0.02290  0.46300  0.29670  Biso   1.000  H
  H24      1.0000 0.95740  0.51020  0.38600  Biso   1.000  H
  H25      1.0000 0.70850  0.40120  0.36200  Biso   1.000  H
  H26      1.0000 0.63920  0.49440  0.37400  Biso   1.000  H
  H27      1.0000 0.58610  0.66660  0.41990  Biso   1.000  H
  H28      1.0000 0.41340  0.65460  0.48540  Biso   1.000  H
  H29      1.0000 0.49040  0.61920  0.56100  Biso   1.000  H
  H30      1.0000 0.91670  0.60860  0.50720  Biso   1.000  H
  H31      1.0000 0.59950  0.67920  0.27070  Biso   1.000  H
  H32      1.0000 0.66440  0.85940  0.28190  Biso   1.000  H
  H33      1.0000 0.31730  0.81720  0.38070  Biso   1.000  H
  H34      1.0000 0.25350  0.63720  0.36380  Biso   1.000  H
  H35      1.0000 0.75900  0.02100  0.30930  Biso   1.000  H
  H36      1.0000 0.81760  0.19880  0.32590  Biso   1.000  H
  H37      1.0000 0.41740  0.15920  0.39810  Biso   1.000  H
  H38      1.0000 0.34490  0.97720  0.38260  Biso   1.000  H
  H39      1.0000 0.30850  0.28320  0.21140  Biso   1.000  H
  H40      1.0000 0.20900  0.10520  0.18990  Biso   1.000  H
  H41      1.0000 0.08860  0.05640  0.32630  Biso   1.000  H
  H42      1.0000 0.18120  0.23640  0.34250  Biso   1.000  H
  H43      1.0000 0.36390  0.41700  0.83710  Biso   1.000  H
  H44      1.0000 0.44010  0.46300  0.79670  Biso   1.000  H
  H45      1.0000 0.55280  0.51020  0.88600  Biso   1.000  H
  H46      1.0000 0.69270  0.40120  0.86200  Biso   1.000  H
  H47      1.0000 0.85520  0.49440  0.87400  Biso   1.000  H
  H48      1.0000 0.08050  0.66660  0.91990  Biso   1.000  H
  H49      1.0000 0.24120  0.65460  0.98540  Biso   1.000  H
  H50      1.0000 0.12880  0.61920  0.06100  Biso   1.000  H
  H51      1.0000 0.69190  0.60860  0.00720  Biso   1.000  H
  H52      1.0000 0.07970  0.67920  0.77070  Biso   1.000  H
  H53      1.0000 0.19500  0.85940  0.78190  Biso   1.000  H
  H54      1.0000 0.49990  0.81720  0.88070  Biso   1.000  H
  H55      1.0000 0.38370  0.63720  0.86380  Biso   1.000  H
  H56      1.0000 0.26200  0.02100  0.80930  Biso   1.000  H
  H57      1.0000 0.38120  0.19880  0.82590  Biso   1.000  H
  H58      1.0000 0.74180  0.15920  0.89810  Biso   1.000  H
  H59      1.0000 0.63230  0.97720  0.88260  Biso   1.000  H
  H60      1.0000 0.97470  0.28320  0.71140  Biso   1.000  H
  H61      1.0000 0.89620  0.10520  0.68990  Biso   1.000  H
  H62      1.0000 0.96780  0.05640  0.82630  Biso   1.000  H
  H63      1.0000 0.05520  0.23640  0.84250  Biso   1.000  H
  H64      1.0000 0.94690  0.58300  0.66290  Biso   1.000  H
  H65      1.0000 0.97710  0.53700  0.70330  Biso   1.000  H
  H66      1.0000 0.04260  0.48980  0.61400  Biso   1.000  H
  H67      1.0000 0.29150  0.59880  0.63800  Biso   1.000  H
  H68      1.0000 0.36080  0.50560  0.62600  Biso   1.000  H
  H69      1.0000 0.41390  0.33340  0.58010  Biso   1.000  H
  H70      1.0000 0.58660  0.34540  0.51460  Biso   1.000  H
  H71      1.0000 0.50960  0.38080  0.43900  Biso   1.000  H
  H72      1.0000 0.08330  0.39140  0.49280  Biso   1.000  H
  H73      1.0000 0.40050  0.32080  0.72930  Biso   1.000  H
  H74      1.0000 0.33560  0.14060  0.71810  Biso   1.000  H
  H75      1.0000 0.68270  0.18280  0.61930  Biso   1.000  H
  H76      1.0000 0.74650  0.36280  0.63620  Biso   1.000  H
  H77      1.0000 0.24100  0.97900  0.69070  Biso   1.000  H
  H78      1.0000 0.18240  0.80120  0.67410  Biso   1.000  H
  H79      1.0000 0.58260  0.84080  0.60190  Biso   1.000  H
  H80      1.0000 0.65510  0.02280  0.61740  Biso   1.000  H
  H81      1.0000 0.69150  0.71680  0.78860  Biso   1.000  H
  H82      1.0000 0.79100  0.89480  0.81010  Biso   1.000  H
  H83      1.0000 0.91140  0.94360  0.67370  Biso   1.000  H
  H84      1.0000 0.81880  0.76360  0.65750  Biso   1.000  H
  C1       1.0000 0.22854  0.50728  0.19614  Biso   1.000  C
  C2       1.0000 0.25154  0.52388  0.14165  Biso   1.000  C
  C3       1.0000 0.12716  0.35912  0.04224  Biso   1.000  C
  C4       1.0000 0.96429  0.34678  0.04944  Biso   1.000  C
  C5       1.0000 0.86886  0.35452  0.01032  Biso   1.000  C
  C6       1.0000 0.93629  0.37578  0.96500  Biso   1.000  C
  C7       1.0000 0.10117  0.38974  0.95791  Biso   1.000  C
  C8       1.0000 0.19788  0.38176  0.99690  Biso   1.000  C
  C9       1.0000 0.17639  0.41438  0.90895  Biso   1.000  C
  C10      1.0000 0.83050  0.29300  0.20810  Biso   1.000  C
  C11      1.0000 0.76360  0.18400  0.20060  Biso   1.000  C
  C12      1.0000 0.63650  0.13880  0.16770  Biso   1.000  C
  C13      1.0000 0.58320  0.20860  0.14290  Biso   1.000  C
  C14      1.0000 0.65446  0.31752  0.15340  Biso   1.000  C
  C15      1.0000 0.56640  0.02180  0.15770  Biso   1.000  C
  C16      1.0000 0.63990  0.95340  0.17300  Biso   1.000  C
  C17      1.0000 0.56790  0.84580  0.16190  Biso   1.000  C
  C18      1.0000 0.35580  0.86940  0.11970  Biso   1.000  C
  C19      1.0000 0.42000  0.97840  0.12930  Biso   1.000  C
  C20      1.0000 0.02680  0.76280  0.26440  Biso   1.000  C
  C21      1.0000 0.07740  0.87100  0.27760  Biso   1.000  C
  C22      1.0000 0.08852  0.94204  0.24378  Biso   1.000  C
  C23      1.0000 0.03450  0.89980  0.19840  Biso   1.000  C
  C24      1.0000 0.98240  0.79040  0.18910  Biso   1.000  C
  C25      1.0000 0.72126  0.49272  0.30386  Biso   1.000  C
  C26      1.0000 0.72766  0.47612  0.35835  Biso   1.000  C
  C27      1.0000 0.76804  0.64088  0.45776  Biso   1.000  C
  C28      1.0000 0.61751  0.65322  0.45056  Biso   1.000  C
  C29      1.0000 0.51434  0.64548  0.48968  Biso   1.000  C
  C30      1.0000 0.56051  0.62422  0.53500  Biso   1.000  C
  C31      1.0000 0.71143  0.61026  0.54209  Biso   1.000  C
  C32      1.0000 0.81612  0.61824  0.50310  Biso   1.000  C
  C33      1.0000 0.76201  0.58562  0.59105  Biso   1.000  C
  C34      1.0000 0.53750  0.70700  0.29190  Biso   1.000  C
  C35      1.0000 0.57960  0.81600  0.29940  Biso   1.000  C
  C36      1.0000 0.49770  0.86120  0.33230  Biso   1.000  C
  C37      1.0000 0.37460  0.79140  0.35710  Biso   1.000  C
  C38      1.0000 0.33694  0.68248  0.34660  Biso   1.000  C
  C39      1.0000 0.54460  0.97820  0.34230  Biso   1.000  C
  C40      1.0000 0.68650  0.04660  0.32700  Biso   1.000  C
  C41      1.0000 0.72210  0.15420  0.33810  Biso   1.000  C
  C42      1.0000 0.48640  0.13060  0.38030  Biso   1.000  C
  C43      1.0000 0.44160  0.02160  0.37070  Biso   1.000  C
  C44      1.0000 0.26400  0.23720  0.23560  Biso   1.000  C
  C45      1.0000 0.20640  0.12900  0.22240  Biso   1.000  C
  C46      1.0000 0.14648  0.05796  0.25622  Biso   1.000  C
  C47      1.0000 0.13470  0.10020  0.30160  Biso   1.000  C
  C48      1.0000 0.19200  0.20960  0.31090  Biso   1.000  C
  C49      1.0000 0.77146  0.49272  0.80386  Biso   1.000  C
  C50      1.0000 0.74846  0.47612  0.85835  Biso   1.000  C
  C51      1.0000 0.87284  0.64088  0.95776  Biso   1.000  C
  C52      1.0000 0.03571  0.65322  0.95056  Biso   1.000  C
  C53      1.0000 0.13114  0.64548  0.98968  Biso   1.000  C
  C54      1.0000 0.06371  0.62422  0.03500  Biso   1.000  C
  C55      1.0000 0.89883  0.61026  0.04209  Biso   1.000  C
  C56      1.0000 0.80212  0.61824  0.00310  Biso   1.000  C
  C57      1.0000 0.82361  0.58562  0.09105  Biso   1.000  C
  C58      1.0000 0.16950  0.70700  0.79190  Biso   1.000  C
  C59      1.0000 0.23640  0.81600  0.79940  Biso   1.000  C
  C60      1.0000 0.36350  0.86120  0.83230  Biso   1.000  C
  C61      1.0000 0.41680  0.79140  0.85710  Biso   1.000  C
  C62      1.0000 0.34554  0.68248  0.84660  Biso   1.000  C
  C63      1.0000 0.43360  0.97820  0.84230  Biso   1.000  C
  C64      1.0000 0.36010  0.04660  0.82700  Biso   1.000  C
  C65      1.0000 0.43210  0.15420  0.83810  Biso   1.000  C
  C66      1.0000 0.64420  0.13060  0.88030  Biso   1.000  C
  C67      1.0000 0.58000  0.02160  0.87070  Biso   1.000  C
  C68      1.0000 0.97320  0.23720  0.73560  Biso   1.000  C
  C69      1.0000 0.92260  0.12900  0.72240  Biso   1.000  C
  C70      1.0000 0.91148  0.05796  0.75622  Biso   1.000  C
  C71      1.0000 0.96550  0.10020  0.80160  Biso   1.000  C
  C72      1.0000 0.01760  0.20960  0.81090  Biso   1.000  C
  C73      1.0000 0.27874  0.50728  0.69614  Biso   1.000  C
  C74      1.0000 0.27234  0.52388  0.64165  Biso   1.000  C
  C75      1.0000 0.23196  0.35912  0.54224  Biso   1.000  C
  C76      1.0000 0.38249  0.34678  0.54944  Biso   1.000  C
  C77      1.0000 0.48566  0.35452  0.51032  Biso   1.000  C
  C78      1.0000 0.43949  0.37578  0.46500  Biso   1.000  C
  C79      1.0000 0.28857  0.38974  0.45791  Biso   1.000  C
  C80      1.0000 0.18388  0.38176  0.49690  Biso   1.000  C
  C81      1.0000 0.23799  0.41438  0.40895  Biso   1.000  C
  C82      1.0000 0.46250  0.29300  0.70810  Biso   1.000  C
  C83      1.0000 0.42040  0.18400  0.70060  Biso   1.000  C
  C84      1.0000 0.50230  0.13880  0.66770  Biso   1.000  C
  C85      1.0000 0.62540  0.20860  0.64290  Biso   1.000  C
  C86      1.0000 0.66306  0.31752  0.65340  Biso   1.000  C
  C87      1.0000 0.45540  0.02180  0.65770  Biso   1.000  C
  C88      1.0000 0.31350  0.95340  0.67300  Biso   1.000  C
  C89      1.0000 0.27790  0.84580  0.66190  Biso   1.000  C
  C90      1.0000 0.51360  0.86940  0.61970  Biso   1.000  C
  C91      1.0000 0.55840  0.97840  0.62930  Biso   1.000  C
  C92      1.0000 0.73600  0.76280  0.76440  Biso   1.000  C
  C93      1.0000 0.79360  0.87100  0.77760  Biso   1.000  C
  C94      1.0000 0.85352  0.94204  0.74378  Biso   1.000  C
  C95      1.0000 0.86530  0.89980  0.69840  Biso   1.000  C
  C96      1.0000 0.80800  0.79040  0.68910  Biso   1.000  C
  S1       1.0000 0.25143  0.34582  0.09117  Biso   1.000  S
  S2       1.0000 0.90561  0.65418  0.40883  Biso   1.000  S
  S3       1.0000 0.74857  0.65418  0.90883  Biso   1.000  S
  S4       1.0000 0.09439  0.34582  0.59117  Biso   1.000  S
  N1       1.0000 0.34307  0.46274  0.11591  Biso   1.000  N
  N2       1.0000 0.77318  0.36056  0.18639  Biso   1.000  N
  N3       1.0000 0.43500  0.80140  0.13620  Biso   1.000  N
  N4       1.0000 0.98191  0.72222  0.22084  Biso   1.000  N
  N5       1.0000 0.88033  0.53726  0.38409  Biso   1.000  N
  N6       1.0000 0.41262  0.63944  0.31361  Biso   1.000  N
  N7       1.0000 0.63360  0.19860  0.36380  Biso   1.000  N
  N8       1.0000 0.25969  0.27778  0.27916  Biso   1.000  N
  N9       1.0000 0.65693  0.53726  0.88409  Biso   1.000  N
  N10      1.0000 0.22682  0.63944  0.81361  Biso   1.000  N
  N11      1.0000 0.56500  0.19860  0.86380  Biso   1.000  N
  N12      1.0000 0.01809  0.27778  0.77916  Biso   1.000  N
  N13      1.0000 0.11967  0.46274  0.61591  Biso   1.000  N
  N14      1.0000 0.58738  0.36056  0.68639  Biso   1.000  N
  N15      1.0000 0.36640  0.80140  0.63620  Biso   1.000  N
  N16      1.0000 0.74031  0.72222  0.72084  Biso   1.000  N
  O1       1.0000 0.11299  0.52958  0.21527  Biso   1.000  O
  O2       1.0000 0.33081  0.47822  0.21896  Biso   1.000  O
  O3       1.0000 0.14145  0.28750  0.12647  Biso   1.000  O
  O4       1.0000 0.37516  0.30692  0.07062  Biso   1.000  O
  O5       1.0000 0.32055  0.41470  0.90411  Biso   1.000  O
  O6       1.0000 0.09085  0.43250  0.87595  Biso   1.000  O
  O7       1.0000 0.64880  0.57100  0.19158  Biso   1.000  O
  O8       1.0000 0.58341  0.47042  0.28473  Biso   1.000  O
  O9       1.0000 0.85259  0.52178  0.28104  Biso   1.000  O
  O10      1.0000 0.85395  0.71250  0.37353  Biso   1.000  O
  O11      1.0000 0.06824  0.69308  0.42938  Biso   1.000  O
  O12      1.0000 0.90585  0.58530  0.59589  Biso   1.000  O
  O13      1.0000 0.65835  0.56750  0.62405  Biso   1.000  O
  O14      1.0000 0.07780  0.42900  0.30842  Biso   1.000  O
  O15      1.0000 0.88701  0.47042  0.78473  Biso   1.000  O
  O16      1.0000 0.66919  0.52178  0.78104  Biso   1.000  O
  O17      1.0000 0.85855  0.71250  0.87353  Biso   1.000  O
  O18      1.0000 0.62484  0.69308  0.92938  Biso   1.000  O
  O19      1.0000 0.67945  0.58530  0.09589  Biso   1.000  O
  O20      1.0000 0.90915  0.56750  0.12405  Biso   1.000  O
  O21      1.0000 0.35120  0.42900  0.80842  Biso   1.000  O
  O22      1.0000 0.41659  0.52958  0.71527  Biso   1.000  O
  O23      1.0000 0.14741  0.47822  0.71896  Biso   1.000  O
  O24      1.0000 0.14605  0.28750  0.62647  Biso   1.000  O
  O25      1.0000 0.93176  0.30692  0.57062  Biso   1.000  O
  O26      1.0000 0.09415  0.41470  0.40411  Biso   1.000  O
  O27      1.0000 0.34165  0.43250  0.37595  Biso   1.000  O
  O28      1.0000 0.92220  0.57100  0.69158  Biso   1.000  O
