data_image0
_cell_length_a       18.878
_cell_length_b       18.878
_cell_length_c       37.043
_cell_angle_alpha    90
_cell_angle_beta     90
_cell_angle_gamma    90

_symmetry_space_group_name_H-M    "P 1"
_symmetry_int_tables_number       1

loop_
  _symmetry_equiv_pos_as_xyz
  'x, y, z'

loop_
  _atom_site_label
  _atom_site_occupancy
  _atom_site_fract_x
  _atom_site_fract_y
  _atom_site_fract_z
  _atom_site_thermal_displace_type
  _atom_site_B_iso_or_equiv
  _atom_site_type_symbol
  Al1      1.0000 0.86862  0.09558  0.08073  Biso   1.000  Al
  O1       1.0000 0.80240  0.16970  0.08450  Biso   1.000  O
  O2       1.0000 0.06350  0.84050  0.10250  Biso   1.000  O
  O3       1.0000 0.79640  0.03460  0.06117  Biso   1.000  O
  O4       1.0000 0.93250  0.02170  0.07946  Biso   1.000  O
  O5       1.0000 0.89470  0.12770  0.03497  Biso   1.000  O
  O6       1.0000 0.66260  0.56960  0.37273  Biso   1.000  O
  O7       1.0000 0.56570  0.52040  0.34775  Biso   1.000  O
  O8       1.0000 0.79870  0.23280  0.03321  Biso   1.000  O
  O9       1.0000 0.96700  0.90570  0.11604  Biso   1.000  O
  C1       1.0000 0.96170  0.78360  0.12597  Biso   1.000  C
  O10      1.0000 0.76230  0.09670  0.01165  Biso   1.000  O
  C2       1.0000 0.00040  0.84680  0.11393  Biso   1.000  C
  C3       1.0000 0.79230  0.29360  0.08877  Biso   1.000  C
  C4       1.0000 0.62710  0.54470  0.34611  Biso   1.000  C
  C5       1.0000 0.79070  0.35940  0.07198  Biso   1.000  C
  H1       1.0000 0.78800  0.36250  0.04640  Biso   1.000  H
  C6       1.0000 0.66400  0.54550  0.31033  Biso   1.000  C
  C7       1.0000 0.79730  0.22750  0.06715  Biso   1.000  C
  C8       1.0000 0.63190  0.51370  0.28067  Biso   1.000  C
  H2       1.0000 0.58750  0.49060  0.28340  Biso   1.000  H
  C9       1.0000 0.79560  0.28940  0.12630  Biso   1.000  C
  H3       1.0000 0.79680  0.24450  0.13790  Biso   1.000  H
  C10      1.0000 0.79720  0.35120  0.14675  Biso   1.000  C
  H4       1.0000 0.79860  0.34810  0.17230  Biso   1.000  H
  C11      1.0000 0.73020  0.57700  0.30652  Biso   1.000  C
  H5       1.0000 0.75260  0.59750  0.32700  Biso   1.000  H
  C12      1.0000 0.84030  0.54130  0.14170  Biso   1.000  C
  H6       1.0000 0.86450  0.53950  0.11920  Biso   1.000  H
  C13      1.0000 0.79300  0.42080  0.09270  Biso   1.000  C
  H7       1.0000 0.79200  0.46570  0.08120  Biso   1.000  H
  C14      1.0000 0.89450  0.79200  0.14180  Biso   1.000  C
  H8       1.0000 0.87470  0.83800  0.14450  Biso   1.000  H
  C15      1.0000 0.66450  0.51560  0.24700  Biso   1.000  C
  H9       1.0000 0.64120  0.49600  0.22660  Biso   1.000  H
  C16      1.0000 0.85670  0.73200  0.15360  Biso   1.000  C
  H10      1.0000 0.81100  0.73760  0.16390  Biso   1.000  H
  C17      1.0000 0.73260  0.54670  0.24310  Biso   1.000  C
  C18      1.0000 0.84550  0.60150  0.16270  Biso   1.000  C
  C19      1.0000 0.79680  0.41690  0.13048  Biso   1.000  C
  C20      1.0000 0.80000  0.48280  0.15280  Biso   1.000  C
  C21      1.0000 0.99070  0.71550  0.12222  Biso   1.000  C
  H11      1.0000 0.03640  0.70930  0.11200  Biso   1.000  H
  C22      1.0000 0.76400  0.57900  0.27330  Biso   1.000  C
  H12      1.0000 0.80850  0.60210  0.27100  Biso   1.000  H
  C23      1.0000 0.80750  0.60390  0.19580  Biso   1.000  C
  H13      1.0000 0.80860  0.64570  0.21000  Biso   1.000  H
  C24      1.0000 0.76540  0.48620  0.18590  Biso   1.000  C
  H14      1.0000 0.73880  0.44640  0.19380  Biso   1.000  H
  C25      1.0000 0.75540  0.04740  0.03426  Biso   1.000  C
  H15      1.0000 0.71610  0.01660  0.03110  Biso   1.000  H
  C26      1.0000 0.76820  0.54520  0.20770  Biso   1.000  C
  C27      1.0000 0.88610  0.66370  0.15030  Biso   1.000  C
  C28      1.0000 0.95130  0.65740  0.13370  Biso   1.000  C
  H16      1.0000 0.97010  0.61130  0.12990  Biso   1.000  H
  Al2      1.0000 0.13138  0.90442  0.08073  Biso   1.000  Al
  O11      1.0000 0.19760  0.83030  0.08450  Biso   1.000  O
  O12      1.0000 0.93650  0.15950  0.10250  Biso   1.000  O
  O13      1.0000 0.20360  0.96540  0.06117  Biso   1.000  O
  O14      1.0000 0.06750  0.97830  0.07946  Biso   1.000  O
  O15      1.0000 0.10530  0.87230  0.03497  Biso   1.000  O
  O16      1.0000 0.33740  0.43040  0.37273  Biso   1.000  O
  O17      1.0000 0.43430  0.47960  0.34775  Biso   1.000  O
  O18      1.0000 0.20130  0.76720  0.03321  Biso   1.000  O
  O19      1.0000 0.03300  0.09430  0.11604  Biso   1.000  O
  C29      1.0000 0.03830  0.21640  0.12597  Biso   1.000  C
  O20      1.0000 0.23770  0.90330  0.01165  Biso   1.000  O
  C30      1.0000 0.99960  0.15320  0.11393  Biso   1.000  C
  C31      1.0000 0.20770  0.70640  0.08877  Biso   1.000  C
  C32      1.0000 0.37290  0.45530  0.34611  Biso   1.000  C
  C33      1.0000 0.20930  0.64060  0.07198  Biso   1.000  C
  H17      1.0000 0.21200  0.63750  0.04640  Biso   1.000  H
  C34      1.0000 0.33600  0.45450  0.31033  Biso   1.000  C
  C35      1.0000 0.20270  0.77250  0.06715  Biso   1.000  C
  C36      1.0000 0.36810  0.48630  0.28067  Biso   1.000  C
  H18      1.0000 0.41250  0.50940  0.28340  Biso   1.000  H
  C37      1.0000 0.20440  0.71060  0.12630  Biso   1.000  C
  H19      1.0000 0.20320  0.75550  0.13790  Biso   1.000  H
  C38      1.0000 0.20280  0.64880  0.14675  Biso   1.000  C
  H20      1.0000 0.20140  0.65190  0.17230  Biso   1.000  H
  C39      1.0000 0.26980  0.42300  0.30652  Biso   1.000  C
  H21      1.0000 0.24740  0.40250  0.32700  Biso   1.000  H
  C40      1.0000 0.15970  0.45870  0.14170  Biso   1.000  C
  H22      1.0000 0.13550  0.46050  0.11920  Biso   1.000  H
  C41      1.0000 0.20700  0.57920  0.09270  Biso   1.000  C
  H23      1.0000 0.20800  0.53430  0.08120  Biso   1.000  H
  C42      1.0000 0.10550  0.20800  0.14180  Biso   1.000  C
  H24      1.0000 0.12530  0.16200  0.14450  Biso   1.000  H
  C43      1.0000 0.33550  0.48440  0.24700  Biso   1.000  C
  H25      1.0000 0.35880  0.50400  0.22660  Biso   1.000  H
  C44      1.0000 0.14330  0.26800  0.15360  Biso   1.000  C
  H26      1.0000 0.18900  0.26240  0.16390  Biso   1.000  H
  C45      1.0000 0.26740  0.45330  0.24310  Biso   1.000  C
  C46      1.0000 0.15450  0.39850  0.16270  Biso   1.000  C
  C47      1.0000 0.20320  0.58310  0.13048  Biso   1.000  C
  C48      1.0000 0.20000  0.51720  0.15280  Biso   1.000  C
  C49      1.0000 0.00930  0.28450  0.12222  Biso   1.000  C
  H27      1.0000 0.96360  0.29070  0.11200  Biso   1.000  H
  C50      1.0000 0.23600  0.42100  0.27330  Biso   1.000  C
  H28      1.0000 0.19150  0.39790  0.27100  Biso   1.000  H
  C51      1.0000 0.19250  0.39610  0.19580  Biso   1.000  C
  H29      1.0000 0.19140  0.35430  0.21000  Biso   1.000  H
  C52      1.0000 0.23460  0.51380  0.18590  Biso   1.000  C
  H30      1.0000 0.26120  0.55360  0.19380  Biso   1.000  H
  C53      1.0000 0.24460  0.95260  0.03426  Biso   1.000  C
  H31      1.0000 0.28390  0.98340  0.03110  Biso   1.000  H
  C54      1.0000 0.23180  0.45480  0.20770  Biso   1.000  C
  C55      1.0000 0.11390  0.33630  0.15030  Biso   1.000  C
  C56      1.0000 0.04870  0.34260  0.13370  Biso   1.000  C
  H32      1.0000 0.02990  0.38870  0.12990  Biso   1.000  H
  Al3      1.0000 0.40442  0.36862  0.58073  Biso   1.000  Al
  O21      1.0000 0.33030  0.30240  0.58450  Biso   1.000  O
  O22      1.0000 0.65950  0.56350  0.60250  Biso   1.000  O
  O23      1.0000 0.46540  0.29640  0.56117  Biso   1.000  O
  O24      1.0000 0.47830  0.43250  0.57946  Biso   1.000  O
  O25      1.0000 0.37230  0.39470  0.53497  Biso   1.000  O
  O26      1.0000 0.93040  0.16260  0.87273  Biso   1.000  O
  O27      1.0000 0.97960  0.06570  0.84775  Biso   1.000  O
  O28      1.0000 0.26720  0.29870  0.53321  Biso   1.000  O
  O29      1.0000 0.59430  0.46700  0.61604  Biso   1.000  O
  C57      1.0000 0.71640  0.46170  0.62597  Biso   1.000  C
  O30      1.0000 0.40330  0.26230  0.51165  Biso   1.000  O
  C58      1.0000 0.65320  0.50040  0.61393  Biso   1.000  C
  C59      1.0000 0.20640  0.29230  0.58877  Biso   1.000  C
  C60      1.0000 0.95530  0.12710  0.84611  Biso   1.000  C
  C61      1.0000 0.14060  0.29070  0.57198  Biso   1.000  C
  H33      1.0000 0.13750  0.28800  0.54640  Biso   1.000  H
  C62      1.0000 0.95450  0.16400  0.81033  Biso   1.000  C
  C63      1.0000 0.27250  0.29730  0.56715  Biso   1.000  C
  C64      1.0000 0.98630  0.13190  0.78067  Biso   1.000  C
  H34      1.0000 0.00940  0.08750  0.78340  Biso   1.000  H
  C65      1.0000 0.21060  0.29560  0.62630  Biso   1.000  C
  H35      1.0000 0.25550  0.29680  0.63790  Biso   1.000  H
  C66      1.0000 0.14880  0.29720  0.64675  Biso   1.000  C
  H36      1.0000 0.15190  0.29860  0.67230  Biso   1.000  H
  C67      1.0000 0.92300  0.23020  0.80652  Biso   1.000  C
  H37      1.0000 0.90250  0.25260  0.82700  Biso   1.000  H
  C68      1.0000 0.95870  0.34030  0.64170  Biso   1.000  C
  H38      1.0000 0.96050  0.36450  0.61920  Biso   1.000  H
  C69      1.0000 0.07920  0.29300  0.59270  Biso   1.000  C
  H39      1.0000 0.03430  0.29200  0.58120  Biso   1.000  H
  C70      1.0000 0.70800  0.39450  0.64180  Biso   1.000  C
  H40      1.0000 0.66200  0.37470  0.64450  Biso   1.000  H
  C71      1.0000 0.98440  0.16450  0.74700  Biso   1.000  C
  H41      1.0000 0.00400  0.14120  0.72660  Biso   1.000  H
  C72      1.0000 0.76800  0.35670  0.65360  Biso   1.000  C
  H42      1.0000 0.76240  0.31100  0.66390  Biso   1.000  H
  C73      1.0000 0.95330  0.23260  0.74310  Biso   1.000  C
  C74      1.0000 0.89850  0.34550  0.66270  Biso   1.000  C
  C75      1.0000 0.08310  0.29680  0.63048  Biso   1.000  C
  C76      1.0000 0.01720  0.30000  0.65280  Biso   1.000  C
  C77      1.0000 0.78450  0.49070  0.62222  Biso   1.000  C
  H43      1.0000 0.79070  0.53640  0.61200  Biso   1.000  H
  C78      1.0000 0.92100  0.26400  0.77330  Biso   1.000  C
  H44      1.0000 0.89790  0.30850  0.77100  Biso   1.000  H
  C79      1.0000 0.89610  0.30750  0.69580  Biso   1.000  C
  H45      1.0000 0.85430  0.30860  0.71000  Biso   1.000  H
  C80      1.0000 0.01380  0.26540  0.68590  Biso   1.000  C
  H46      1.0000 0.05360  0.23880  0.69380  Biso   1.000  H
  C81      1.0000 0.45260  0.25540  0.53426  Biso   1.000  C
  H47      1.0000 0.48340  0.21610  0.53110  Biso   1.000  H
  C82      1.0000 0.95480  0.26820  0.70770  Biso   1.000  C
  C83      1.0000 0.83630  0.38610  0.65030  Biso   1.000  C
  C84      1.0000 0.84260  0.45130  0.63370  Biso   1.000  C
  H48      1.0000 0.88870  0.47010  0.62990  Biso   1.000  H
  Al4      1.0000 0.59558  0.63138  0.58073  Biso   1.000  Al
  O31      1.0000 0.66970  0.69760  0.58450  Biso   1.000  O
  O32      1.0000 0.34050  0.43650  0.60250  Biso   1.000  O
  O33      1.0000 0.53460  0.70360  0.56117  Biso   1.000  O
  O34      1.0000 0.52170  0.56750  0.57946  Biso   1.000  O
  O35      1.0000 0.62770  0.60530  0.53497  Biso   1.000  O
  O36      1.0000 0.06960  0.83740  0.87273  Biso   1.000  O
  O37      1.0000 0.02040  0.93430  0.84775  Biso   1.000  O
  O38      1.0000 0.73280  0.70130  0.53321  Biso   1.000  O
  O39      1.0000 0.40570  0.53300  0.61604  Biso   1.000  O
  C85      1.0000 0.28360  0.53830  0.62597  Biso   1.000  C
  O40      1.0000 0.59670  0.73770  0.51165  Biso   1.000  O
  C86      1.0000 0.34680  0.49960  0.61393  Biso   1.000  C
  C87      1.0000 0.79360  0.70770  0.58877  Biso   1.000  C
  C88      1.0000 0.04470  0.87290  0.84611  Biso   1.000  C
  C89      1.0000 0.85940  0.70930  0.57198  Biso   1.000  C
  H49      1.0000 0.86250  0.71200  0.54640  Biso   1.000  H
  C90      1.0000 0.04550  0.83600  0.81033  Biso   1.000  C
  C91      1.0000 0.72750  0.70270  0.56715  Biso   1.000  C
  C92      1.0000 0.01370  0.86810  0.78067  Biso   1.000  C
  H50      1.0000 0.99060  0.91250  0.78340  Biso   1.000  H
  C93      1.0000 0.78940  0.70440  0.62630  Biso   1.000  C
  H51      1.0000 0.74450  0.70320  0.63790  Biso   1.000  H
  C94      1.0000 0.85120  0.70280  0.64675  Biso   1.000  C
  H52      1.0000 0.84810  0.70140  0.67230  Biso   1.000  H
  C95      1.0000 0.07700  0.76980  0.80652  Biso   1.000  C
  H53      1.0000 0.09750  0.74740  0.82700  Biso   1.000  H
  C96      1.0000 0.04130  0.65970  0.64170  Biso   1.000  C
  H54      1.0000 0.03950  0.63550  0.61920  Biso   1.000  H
  C97      1.0000 0.92080  0.70700  0.59270  Biso   1.000  C
  H55      1.0000 0.96570  0.70800  0.58120  Biso   1.000  H
  C98      1.0000 0.29200  0.60550  0.64180  Biso   1.000  C
  H56      1.0000 0.33800  0.62530  0.64450  Biso   1.000  H
  C99      1.0000 0.01560  0.83550  0.74700  Biso   1.000  C
  H57      1.0000 0.99600  0.85880  0.72660  Biso   1.000  H
  C100     1.0000 0.23200  0.64330  0.65360  Biso   1.000  C
  H58      1.0000 0.23760  0.68900  0.66390  Biso   1.000  H
  C101     1.0000 0.04670  0.76740  0.74310  Biso   1.000  C
  C102     1.0000 0.10150  0.65450  0.66270  Biso   1.000  C
  C103     1.0000 0.91690  0.70320  0.63048  Biso   1.000  C
  C104     1.0000 0.98280  0.70000  0.65280  Biso   1.000  C
  C105     1.0000 0.21550  0.50930  0.62222  Biso   1.000  C
  H59      1.0000 0.20930  0.46360  0.61200  Biso   1.000  H
  C106     1.0000 0.07900  0.73600  0.77330  Biso   1.000  C
  H60      1.0000 0.10210  0.69150  0.77100  Biso   1.000  H
  C107     1.0000 0.10390  0.69250  0.69580  Biso   1.000  C
  H61      1.0000 0.14570  0.69140  0.71000  Biso   1.000  H
  C108     1.0000 0.98620  0.73460  0.68590  Biso   1.000  C
  H62      1.0000 0.94640  0.76120  0.69380  Biso   1.000  H
  C109     1.0000 0.54740  0.74460  0.53426  Biso   1.000  C
  H63      1.0000 0.51660  0.78390  0.53110  Biso   1.000  H
  C110     1.0000 0.04520  0.73180  0.70770  Biso   1.000  C
  C111     1.0000 0.16370  0.61390  0.65030  Biso   1.000  C
  C112     1.0000 0.15740  0.54870  0.63370  Biso   1.000  C
  H64      1.0000 0.11130  0.52990  0.62990  Biso   1.000  H
  Al5      1.0000 0.63138  0.59558  0.41927  Biso   1.000  Al
  O41      1.0000 0.69760  0.66970  0.41550  Biso   1.000  O
  O42      1.0000 0.43650  0.34050  0.39750  Biso   1.000  O
  O43      1.0000 0.70360  0.53460  0.43883  Biso   1.000  O
  O44      1.0000 0.56750  0.52170  0.42054  Biso   1.000  O
  O45      1.0000 0.60530  0.62770  0.46503  Biso   1.000  O
  O46      1.0000 0.83740  0.06960  0.12727  Biso   1.000  O
  O47      1.0000 0.93430  0.02040  0.15225  Biso   1.000  O
  O48      1.0000 0.70130  0.73280  0.46679  Biso   1.000  O
  O49      1.0000 0.53300  0.40570  0.38396  Biso   1.000  O
  C113     1.0000 0.53830  0.28360  0.37403  Biso   1.000  C
  O50      1.0000 0.73770  0.59670  0.48835  Biso   1.000  O
  C114     1.0000 0.49960  0.34680  0.38607  Biso   1.000  C
  C115     1.0000 0.70770  0.79360  0.41123  Biso   1.000  C
  C116     1.0000 0.87290  0.04470  0.15389  Biso   1.000  C
  C117     1.0000 0.70930  0.85940  0.42802  Biso   1.000  C
  H65      1.0000 0.71200  0.86250  0.45360  Biso   1.000  H
  C118     1.0000 0.83600  0.04550  0.18967  Biso   1.000  C
  C119     1.0000 0.70270  0.72750  0.43285  Biso   1.000  C
  C120     1.0000 0.86810  0.01370  0.21933  Biso   1.000  C
  H66      1.0000 0.91250  0.99060  0.21660  Biso   1.000  H
  C121     1.0000 0.70440  0.78940  0.37370  Biso   1.000  C
  H67      1.0000 0.70320  0.74450  0.36210  Biso   1.000  H
  C122     1.0000 0.70280  0.85120  0.35325  Biso   1.000  C
  H68      1.0000 0.70140  0.84810  0.32770  Biso   1.000  H
  C123     1.0000 0.76980  0.07700  0.19348  Biso   1.000  C
  H69      1.0000 0.74740  0.09750  0.17300  Biso   1.000  H
  C124     1.0000 0.65970  0.04130  0.35830  Biso   1.000  C
  H70      1.0000 0.63550  0.03950  0.38080  Biso   1.000  H
  C125     1.0000 0.70700  0.92080  0.40730  Biso   1.000  C
  H71      1.0000 0.70800  0.96570  0.41880  Biso   1.000  H
  C126     1.0000 0.60550  0.29200  0.35820  Biso   1.000  C
  H72      1.0000 0.62530  0.33800  0.35550  Biso   1.000  H
  C127     1.0000 0.83550  0.01560  0.25300  Biso   1.000  C
  H73      1.0000 0.85880  0.99600  0.27340  Biso   1.000  H
  C128     1.0000 0.64330  0.23200  0.34640  Biso   1.000  C
  H74      1.0000 0.68900  0.23760  0.33610  Biso   1.000  H
  C129     1.0000 0.76740  0.04670  0.25690  Biso   1.000  C
  C130     1.0000 0.65450  0.10150  0.33730  Biso   1.000  C
  C131     1.0000 0.70320  0.91690  0.36952  Biso   1.000  C
  C132     1.0000 0.70000  0.98280  0.34720  Biso   1.000  C
  C133     1.0000 0.50930  0.21550  0.37778  Biso   1.000  C
  H75      1.0000 0.46360  0.20930  0.38800  Biso   1.000  H
  C134     1.0000 0.73600  0.07900  0.22670  Biso   1.000  C
  H76      1.0000 0.69150  0.10210  0.22900  Biso   1.000  H
  C135     1.0000 0.69250  0.10390  0.30420  Biso   1.000  C
  H77      1.0000 0.69140  0.14570  0.29000  Biso   1.000  H
  C136     1.0000 0.73460  0.98620  0.31410  Biso   1.000  C
  H78      1.0000 0.76120  0.94640  0.30620  Biso   1.000  H
  C137     1.0000 0.74460  0.54740  0.46574  Biso   1.000  C
  H79      1.0000 0.78390  0.51660  0.46890  Biso   1.000  H
  C138     1.0000 0.73180  0.04520  0.29230  Biso   1.000  C
  C139     1.0000 0.61390  0.16370  0.34970  Biso   1.000  C
  C140     1.0000 0.54870  0.15740  0.36630  Biso   1.000  C
  H80      1.0000 0.52990  0.11130  0.37010  Biso   1.000  H
  Al6      1.0000 0.36862  0.40442  0.41927  Biso   1.000  Al
  O51      1.0000 0.30240  0.33030  0.41550  Biso   1.000  O
  O52      1.0000 0.56350  0.65950  0.39750  Biso   1.000  O
  O53      1.0000 0.29640  0.46540  0.43883  Biso   1.000  O
  O54      1.0000 0.43250  0.47830  0.42054  Biso   1.000  O
  O55      1.0000 0.39470  0.37230  0.46503  Biso   1.000  O
  O56      1.0000 0.16260  0.93040  0.12727  Biso   1.000  O
  O57      1.0000 0.06570  0.97960  0.15225  Biso   1.000  O
  O58      1.0000 0.29870  0.26720  0.46679  Biso   1.000  O
  O59      1.0000 0.46700  0.59430  0.38396  Biso   1.000  O
  C141     1.0000 0.46170  0.71640  0.37403  Biso   1.000  C
  O60      1.0000 0.26230  0.40330  0.48835  Biso   1.000  O
  C142     1.0000 0.50040  0.65320  0.38607  Biso   1.000  C
  C143     1.0000 0.29230  0.20640  0.41123  Biso   1.000  C
  C144     1.0000 0.12710  0.95530  0.15389  Biso   1.000  C
  C145     1.0000 0.29070  0.14060  0.42802  Biso   1.000  C
  H81      1.0000 0.28800  0.13750  0.45360  Biso   1.000  H
  C146     1.0000 0.16400  0.95450  0.18967  Biso   1.000  C
  C147     1.0000 0.29730  0.27250  0.43285  Biso   1.000  C
  C148     1.0000 0.13190  0.98630  0.21933  Biso   1.000  C
  H82      1.0000 0.08750  0.00940  0.21660  Biso   1.000  H
  C149     1.0000 0.29560  0.21060  0.37370  Biso   1.000  C
  H83      1.0000 0.29680  0.25550  0.36210  Biso   1.000  H
  C150     1.0000 0.29720  0.14880  0.35325  Biso   1.000  C
  H84      1.0000 0.29860  0.15190  0.32770  Biso   1.000  H
  C151     1.0000 0.23020  0.92300  0.19348  Biso   1.000  C
  H85      1.0000 0.25260  0.90250  0.17300  Biso   1.000  H
  C152     1.0000 0.34030  0.95870  0.35830  Biso   1.000  C
  H86      1.0000 0.36450  0.96050  0.38080  Biso   1.000  H
  C153     1.0000 0.29300  0.07920  0.40730  Biso   1.000  C
  H87      1.0000 0.29200  0.03430  0.41880  Biso   1.000  H
  C154     1.0000 0.39450  0.70800  0.35820  Biso   1.000  C
  H88      1.0000 0.37470  0.66200  0.35550  Biso   1.000  H
  C155     1.0000 0.16450  0.98440  0.25300  Biso   1.000  C
  H89      1.0000 0.14120  0.00400  0.27340  Biso   1.000  H
  C156     1.0000 0.35670  0.76800  0.34640  Biso   1.000  C
  H90      1.0000 0.31100  0.76240  0.33610  Biso   1.000  H
  C157     1.0000 0.23260  0.95330  0.25690  Biso   1.000  C
  C158     1.0000 0.34550  0.89850  0.33730  Biso   1.000  C
  C159     1.0000 0.29680  0.08310  0.36952  Biso   1.000  C
  C160     1.0000 0.30000  0.01720  0.34720  Biso   1.000  C
  C161     1.0000 0.49070  0.78450  0.37778  Biso   1.000  C
  H91      1.0000 0.53640  0.79070  0.38800  Biso   1.000  H
  C162     1.0000 0.26400  0.92100  0.22670  Biso   1.000  C
  H92      1.0000 0.30850  0.89790  0.22900  Biso   1.000  H
  C163     1.0000 0.30750  0.89610  0.30420  Biso   1.000  C
  H93      1.0000 0.30860  0.85430  0.29000  Biso   1.000  H
  C164     1.0000 0.26540  0.01380  0.31410  Biso   1.000  C
  H94      1.0000 0.23880  0.05360  0.30620  Biso   1.000  H
  C165     1.0000 0.25540  0.45260  0.46574  Biso   1.000  C
  H95      1.0000 0.21610  0.48340  0.46890  Biso   1.000  H
  C166     1.0000 0.26820  0.95480  0.29230  Biso   1.000  C
  C167     1.0000 0.38610  0.83630  0.34970  Biso   1.000  C
  C168     1.0000 0.45130  0.84260  0.36630  Biso   1.000  C
  H96      1.0000 0.47010  0.88870  0.37010  Biso   1.000  H
  Al7      1.0000 0.09558  0.86862  0.91927  Biso   1.000  Al
  O61      1.0000 0.16970  0.80240  0.91550  Biso   1.000  O
  O62      1.0000 0.84050  0.06350  0.89750  Biso   1.000  O
  O63      1.0000 0.03460  0.79640  0.93883  Biso   1.000  O
  O64      1.0000 0.02170  0.93250  0.92054  Biso   1.000  O
  O65      1.0000 0.12770  0.89470  0.96503  Biso   1.000  O
  O66      1.0000 0.56960  0.66260  0.62727  Biso   1.000  O
  O67      1.0000 0.52040  0.56570  0.65225  Biso   1.000  O
  O68      1.0000 0.23280  0.79870  0.96679  Biso   1.000  O
  O69      1.0000 0.90570  0.96700  0.88396  Biso   1.000  O
  C169     1.0000 0.78360  0.96170  0.87403  Biso   1.000  C
  O70      1.0000 0.09670  0.76230  0.98835  Biso   1.000  O
  C170     1.0000 0.84680  0.00040  0.88607  Biso   1.000  C
  C171     1.0000 0.29360  0.79230  0.91123  Biso   1.000  C
  C172     1.0000 0.54470  0.62710  0.65389  Biso   1.000  C
  C173     1.0000 0.35940  0.79070  0.92802  Biso   1.000  C
  H97      1.0000 0.36250  0.78800  0.95360  Biso   1.000  H
  C174     1.0000 0.54550  0.66400  0.68967  Biso   1.000  C
  C175     1.0000 0.22750  0.79730  0.93285  Biso   1.000  C
  C176     1.0000 0.51370  0.63190  0.71933  Biso   1.000  C
  H98      1.0000 0.49060  0.58750  0.71660  Biso   1.000  H
  C177     1.0000 0.28940  0.79560  0.87370  Biso   1.000  C
  H99      1.0000 0.24450  0.79680  0.86210  Biso   1.000  H
  C178     1.0000 0.35120  0.79720  0.85325  Biso   1.000  C
  H100     1.0000 0.34810  0.79860  0.82770  Biso   1.000  H
  C179     1.0000 0.57700  0.73020  0.69348  Biso   1.000  C
  H101     1.0000 0.59750  0.75260  0.67300  Biso   1.000  H
  C180     1.0000 0.54130  0.84030  0.85830  Biso   1.000  C
  H102     1.0000 0.53950  0.86450  0.88080  Biso   1.000  H
  C181     1.0000 0.42080  0.79300  0.90730  Biso   1.000  C
  H103     1.0000 0.46570  0.79200  0.91880  Biso   1.000  H
  C182     1.0000 0.79200  0.89450  0.85820  Biso   1.000  C
  H104     1.0000 0.83800  0.87470  0.85550  Biso   1.000  H
  C183     1.0000 0.51560  0.66450  0.75300  Biso   1.000  C
  H105     1.0000 0.49600  0.64120  0.77340  Biso   1.000  H
  C184     1.0000 0.73200  0.85670  0.84640  Biso   1.000  C
  H106     1.0000 0.73760  0.81100  0.83610  Biso   1.000  H
  C185     1.0000 0.54670  0.73260  0.75690  Biso   1.000  C
  C186     1.0000 0.60150  0.84550  0.83730  Biso   1.000  C
  C187     1.0000 0.41690  0.79680  0.86952  Biso   1.000  C
  C188     1.0000 0.48280  0.80000  0.84720  Biso   1.000  C
  C189     1.0000 0.71550  0.99070  0.87778  Biso   1.000  C
  H107     1.0000 0.70930  0.03640  0.88800  Biso   1.000  H
  C190     1.0000 0.57900  0.76400  0.72670  Biso   1.000  C
  H108     1.0000 0.60210  0.80850  0.72900  Biso   1.000  H
  C191     1.0000 0.60390  0.80750  0.80420  Biso   1.000  C
  H109     1.0000 0.64570  0.80860  0.79000  Biso   1.000  H
  C192     1.0000 0.48620  0.76540  0.81410  Biso   1.000  C
  H110     1.0000 0.44640  0.73880  0.80620  Biso   1.000  H
  C193     1.0000 0.04740  0.75540  0.96574  Biso   1.000  C
  H111     1.0000 0.01660  0.71610  0.96890  Biso   1.000  H
  C194     1.0000 0.54520  0.76820  0.79230  Biso   1.000  C
  C195     1.0000 0.66370  0.88610  0.84970  Biso   1.000  C
  C196     1.0000 0.65740  0.95130  0.86630  Biso   1.000  C
  H112     1.0000 0.61130  0.97010  0.87010  Biso   1.000  H
  Al8      1.0000 0.90442  0.13138  0.91927  Biso   1.000  Al
  O71      1.0000 0.83030  0.19760  0.91550  Biso   1.000  O
  O72      1.0000 0.15950  0.93650  0.89750  Biso   1.000  O
  O73      1.0000 0.96540  0.20360  0.93883  Biso   1.000  O
  O74      1.0000 0.97830  0.06750  0.92054  Biso   1.000  O
  O75      1.0000 0.87230  0.10530  0.96503  Biso   1.000  O
  O76      1.0000 0.43040  0.33740  0.62727  Biso   1.000  O
  O77      1.0000 0.47960  0.43430  0.65225  Biso   1.000  O
  O78      1.0000 0.76720  0.20130  0.96679  Biso   1.000  O
  O79      1.0000 0.09430  0.03300  0.88396  Biso   1.000  O
  C197     1.0000 0.21640  0.03830  0.87403  Biso   1.000  C
  O80      1.0000 0.90330  0.23770  0.98835  Biso   1.000  O
  C198     1.0000 0.15320  0.99960  0.88607  Biso   1.000  C
  C199     1.0000 0.70640  0.20770  0.91123  Biso   1.000  C
  C200     1.0000 0.45530  0.37290  0.65389  Biso   1.000  C
  C201     1.0000 0.64060  0.20930  0.92802  Biso   1.000  C
  H113     1.0000 0.63750  0.21200  0.95360  Biso   1.000  H
  C202     1.0000 0.45450  0.33600  0.68967  Biso   1.000  C
  C203     1.0000 0.77250  0.20270  0.93285  Biso   1.000  C
  C204     1.0000 0.48630  0.36810  0.71933  Biso   1.000  C
  H114     1.0000 0.50940  0.41250  0.71660  Biso   1.000  H
  C205     1.0000 0.71060  0.20440  0.87370  Biso   1.000  C
  H115     1.0000 0.75550  0.20320  0.86210  Biso   1.000  H
  C206     1.0000 0.64880  0.20280  0.85325  Biso   1.000  C
  H116     1.0000 0.65190  0.20140  0.82770  Biso   1.000  H
  C207     1.0000 0.42300  0.26980  0.69348  Biso   1.000  C
  H117     1.0000 0.40250  0.24740  0.67300  Biso   1.000  H
  C208     1.0000 0.45870  0.15970  0.85830  Biso   1.000  C
  H118     1.0000 0.46050  0.13550  0.88080  Biso   1.000  H
  C209     1.0000 0.57920  0.20700  0.90730  Biso   1.000  C
  H119     1.0000 0.53430  0.20800  0.91880  Biso   1.000  H
  C210     1.0000 0.20800  0.10550  0.85820  Biso   1.000  C
  H120     1.0000 0.16200  0.12530  0.85550  Biso   1.000  H
  C211     1.0000 0.48440  0.33550  0.75300  Biso   1.000  C
  H121     1.0000 0.50400  0.35880  0.77340  Biso   1.000  H
  C212     1.0000 0.26800  0.14330  0.84640  Biso   1.000  C
  H122     1.0000 0.26240  0.18900  0.83610  Biso   1.000  H
  C213     1.0000 0.45330  0.26740  0.75690  Biso   1.000  C
  C214     1.0000 0.39850  0.15450  0.83730  Biso   1.000  C
  C215     1.0000 0.58310  0.20320  0.86952  Biso   1.000  C
  C216     1.0000 0.51720  0.20000  0.84720  Biso   1.000  C
  C217     1.0000 0.28450  0.00930  0.87778  Biso   1.000  C
  H123     1.0000 0.29070  0.96360  0.88800  Biso   1.000  H
  C218     1.0000 0.42100  0.23600  0.72670  Biso   1.000  C
  H124     1.0000 0.39790  0.19150  0.72900  Biso   1.000  H
  C219     1.0000 0.39610  0.19250  0.80420  Biso   1.000  C
  H125     1.0000 0.35430  0.19140  0.79000  Biso   1.000  H
  C220     1.0000 0.51380  0.23460  0.81410  Biso   1.000  C
  H126     1.0000 0.55360  0.26120  0.80620  Biso   1.000  H
  C221     1.0000 0.95260  0.24460  0.96574  Biso   1.000  C
  H127     1.0000 0.98340  0.28390  0.96890  Biso   1.000  H
  C222     1.0000 0.45480  0.23180  0.79230  Biso   1.000  C
  C223     1.0000 0.33630  0.11390  0.84970  Biso   1.000  C
  C224     1.0000 0.34260  0.04870  0.86630  Biso   1.000  C
  H128     1.0000 0.38870  0.02990  0.87010  Biso   1.000  H
  Al9      1.0000 0.83462  0.16538  0.00000  Biso   1.000  Al
  Al10     1.0000 0.16538  0.83462  0.00000  Biso   1.000  Al
  Al11     1.0000 0.33462  0.33462  0.50000  Biso   1.000  Al
  Al12     1.0000 0.66538  0.66538  0.50000  Biso   1.000  Al
  Al13     1.0000 0.00000  0.00000  0.11447  Biso   1.000  Al
  Al14     1.0000 0.50000  0.50000  0.61447  Biso   1.000  Al
  Al15     1.0000 0.50000  0.50000  0.38553  Biso   1.000  Al
  Al16     1.0000 0.00000  0.00000  0.88553  Biso   1.000  Al
