data_image0
_cell_length_a       10.4821
_cell_length_b       10.4821
_cell_length_c       13.9283
_cell_angle_alpha    90
_cell_angle_beta     90
_cell_angle_gamma    90

_symmetry_space_group_name_H-M    P 1
_symmetry_int_tables_number       1

loop_
  _symmetry_equiv_pos_as_xyz
  'x, y, z'

loop_
  _atom_site_label
  _atom_site_occupancy
  _atom_site_fract_x
  _atom_site_fract_y
  _atom_site_fract_z
  _atom_site_thermal_displace_type
  _atom_site_B_iso_or_equiv
  _atom_site_type_symbol
  Na1      1.0000 0.59700  0.59700  0.00000  Biso   1.000  Na
  Na2      1.0000 0.40300  0.40300  0.50000  Biso   1.000  Na
  Na3      1.0000 0.90300  0.09700  0.75000  Biso   1.000  Na
  Na4      1.0000 0.09700  0.90300  0.25000  Biso   1.000  Na
  H1       1.0000 0.55270  0.64380  0.76880  Biso   1.000  H
  H2       1.0000 0.69320  0.94890  0.64190  Biso   1.000  H
  H3       1.0000 0.58590  0.88670  0.49920  Biso   1.000  H
  H4       1.0000 0.47230  0.69870  0.49330  Biso   1.000  H
  H5       1.0000 0.44730  0.35620  0.26880  Biso   1.000  H
  H6       1.0000 0.30680  0.05110  0.14190  Biso   1.000  H
  H7       1.0000 0.41410  0.11330  0.99920  Biso   1.000  H
  H8       1.0000 0.52770  0.30130  0.99330  Biso   1.000  H
  H9       1.0000 0.85620  0.05270  0.51880  Biso   1.000  H
  H10      1.0000 0.55110  0.19320  0.39190  Biso   1.000  H
  H11      1.0000 0.61330  0.08590  0.24920  Biso   1.000  H
  H12      1.0000 0.80130  0.97230  0.24330  Biso   1.000  H
  H13      1.0000 0.14380  0.94730  0.01880  Biso   1.000  H
  H14      1.0000 0.44890  0.80680  0.89190  Biso   1.000  H
  H15      1.0000 0.38670  0.91410  0.74920  Biso   1.000  H
  H16      1.0000 0.19870  0.02770  0.74330  Biso   1.000  H
  H17      1.0000 0.94730  0.14380  0.98120  Biso   1.000  H
  H18      1.0000 0.80680  0.44890  0.10810  Biso   1.000  H
  H19      1.0000 0.91410  0.38670  0.25080  Biso   1.000  H
  H20      1.0000 0.02770  0.19870  0.25670  Biso   1.000  H
  H21      1.0000 0.05270  0.85620  0.48120  Biso   1.000  H
  H22      1.0000 0.19320  0.55110  0.60810  Biso   1.000  H
  H23      1.0000 0.08590  0.61330  0.75080  Biso   1.000  H
  H24      1.0000 0.97230  0.80130  0.75670  Biso   1.000  H
  H25      1.0000 0.64380  0.55270  0.23120  Biso   1.000  H
  H26      1.0000 0.94890  0.69320  0.35810  Biso   1.000  H
  H27      1.0000 0.88670  0.58590  0.50080  Biso   1.000  H
  H28      1.0000 0.69870  0.47230  0.50670  Biso   1.000  H
  H29      1.0000 0.35620  0.44730  0.73120  Biso   1.000  H
  H30      1.0000 0.05110  0.30680  0.85810  Biso   1.000  H
  H31      1.0000 0.11330  0.41410  0.00080  Biso   1.000  H
  H32      1.0000 0.30130  0.52770  0.00670  Biso   1.000  H
  C1       1.0000 0.69960  0.82490  0.81400  Biso   1.000  C
  C2       1.0000 0.63360  0.79700  0.71890  Biso   1.000  C
  C3       1.0000 0.64470  0.87240  0.64000  Biso   1.000  C
  C4       1.0000 0.58170  0.83380  0.55450  Biso   1.000  C
  C5       1.0000 0.51530  0.72200  0.55070  Biso   1.000  C
  C6       1.0000 0.51000  0.63890  0.63310  Biso   1.000  C
  C7       1.0000 0.30040  0.17510  0.31400  Biso   1.000  C
  C8       1.0000 0.36640  0.20300  0.21890  Biso   1.000  C
  C9       1.0000 0.35530  0.12760  0.14000  Biso   1.000  C
  C10      1.0000 0.41830  0.16620  0.05450  Biso   1.000  C
  C11      1.0000 0.48470  0.27800  0.05070  Biso   1.000  C
  C12      1.0000 0.49000  0.36110  0.13310  Biso   1.000  C
  C13      1.0000 0.67510  0.19960  0.56400  Biso   1.000  C
  C14      1.0000 0.70300  0.13360  0.46890  Biso   1.000  C
  C15      1.0000 0.62760  0.14470  0.39000  Biso   1.000  C
  C16      1.0000 0.66620  0.08170  0.30450  Biso   1.000  C
  C17      1.0000 0.77800  0.01530  0.30070  Biso   1.000  C
  C18      1.0000 0.86110  0.01000  0.38310  Biso   1.000  C
  C19      1.0000 0.32490  0.80040  0.06400  Biso   1.000  C
  C20      1.0000 0.29700  0.86640  0.96890  Biso   1.000  C
  C21      1.0000 0.37240  0.85530  0.89000  Biso   1.000  C
  C22      1.0000 0.33380  0.91830  0.80450  Biso   1.000  C
  C23      1.0000 0.22200  0.98470  0.80070  Biso   1.000  C
  C24      1.0000 0.13890  0.99000  0.88310  Biso   1.000  C
  C25      1.0000 0.80040  0.32490  0.93600  Biso   1.000  C
  C26      1.0000 0.86640  0.29700  0.03110  Biso   1.000  C
  C27      1.0000 0.85530  0.37240  0.11000  Biso   1.000  C
  C28      1.0000 0.91830  0.33380  0.19550  Biso   1.000  C
  C29      1.0000 0.98470  0.22200  0.19930  Biso   1.000  C
  C30      1.0000 0.99000  0.13890  0.11690  Biso   1.000  C
  C31      1.0000 0.19960  0.67510  0.43600  Biso   1.000  C
  C32      1.0000 0.13360  0.70300  0.53110  Biso   1.000  C
  C33      1.0000 0.14470  0.62760  0.61000  Biso   1.000  C
  C34      1.0000 0.08170  0.66620  0.69550  Biso   1.000  C
  C35      1.0000 0.01530  0.77800  0.69930  Biso   1.000  C
  C36      1.0000 0.01000  0.86110  0.61690  Biso   1.000  C
  C37      1.0000 0.82490  0.69960  0.18600  Biso   1.000  C
  C38      1.0000 0.79700  0.63360  0.28110  Biso   1.000  C
  C39      1.0000 0.87240  0.64470  0.36000  Biso   1.000  C
  C40      1.0000 0.83380  0.58170  0.44550  Biso   1.000  C
  C41      1.0000 0.72200  0.51530  0.44930  Biso   1.000  C
  C42      1.0000 0.63890  0.51000  0.36690  Biso   1.000  C
  C43      1.0000 0.17510  0.30040  0.68600  Biso   1.000  C
  C44      1.0000 0.20300  0.36640  0.78110  Biso   1.000  C
  C45      1.0000 0.12760  0.35530  0.86000  Biso   1.000  C
  C46      1.0000 0.16620  0.41830  0.94550  Biso   1.000  C
  C47      1.0000 0.27800  0.48470  0.94930  Biso   1.000  C
  C48      1.0000 0.36110  0.49000  0.86690  Biso   1.000  C
  N1       1.0000 0.56380  0.68670  0.71510  Biso   1.000  N
  N2       1.0000 0.43620  0.31330  0.21510  Biso   1.000  N
  N3       1.0000 0.81330  0.06380  0.46510  Biso   1.000  N
  N4       1.0000 0.18670  0.93620  0.96510  Biso   1.000  N
  N5       1.0000 0.93620  0.18670  0.03490  Biso   1.000  N
  N6       1.0000 0.06380  0.81330  0.53490  Biso   1.000  N
  N7       1.0000 0.68670  0.56380  0.28490  Biso   1.000  N
  N8       1.0000 0.31330  0.43620  0.78490  Biso   1.000  N
  O1       1.0000 0.68040  0.74760  0.88180  Biso   1.000  O
  O2       1.0000 0.77240  0.91980  0.81580  Biso   1.000  O
  O3       1.0000 0.46340  0.52880  0.63240  Biso   1.000  O
  O4       1.0000 0.31960  0.25240  0.38180  Biso   1.000  O
  O5       1.0000 0.22760  0.08020  0.31580  Biso   1.000  O
  O6       1.0000 0.53660  0.47120  0.13240  Biso   1.000  O
  O7       1.0000 0.75240  0.18040  0.63180  Biso   1.000  O
  O8       1.0000 0.58020  0.27240  0.56580  Biso   1.000  O
  O9       1.0000 0.97120  0.96340  0.38240  Biso   1.000  O
  O10      1.0000 0.24760  0.81960  0.13180  Biso   1.000  O
  O11      1.0000 0.41980  0.72760  0.06580  Biso   1.000  O
  O12      1.0000 0.02880  0.03660  0.88240  Biso   1.000  O
  O13      1.0000 0.81960  0.24760  0.86820  Biso   1.000  O
  O14      1.0000 0.72760  0.41980  0.93420  Biso   1.000  O
  O15      1.0000 0.03660  0.02880  0.11760  Biso   1.000  O
  O16      1.0000 0.18040  0.75240  0.36820  Biso   1.000  O
  O17      1.0000 0.27240  0.58020  0.43420  Biso   1.000  O
  O18      1.0000 0.96340  0.97120  0.61760  Biso   1.000  O
  O19      1.0000 0.74760  0.68040  0.11820  Biso   1.000  O
  O20      1.0000 0.91980  0.77240  0.18420  Biso   1.000  O
  O21      1.0000 0.52880  0.46340  0.36760  Biso   1.000  O
  O22      1.0000 0.25240  0.31960  0.61820  Biso   1.000  O
  O23      1.0000 0.08020  0.22760  0.68420  Biso   1.000  O
  O24      1.0000 0.47120  0.53660  0.86760  Biso   1.000  O
