data_image0
_cell_length_a       13.2831
_cell_length_b       22.7439
_cell_length_c       18.6354
_cell_angle_alpha    90
_cell_angle_beta     109.05
_cell_angle_gamma    90

_symmetry_space_group_name_H-M    "P 1"
_symmetry_int_tables_number       1

loop_
  _symmetry_equiv_pos_as_xyz
  'x, y, z'

loop_
  _atom_site_label
  _atom_site_occupancy
  _atom_site_fract_x
  _atom_site_fract_y
  _atom_site_fract_z
  _atom_site_thermal_displace_type
  _atom_site_B_iso_or_equiv
  _atom_site_type_symbol
  Cu1      1.0000 0.44727  0.26261  0.51299  Biso   1.000  Cu
  N1       1.0000 0.49830  0.25950  0.42297  Biso   1.000  N
  C1       1.0000 0.53430  0.30238  0.38990  Biso   1.000  C
  H1       1.0000 0.53280  0.34110  0.40710  Biso   1.000  H
  C2       1.0000 0.57440  0.29230  0.33070  Biso   1.000  C
  H2       1.0000 0.59890  0.32400  0.30860  Biso   1.000  H
  C3       1.0000 0.57820  0.23640  0.30470  Biso   1.000  C
  H3       1.0000 0.60650  0.22930  0.26550  Biso   1.000  H
  C4       1.0000 0.53910  0.18990  0.33760  Biso   1.000  C
  C5       1.0000 0.49970  0.20393  0.39600  Biso   1.000  C
  C6       1.0000 0.45850  0.15896  0.43230  Biso   1.000  C
  C7       1.0000 0.45640  0.10046  0.40820  Biso   1.000  C
  C8       1.0000 0.41420  0.05895  0.44560  Biso   1.000  C
  H4       1.0000 0.41080  0.01920  0.43130  Biso   1.000  H
  C9       1.0000 0.37770  0.07600  0.50300  Biso   1.000  C
  H5       1.0000 0.34880  0.04830  0.52820  Biso   1.000  H
  C10      1.0000 0.38410  0.13529  0.52350  Biso   1.000  C
  H6       1.0000 0.36010  0.14670  0.56370  Biso   1.000  H
  N2       1.0000 0.42250  0.17626  0.48886  Biso   1.000  N
  C11      1.0000 0.53600  0.12990  0.31370  Biso   1.000  C
  H7       1.0000 0.56180  0.12000  0.27390  Biso   1.000  H
  C12      1.0000 0.49660  0.08730  0.34750  Biso   1.000  C
  H8       1.0000 0.49560  0.04820  0.33080  Biso   1.000  H
  Cu2      1.0000 0.25319  0.36668  0.50832  Biso   1.000  Cu
  N3       1.0000 0.23000  0.42915  0.42833  Biso   1.000  N
  C13      1.0000 0.20980  0.42344  0.35470  Biso   1.000  C
  H9       1.0000 0.20220  0.38550  0.33360  Biso   1.000  H
  C14      1.0000 0.19940  0.47218  0.30670  Biso   1.000  C
  H10      1.0000 0.18630  0.46660  0.25440  Biso   1.000  H
  C15      1.0000 0.20800  0.52726  0.33550  Biso   1.000  C
  H11      1.0000 0.20110  0.56000  0.30340  Biso   1.000  H
  C16      1.0000 0.22750  0.53517  0.41360  Biso   1.000  C
  C17      1.0000 0.23850  0.48444  0.45740  Biso   1.000  C
  C18      1.0000 0.26130  0.48841  0.53790  Biso   1.000  C
  C19      1.0000 0.27030  0.54368  0.57280  Biso   1.000  C
  C20      1.0000 0.29080  0.54360  0.65140  Biso   1.000  C
  H12      1.0000 0.29710  0.57940  0.67760  Biso   1.000  H
  C21      1.0000 0.30170  0.49235  0.68980  Biso   1.000  C
  H13      1.0000 0.31520  0.49250  0.74250  Biso   1.000  H
  C22      1.0000 0.29290  0.43897  0.65080  Biso   1.000  C
  H14      1.0000 0.30120  0.40360  0.67810  Biso   1.000  H
  N4       1.0000 0.27310  0.43703  0.57629  Biso   1.000  N
  C23      1.0000 0.23760  0.59093  0.45020  Biso   1.000  C
  H15      1.0000 0.23050  0.62540  0.42120  Biso   1.000  H
  C24      1.0000 0.25710  0.59523  0.52580  Biso   1.000  C
  H16      1.0000 0.26220  0.63260  0.54820  Biso   1.000  H
  Cu3      1.0000 0.06503  0.23662  0.01568  Biso   1.000  Cu
  N5       1.0000 0.07610  0.32123  0.04919  Biso   1.000  N
  C25      1.0000 0.10260  0.36809  0.01710  Biso   1.000  C
  H17      1.0000 0.13060  0.36260  0.97730  Biso   1.000  H
  C26      1.0000 0.09070  0.42532  0.04030  Biso   1.000  C
  H18      1.0000 0.11130  0.45760  0.01690  Biso   1.000  H
  C27      1.0000 0.04880  0.43385  0.09700  Biso   1.000  C
  H19      1.0000 0.03920  0.47220  0.11240  Biso   1.000  H
  C28      1.0000 0.02000  0.38552  0.13260  Biso   1.000  C
  C29      1.0000 0.03440  0.32994  0.10540  Biso   1.000  C
  C30      1.0000 0.00300  0.27872  0.13700  Biso   1.000  C
  C31      1.0000 0.96050  0.28307  0.19620  Biso   1.000  C
  C32      1.0000 0.93310  0.23120  0.22450  Biso   1.000  C
  H20      1.0000 0.90310  0.23220  0.26370  Biso   1.000  H
  C33      1.0000 0.95010  0.17880  0.19500  Biso   1.000  C
  H21      1.0000 0.93370  0.14340  0.21490  Biso   1.000  H
  C34      1.0000 0.99160  0.17765  0.13550  Biso   1.000  C
  H22      1.0000 0.00240  0.14110  0.11560  Biso   1.000  H
  N6       1.0000 0.01670  0.22643  0.10581  Biso   1.000  N
  C35      1.0000 0.97600  0.38900  0.19320  Biso   1.000  C
  H23      1.0000 0.96670  0.42610  0.21240  Biso   1.000  H
  C36      1.0000 0.94790  0.34100  0.22300  Biso   1.000  C
  H24      1.0000 0.91910  0.34510  0.26260  Biso   1.000  H
  O1       1.0000 0.39640  0.25026  0.59873  Biso   1.000  O
  O2       1.0000 0.26470  0.31414  0.59241  Biso   1.000  O
  C37      1.0000 0.32650  0.27225  0.62160  Biso   1.000  C
  C38      1.0000 0.31500  0.24519  0.69080  Biso   1.000  C
  H25      1.0000 0.34690  0.20840  0.70640  Biso   1.000  H
  C39      1.0000 0.26210  0.27000  0.73190  Biso   1.000  C
  H26      1.0000 0.22930  0.30650  0.71610  Biso   1.000  H
  O3       1.0000 0.45504  0.34791  0.52221  Biso   1.000  O
  O4       1.0000 0.58160  0.35327  0.63628  Biso   1.000  O
  C40      1.0000 0.51950  0.37599  0.57850  Biso   1.000  C
  C41      1.0000 0.52020  0.44074  0.57020  Biso   1.000  C
  H27      1.0000 0.53990  0.46360  0.61470  Biso   1.000  H
  C42      1.0000 0.49480  0.46884  0.50390  Biso   1.000  C
  H28      1.0000 0.46840  0.44640  0.45940  Biso   1.000  H
  O5       1.0000 0.24707  0.19455  0.93473  Biso   1.000  O
  O6       1.0000 0.11860  0.25860  0.93467  Biso   1.000  O
  C43      1.0000 0.18720  0.23798  0.90890  Biso   1.000  C
  C44      1.0000 0.19910  0.26739  0.84190  Biso   1.000  C
  H29      1.0000 0.16760  0.30450  0.82820  Biso   1.000  H
  C45      1.0000 0.25220  0.24391  0.79990  Biso   1.000  C
  H30      1.0000 0.28600  0.20760  0.81560  Biso   1.000  H
  O7       1.0000 0.05834  0.34715  0.49335  Biso   1.000  O
  O8       1.0000 0.91340  0.34365  0.38911  Biso   1.000  O
  C46      1.0000 0.98400  0.37105  0.43850  Biso   1.000  C
  C47      1.0000 0.98070  0.43571  0.43720  Biso   1.000  C
  H31      1.0000 0.95900  0.45470  0.38980  Biso   1.000  H
  C48      1.0000 0.00700  0.46865  0.49960  Biso   1.000  C
  H32      1.0000 0.03690  0.44960  0.54650  Biso   1.000  H
  Cu4      1.0000 0.55273  0.76261  0.98701  Biso   1.000  Cu
  N7       1.0000 0.50170  0.75950  0.07703  Biso   1.000  N
  C49      1.0000 0.46570  0.80238  0.11010  Biso   1.000  C
  H33      1.0000 0.46720  0.84110  0.09290  Biso   1.000  H
  C50      1.0000 0.42560  0.79230  0.16930  Biso   1.000  C
  H34      1.0000 0.40110  0.82400  0.19140  Biso   1.000  H
  C51      1.0000 0.42180  0.73640  0.19530  Biso   1.000  C
  H35      1.0000 0.39350  0.72930  0.23450  Biso   1.000  H
  C52      1.0000 0.46090  0.68990  0.16240  Biso   1.000  C
  C53      1.0000 0.50030  0.70393  0.10400  Biso   1.000  C
  C54      1.0000 0.54150  0.65896  0.06770  Biso   1.000  C
  C55      1.0000 0.54360  0.60046  0.09180  Biso   1.000  C
  C56      1.0000 0.58580  0.55895  0.05440  Biso   1.000  C
  H36      1.0000 0.58920  0.51920  0.06870  Biso   1.000  H
  C57      1.0000 0.62230  0.57600  0.99700  Biso   1.000  C
  H37      1.0000 0.65120  0.54830  0.97180  Biso   1.000  H
  C58      1.0000 0.61590  0.63529  0.97650  Biso   1.000  C
  H38      1.0000 0.63990  0.64670  0.93630  Biso   1.000  H
  N8       1.0000 0.57750  0.67626  0.01114  Biso   1.000  N
  C59      1.0000 0.46400  0.62990  0.18630  Biso   1.000  C
  H39      1.0000 0.43820  0.62000  0.22610  Biso   1.000  H
  C60      1.0000 0.50340  0.58730  0.15250  Biso   1.000  C
  H40      1.0000 0.50440  0.54820  0.16920  Biso   1.000  H
  Cu5      1.0000 0.74681  0.86668  0.99168  Biso   1.000  Cu
  N9       1.0000 0.77000  0.92915  0.07167  Biso   1.000  N
  C61      1.0000 0.79020  0.92344  0.14530  Biso   1.000  C
  H41      1.0000 0.79780  0.88550  0.16640  Biso   1.000  H
  C62      1.0000 0.80060  0.97218  0.19330  Biso   1.000  C
  H42      1.0000 0.81370  0.96660  0.24560  Biso   1.000  H
  C63      1.0000 0.79200  0.02726  0.16450  Biso   1.000  C
  H43      1.0000 0.79890  0.06000  0.19660  Biso   1.000  H
  C64      1.0000 0.77250  0.03517  0.08640  Biso   1.000  C
  C65      1.0000 0.76150  0.98444  0.04260  Biso   1.000  C
  C66      1.0000 0.73870  0.98841  0.96210  Biso   1.000  C
  C67      1.0000 0.72970  0.04368  0.92720  Biso   1.000  C
  C68      1.0000 0.70920  0.04360  0.84860  Biso   1.000  C
  H44      1.0000 0.70290  0.07940  0.82240  Biso   1.000  H
  C69      1.0000 0.69830  0.99235  0.81020  Biso   1.000  C
  H45      1.0000 0.68480  0.99250  0.75750  Biso   1.000  H
  C70      1.0000 0.70710  0.93897  0.84920  Biso   1.000  C
  H46      1.0000 0.69880  0.90360  0.82190  Biso   1.000  H
  N10      1.0000 0.72690  0.93703  0.92371  Biso   1.000  N
  C71      1.0000 0.76240  0.09093  0.04980  Biso   1.000  C
  H47      1.0000 0.76950  0.12540  0.07880  Biso   1.000  H
  C72      1.0000 0.74290  0.09523  0.97420  Biso   1.000  C
  H48      1.0000 0.73780  0.13260  0.95180  Biso   1.000  H
  Cu6      1.0000 0.93497  0.73662  0.48432  Biso   1.000  Cu
  N11      1.0000 0.92390  0.82123  0.45081  Biso   1.000  N
  C73      1.0000 0.89740  0.86809  0.48290  Biso   1.000  C
  H49      1.0000 0.86940  0.86260  0.52270  Biso   1.000  H
  C74      1.0000 0.90930  0.92532  0.45970  Biso   1.000  C
  H50      1.0000 0.88870  0.95760  0.48310  Biso   1.000  H
  C75      1.0000 0.95120  0.93385  0.40300  Biso   1.000  C
  H51      1.0000 0.96080  0.97220  0.38760  Biso   1.000  H
  C76      1.0000 0.98000  0.88552  0.36740  Biso   1.000  C
  C77      1.0000 0.96560  0.82994  0.39460  Biso   1.000  C
  C78      1.0000 0.99700  0.77872  0.36300  Biso   1.000  C
  C79      1.0000 0.03950  0.78307  0.30380  Biso   1.000  C
  C80      1.0000 0.06690  0.73120  0.27550  Biso   1.000  C
  H52      1.0000 0.09690  0.73220  0.23630  Biso   1.000  H
  C81      1.0000 0.04990  0.67880  0.30500  Biso   1.000  C
  H53      1.0000 0.06630  0.64340  0.28510  Biso   1.000  H
  C82      1.0000 0.00840  0.67765  0.36450  Biso   1.000  C
  H54      1.0000 0.99760  0.64110  0.38440  Biso   1.000  H
  N12      1.0000 0.98330  0.72643  0.39419  Biso   1.000  N
  C83      1.0000 0.02400  0.88900  0.30680  Biso   1.000  C
  H55      1.0000 0.03330  0.92610  0.28760  Biso   1.000  H
  C84      1.0000 0.05210  0.84100  0.27700  Biso   1.000  C
  H56      1.0000 0.08090  0.84510  0.23740  Biso   1.000  H
  O9       1.0000 0.60360  0.75026  0.90127  Biso   1.000  O
  O10      1.0000 0.73530  0.81414  0.90759  Biso   1.000  O
  C85      1.0000 0.67350  0.77225  0.87840  Biso   1.000  C
  C86      1.0000 0.68500  0.74519  0.80920  Biso   1.000  C
  H57      1.0000 0.65310  0.70840  0.79360  Biso   1.000  H
  C87      1.0000 0.73790  0.77000  0.76810  Biso   1.000  C
  H58      1.0000 0.77070  0.80650  0.78390  Biso   1.000  H
  O11      1.0000 0.54496  0.84791  0.97779  Biso   1.000  O
  O12      1.0000 0.41840  0.85327  0.86372  Biso   1.000  O
  C88      1.0000 0.48050  0.87599  0.92150  Biso   1.000  C
  C89      1.0000 0.47980  0.94074  0.92980  Biso   1.000  C
  H59      1.0000 0.46010  0.96360  0.88530  Biso   1.000  H
  C90      1.0000 0.50520  0.96884  0.99610  Biso   1.000  C
  H60      1.0000 0.53160  0.94640  0.04060  Biso   1.000  H
  O13      1.0000 0.75293  0.69455  0.56527  Biso   1.000  O
  O14      1.0000 0.88140  0.75860  0.56533  Biso   1.000  O
  C91      1.0000 0.81280  0.73798  0.59110  Biso   1.000  C
  C92      1.0000 0.80090  0.76739  0.65810  Biso   1.000  C
  H61      1.0000 0.83240  0.80450  0.67180  Biso   1.000  H
  C93      1.0000 0.74780  0.74391  0.70010  Biso   1.000  C
  H62      1.0000 0.71400  0.70760  0.68440  Biso   1.000  H
  O15      1.0000 0.94166  0.84715  0.00665  Biso   1.000  O
  O16      1.0000 0.08660  0.84365  0.11089  Biso   1.000  O
  C94      1.0000 0.01600  0.87105  0.06150  Biso   1.000  C
  C95      1.0000 0.01930  0.93571  0.06280  Biso   1.000  C
  H63      1.0000 0.04100  0.95470  0.11020  Biso   1.000  H
  C96      1.0000 0.99300  0.96865  0.00040  Biso   1.000  C
  H64      1.0000 0.96310  0.94960  0.95350  Biso   1.000  H
  Cu7      1.0000 0.55273  0.73739  0.48701  Biso   1.000  Cu
  N13      1.0000 0.50170  0.74050  0.57703  Biso   1.000  N
  C97      1.0000 0.46570  0.69762  0.61010  Biso   1.000  C
  H65      1.0000 0.46720  0.65890  0.59290  Biso   1.000  H
  C98      1.0000 0.42560  0.70770  0.66930  Biso   1.000  C
  H66      1.0000 0.40110  0.67600  0.69140  Biso   1.000  H
  C99      1.0000 0.42180  0.76360  0.69530  Biso   1.000  C
  H67      1.0000 0.39350  0.77070  0.73450  Biso   1.000  H
  C100     1.0000 0.46090  0.81010  0.66240  Biso   1.000  C
  C101     1.0000 0.50030  0.79607  0.60400  Biso   1.000  C
  C102     1.0000 0.54150  0.84104  0.56770  Biso   1.000  C
  C103     1.0000 0.54360  0.89954  0.59180  Biso   1.000  C
  C104     1.0000 0.58580  0.94105  0.55440  Biso   1.000  C
  H68      1.0000 0.58920  0.98080  0.56870  Biso   1.000  H
  C105     1.0000 0.62230  0.92400  0.49700  Biso   1.000  C
  H69      1.0000 0.65120  0.95170  0.47180  Biso   1.000  H
  C106     1.0000 0.61590  0.86471  0.47650  Biso   1.000  C
  H70      1.0000 0.63990  0.85330  0.43630  Biso   1.000  H
  N14      1.0000 0.57750  0.82374  0.51114  Biso   1.000  N
  C107     1.0000 0.46400  0.87010  0.68630  Biso   1.000  C
  H71      1.0000 0.43820  0.88000  0.72610  Biso   1.000  H
  C108     1.0000 0.50340  0.91270  0.65250  Biso   1.000  C
  H72      1.0000 0.50440  0.95180  0.66920  Biso   1.000  H
  Cu8      1.0000 0.74681  0.63332  0.49168  Biso   1.000  Cu
  N15      1.0000 0.77000  0.57085  0.57167  Biso   1.000  N
  C109     1.0000 0.79020  0.57656  0.64530  Biso   1.000  C
  H73      1.0000 0.79780  0.61450  0.66640  Biso   1.000  H
  C110     1.0000 0.80060  0.52782  0.69330  Biso   1.000  C
  H74      1.0000 0.81370  0.53340  0.74560  Biso   1.000  H
  C111     1.0000 0.79200  0.47274  0.66450  Biso   1.000  C
  H75      1.0000 0.79890  0.44000  0.69660  Biso   1.000  H
  C112     1.0000 0.77250  0.46483  0.58640  Biso   1.000  C
  C113     1.0000 0.76150  0.51556  0.54260  Biso   1.000  C
  C114     1.0000 0.73870  0.51159  0.46210  Biso   1.000  C
  C115     1.0000 0.72970  0.45632  0.42720  Biso   1.000  C
  C116     1.0000 0.70920  0.45640  0.34860  Biso   1.000  C
  H76      1.0000 0.70290  0.42060  0.32240  Biso   1.000  H
  C117     1.0000 0.69830  0.50765  0.31020  Biso   1.000  C
  H77      1.0000 0.68480  0.50750  0.25750  Biso   1.000  H
  C118     1.0000 0.70710  0.56103  0.34920  Biso   1.000  C
  H78      1.0000 0.69880  0.59640  0.32190  Biso   1.000  H
  N16      1.0000 0.72690  0.56297  0.42371  Biso   1.000  N
  C119     1.0000 0.76240  0.40907  0.54980  Biso   1.000  C
  H79      1.0000 0.76950  0.37460  0.57880  Biso   1.000  H
  C120     1.0000 0.74290  0.40477  0.47420  Biso   1.000  C
  H80      1.0000 0.73780  0.36740  0.45180  Biso   1.000  H
  Cu9      1.0000 0.93497  0.76338  0.98432  Biso   1.000  Cu
  N17      1.0000 0.92390  0.67877  0.95081  Biso   1.000  N
  C121     1.0000 0.89740  0.63191  0.98290  Biso   1.000  C
  H81      1.0000 0.86940  0.63740  0.02270  Biso   1.000  H
  C122     1.0000 0.90930  0.57468  0.95970  Biso   1.000  C
  H82      1.0000 0.88870  0.54240  0.98310  Biso   1.000  H
  C123     1.0000 0.95120  0.56615  0.90300  Biso   1.000  C
  H83      1.0000 0.96080  0.52780  0.88760  Biso   1.000  H
  C124     1.0000 0.98000  0.61448  0.86740  Biso   1.000  C
  C125     1.0000 0.96560  0.67006  0.89460  Biso   1.000  C
  C126     1.0000 0.99700  0.72128  0.86300  Biso   1.000  C
  C127     1.0000 0.03950  0.71693  0.80380  Biso   1.000  C
  C128     1.0000 0.06690  0.76880  0.77550  Biso   1.000  C
  H84      1.0000 0.09690  0.76780  0.73630  Biso   1.000  H
  C129     1.0000 0.04990  0.82120  0.80500  Biso   1.000  C
  H85      1.0000 0.06630  0.85660  0.78510  Biso   1.000  H
  C130     1.0000 0.00840  0.82235  0.86450  Biso   1.000  C
  H86      1.0000 0.99760  0.85890  0.88440  Biso   1.000  H
  N18      1.0000 0.98330  0.77357  0.89419  Biso   1.000  N
  C131     1.0000 0.02400  0.61100  0.80680  Biso   1.000  C
  H87      1.0000 0.03330  0.57390  0.78760  Biso   1.000  H
  C132     1.0000 0.05210  0.65900  0.77700  Biso   1.000  C
  H88      1.0000 0.08090  0.65490  0.73740  Biso   1.000  H
  O17      1.0000 0.60360  0.74974  0.40127  Biso   1.000  O
  O18      1.0000 0.73530  0.68586  0.40759  Biso   1.000  O
  C133     1.0000 0.67350  0.72775  0.37840  Biso   1.000  C
  C134     1.0000 0.68500  0.75481  0.30920  Biso   1.000  C
  H89      1.0000 0.65310  0.79160  0.29360  Biso   1.000  H
  C135     1.0000 0.73790  0.73000  0.26810  Biso   1.000  C
  H90      1.0000 0.77070  0.69350  0.28390  Biso   1.000  H
  O19      1.0000 0.54496  0.65209  0.47779  Biso   1.000  O
  O20      1.0000 0.41840  0.64673  0.36372  Biso   1.000  O
  C136     1.0000 0.48050  0.62401  0.42150  Biso   1.000  C
  C137     1.0000 0.47980  0.55926  0.42980  Biso   1.000  C
  H91      1.0000 0.46010  0.53640  0.38530  Biso   1.000  H
  C138     1.0000 0.50520  0.53116  0.49610  Biso   1.000  C
  H92      1.0000 0.53160  0.55360  0.54060  Biso   1.000  H
  O21      1.0000 0.75293  0.80545  0.06527  Biso   1.000  O
  O22      1.0000 0.88140  0.74140  0.06533  Biso   1.000  O
  C139     1.0000 0.81280  0.76202  0.09110  Biso   1.000  C
  C140     1.0000 0.80090  0.73261  0.15810  Biso   1.000  C
  H93      1.0000 0.83240  0.69550  0.17180  Biso   1.000  H
  C141     1.0000 0.74780  0.75609  0.20010  Biso   1.000  C
  H94      1.0000 0.71400  0.79240  0.18440  Biso   1.000  H
  O23      1.0000 0.94166  0.65285  0.50665  Biso   1.000  O
  O24      1.0000 0.08660  0.65635  0.61089  Biso   1.000  O
  C142     1.0000 0.01600  0.62895  0.56150  Biso   1.000  C
  C143     1.0000 0.01930  0.56429  0.56280  Biso   1.000  C
  H95      1.0000 0.04100  0.54530  0.61020  Biso   1.000  H
  C144     1.0000 0.99300  0.53135  0.50040  Biso   1.000  C
  H96      1.0000 0.96310  0.55040  0.45350  Biso   1.000  H
  Cu10     1.0000 0.44727  0.23739  0.01299  Biso   1.000  Cu
  N19      1.0000 0.49830  0.24050  0.92297  Biso   1.000  N
  C145     1.0000 0.53430  0.19762  0.88990  Biso   1.000  C
  H97      1.0000 0.53280  0.15890  0.90710  Biso   1.000  H
  C146     1.0000 0.57440  0.20770  0.83070  Biso   1.000  C
  H98      1.0000 0.59890  0.17600  0.80860  Biso   1.000  H
  C147     1.0000 0.57820  0.26360  0.80470  Biso   1.000  C
  H99      1.0000 0.60650  0.27070  0.76550  Biso   1.000  H
  C148     1.0000 0.53910  0.31010  0.83760  Biso   1.000  C
  C149     1.0000 0.49970  0.29607  0.89600  Biso   1.000  C
  C150     1.0000 0.45850  0.34104  0.93230  Biso   1.000  C
  C151     1.0000 0.45640  0.39954  0.90820  Biso   1.000  C
  C152     1.0000 0.41420  0.44105  0.94560  Biso   1.000  C
  H100     1.0000 0.41080  0.48080  0.93130  Biso   1.000  H
  C153     1.0000 0.37770  0.42400  0.00300  Biso   1.000  C
  H101     1.0000 0.34880  0.45170  0.02820  Biso   1.000  H
  C154     1.0000 0.38410  0.36471  0.02350  Biso   1.000  C
  H102     1.0000 0.36010  0.35330  0.06370  Biso   1.000  H
  N20      1.0000 0.42250  0.32374  0.98886  Biso   1.000  N
  C155     1.0000 0.53600  0.37010  0.81370  Biso   1.000  C
  H103     1.0000 0.56180  0.38000  0.77390  Biso   1.000  H
  C156     1.0000 0.49660  0.41270  0.84750  Biso   1.000  C
  H104     1.0000 0.49560  0.45180  0.83080  Biso   1.000  H
  Cu11     1.0000 0.25319  0.13332  0.00832  Biso   1.000  Cu
  N21      1.0000 0.23000  0.07085  0.92833  Biso   1.000  N
  C157     1.0000 0.20980  0.07656  0.85470  Biso   1.000  C
  H105     1.0000 0.20220  0.11450  0.83360  Biso   1.000  H
  C158     1.0000 0.19940  0.02782  0.80670  Biso   1.000  C
  H106     1.0000 0.18630  0.03340  0.75440  Biso   1.000  H
  C159     1.0000 0.20800  0.97274  0.83550  Biso   1.000  C
  H107     1.0000 0.20110  0.94000  0.80340  Biso   1.000  H
  C160     1.0000 0.22750  0.96483  0.91360  Biso   1.000  C
  C161     1.0000 0.23850  0.01556  0.95740  Biso   1.000  C
  C162     1.0000 0.26130  0.01159  0.03790  Biso   1.000  C
  C163     1.0000 0.27030  0.95632  0.07280  Biso   1.000  C
  C164     1.0000 0.29080  0.95640  0.15140  Biso   1.000  C
  H108     1.0000 0.29710  0.92060  0.17760  Biso   1.000  H
  C165     1.0000 0.30170  0.00765  0.18980  Biso   1.000  C
  H109     1.0000 0.31520  0.00750  0.24250  Biso   1.000  H
  C166     1.0000 0.29290  0.06103  0.15080  Biso   1.000  C
  H110     1.0000 0.30120  0.09640  0.17810  Biso   1.000  H
  N22      1.0000 0.27310  0.06297  0.07629  Biso   1.000  N
  C167     1.0000 0.23760  0.90907  0.95020  Biso   1.000  C
  H111     1.0000 0.23050  0.87460  0.92120  Biso   1.000  H
  C168     1.0000 0.25710  0.90477  0.02580  Biso   1.000  C
  H112     1.0000 0.26220  0.86740  0.04820  Biso   1.000  H
  Cu12     1.0000 0.06503  0.26338  0.51568  Biso   1.000  Cu
  N23      1.0000 0.07610  0.17877  0.54919  Biso   1.000  N
  C169     1.0000 0.10260  0.13191  0.51710  Biso   1.000  C
  H113     1.0000 0.13060  0.13740  0.47730  Biso   1.000  H
  C170     1.0000 0.09070  0.07468  0.54030  Biso   1.000  C
  H114     1.0000 0.11130  0.04240  0.51690  Biso   1.000  H
  C171     1.0000 0.04880  0.06615  0.59700  Biso   1.000  C
  H115     1.0000 0.03920  0.02780  0.61240  Biso   1.000  H
  C172     1.0000 0.02000  0.11448  0.63260  Biso   1.000  C
  C173     1.0000 0.03440  0.17006  0.60540  Biso   1.000  C
  C174     1.0000 0.00300  0.22128  0.63700  Biso   1.000  C
  C175     1.0000 0.96050  0.21693  0.69620  Biso   1.000  C
  C176     1.0000 0.93310  0.26880  0.72450  Biso   1.000  C
  H116     1.0000 0.90310  0.26780  0.76370  Biso   1.000  H
  C177     1.0000 0.95010  0.32120  0.69500  Biso   1.000  C
  H117     1.0000 0.93370  0.35660  0.71490  Biso   1.000  H
  C178     1.0000 0.99160  0.32235  0.63550  Biso   1.000  C
  H118     1.0000 0.00240  0.35890  0.61560  Biso   1.000  H
  N24      1.0000 0.01670  0.27357  0.60581  Biso   1.000  N
  C179     1.0000 0.97600  0.11100  0.69320  Biso   1.000  C
  H119     1.0000 0.96670  0.07390  0.71240  Biso   1.000  H
  C180     1.0000 0.94790  0.15900  0.72300  Biso   1.000  C
  H120     1.0000 0.91910  0.15490  0.76260  Biso   1.000  H
  O25      1.0000 0.39640  0.24974  0.09873  Biso   1.000  O
  O26      1.0000 0.26470  0.18586  0.09241  Biso   1.000  O
  C181     1.0000 0.32650  0.22775  0.12160  Biso   1.000  C
  C182     1.0000 0.31500  0.25481  0.19080  Biso   1.000  C
  H121     1.0000 0.34690  0.29160  0.20640  Biso   1.000  H
  C183     1.0000 0.26210  0.23000  0.23190  Biso   1.000  C
  H122     1.0000 0.22930  0.19350  0.21610  Biso   1.000  H
  O27      1.0000 0.45504  0.15209  0.02221  Biso   1.000  O
  O28      1.0000 0.58160  0.14673  0.13628  Biso   1.000  O
  C184     1.0000 0.51950  0.12401  0.07850  Biso   1.000  C
  C185     1.0000 0.52020  0.05926  0.07020  Biso   1.000  C
  H123     1.0000 0.53990  0.03640  0.11470  Biso   1.000  H
  C186     1.0000 0.49480  0.03116  0.00390  Biso   1.000  C
  H124     1.0000 0.46840  0.05360  0.95940  Biso   1.000  H
  O29      1.0000 0.24707  0.30545  0.43473  Biso   1.000  O
  O30      1.0000 0.11860  0.24140  0.43467  Biso   1.000  O
  C187     1.0000 0.18720  0.26202  0.40890  Biso   1.000  C
  C188     1.0000 0.19910  0.23261  0.34190  Biso   1.000  C
  H125     1.0000 0.16760  0.19550  0.32820  Biso   1.000  H
  C189     1.0000 0.25220  0.25609  0.29990  Biso   1.000  C
  H126     1.0000 0.28600  0.29240  0.31560  Biso   1.000  H
  O31      1.0000 0.05834  0.15285  0.99335  Biso   1.000  O
  O32      1.0000 0.91340  0.15635  0.88911  Biso   1.000  O
  C190     1.0000 0.98400  0.12895  0.93850  Biso   1.000  C
  C191     1.0000 0.98070  0.06429  0.93720  Biso   1.000  C
  H127     1.0000 0.95900  0.04530  0.88980  Biso   1.000  H
  C192     1.0000 0.00700  0.03135  0.99960  Biso   1.000  C
  H128     1.0000 0.03690  0.05040  0.04650  Biso   1.000  H
