data_image0
_cell_length_a       23.458
_cell_length_b       7.5546
_cell_length_c       16.518
_cell_angle_alpha    90
_cell_angle_beta     90
_cell_angle_gamma    90

_symmetry_space_group_name_H-M    "P 1"
_symmetry_int_tables_number       1

loop_
  _symmetry_equiv_pos_as_xyz
  'x, y, z'

loop_
  _atom_site_label
  _atom_site_occupancy
  _atom_site_fract_x
  _atom_site_fract_y
  _atom_site_fract_z
  _atom_site_thermal_displace_type
  _atom_site_B_iso_or_equiv
  _atom_site_type_symbol
  Ag1      1.0000 0.14263  0.11973  0.56512  Biso   1.000  Ag
  S1       1.0000 0.22232  0.66230  0.04066  Biso   1.000  S
  S2       1.0000 0.15399  0.79110  0.65794  Biso   1.000  S
  C1       1.0000 0.23990  0.74780  0.13580  Biso   1.000  C
  C2       1.0000 0.31010  0.81720  0.22040  Biso   1.000  C
  H1       1.0000 0.34860  0.83270  0.23180  Biso   1.000  H
  C3       1.0000 0.27180  0.86540  0.27780  Biso   1.000  C
  H2       1.0000 0.28360  0.90640  0.32820  Biso   1.000  H
  C4       1.0000 0.21550  0.85160  0.25900  Biso   1.000  C
  C5       1.0000 0.16740  0.89650  0.31590  Biso   1.000  C
  C6       1.0000 0.11060  0.85170  0.29490  Biso   1.000  C
  H3       1.0000 0.10250  0.79910  0.24530  Biso   1.000  H
  C7       1.0000 0.06840  0.88600  0.34780  Biso   1.000  C
  H4       1.0000 0.03110  0.85560  0.33490  Biso   1.000  H
  C8       1.0000 0.07960  0.96370  0.41830  Biso   1.000  C
  H5       1.0000 0.04950  0.98980  0.45290  Biso   1.000  H
  C9       1.0000 0.17460  0.96920  0.38870  Biso   1.000  C
  H6       1.0000 0.21160  0.99680  0.40430  Biso   1.000  H
  C10      1.0000 0.14730  0.68970  0.04190  Biso   1.000  C
  H7       1.0000 0.13010  0.60700  0.07960  Biso   1.000  H
  H8       1.0000 0.13750  0.80900  0.05860  Biso   1.000  H
  C11      1.0000 0.12540  0.65400  0.95430  Biso   1.000  C
  C12      1.0000 0.13520  0.76320  0.89280  Biso   1.000  C
  H9       1.0000 0.15670  0.86500  0.90170  Biso   1.000  H
  C13      1.0000 0.11420  0.72900  0.81520  Biso   1.000  C
  C14      1.0000 0.08240  0.59160  0.80040  Biso   1.000  C
  H10      1.0000 0.06510  0.57960  0.75000  Biso   1.000  H
  C15      1.0000 0.07380  0.46030  0.86020  Biso   1.000  C
  H11      1.0000 0.05440  0.35620  0.84820  Biso   1.000  H
  C16      1.0000 0.09450  0.49000  0.93560  Biso   1.000  C
  H12      1.0000 0.08900  0.40570  0.97590  Biso   1.000  H
  C17      1.0000 0.12400  0.87070  0.75140  Biso   1.000  C
  H13      1.0000 0.14920  0.95990  0.77370  Biso   1.000  H
  H14      1.0000 0.08780  0.92750  0.73970  Biso   1.000  H
  C18      1.0000 0.22860  0.78440  0.67670  Biso   1.000  C
  C19      1.0000 0.31300  0.71600  0.62670  Biso   1.000  C
  H15      1.0000 0.33560  0.67450  0.58450  Biso   1.000  H
  C20      1.0000 0.33950  0.77630  0.69120  Biso   1.000  C
  H16      1.0000 0.37910  0.77660  0.69450  Biso   1.000  H
  C21      1.0000 0.30530  0.84100  0.75550  Biso   1.000  C
  C22      1.0000 0.32900  0.91210  0.83190  Biso   1.000  C
  C23      1.0000 0.29360  0.96190  0.89080  Biso   1.000  C
  H17      1.0000 0.25440  0.96070  0.88320  Biso   1.000  H
  C24      1.0000 0.31720  0.01560  0.96360  Biso   1.000  C
  H18      1.0000 0.29330  0.04090  0.00710  Biso   1.000  H
  C25      1.0000 0.37380  0.03160  0.97240  Biso   1.000  C
  H19      1.0000 0.38790  0.07800  0.02060  Biso   1.000  H
  C26      1.0000 0.38710  0.92760  0.84780  Biso   1.000  C
  H20      1.0000 0.41180  0.89460  0.80640  Biso   1.000  H
  N1       1.0000 0.29630  0.74980  0.14940  Biso   1.000  N
  N2       1.0000 0.19890  0.78620  0.18700  Biso   1.000  N
  N3       1.0000 0.13250  0.00540  0.44120  Biso   1.000  N
  N4       1.0000 0.25740  0.70890  0.61610  Biso   1.000  N
  N5       1.0000 0.24950  0.85070  0.74710  Biso   1.000  N
  N6       1.0000 0.41060  0.98430  0.91540  Biso   1.000  N
  Ag2      1.0000 0.85737  0.88027  0.56512  Biso   1.000  Ag
  S3       1.0000 0.77768  0.33770  0.04066  Biso   1.000  S
  S4       1.0000 0.84601  0.20890  0.65794  Biso   1.000  S
  C27      1.0000 0.76010  0.25220  0.13580  Biso   1.000  C
  C28      1.0000 0.68990  0.18280  0.22040  Biso   1.000  C
  H21      1.0000 0.65140  0.16730  0.23180  Biso   1.000  H
  C29      1.0000 0.72820  0.13460  0.27780  Biso   1.000  C
  H22      1.0000 0.71640  0.09360  0.32820  Biso   1.000  H
  C30      1.0000 0.78450  0.14840  0.25900  Biso   1.000  C
  C31      1.0000 0.83260  0.10350  0.31590  Biso   1.000  C
  C32      1.0000 0.88940  0.14830  0.29490  Biso   1.000  C
  H23      1.0000 0.89750  0.20090  0.24530  Biso   1.000  H
  C33      1.0000 0.93160  0.11400  0.34780  Biso   1.000  C
  H24      1.0000 0.96890  0.14440  0.33490  Biso   1.000  H
  C34      1.0000 0.92040  0.03630  0.41830  Biso   1.000  C
  H25      1.0000 0.95050  0.01020  0.45290  Biso   1.000  H
  C35      1.0000 0.82540  0.03080  0.38870  Biso   1.000  C
  H26      1.0000 0.78840  0.00320  0.40430  Biso   1.000  H
  C36      1.0000 0.85270  0.31030  0.04190  Biso   1.000  C
  H27      1.0000 0.86990  0.39300  0.07960  Biso   1.000  H
  H28      1.0000 0.86250  0.19100  0.05860  Biso   1.000  H
  C37      1.0000 0.87460  0.34600  0.95430  Biso   1.000  C
  C38      1.0000 0.86480  0.23680  0.89280  Biso   1.000  C
  H29      1.0000 0.84330  0.13500  0.90170  Biso   1.000  H
  C39      1.0000 0.88580  0.27100  0.81520  Biso   1.000  C
  C40      1.0000 0.91760  0.40840  0.80040  Biso   1.000  C
  H30      1.0000 0.93490  0.42040  0.75000  Biso   1.000  H
  C41      1.0000 0.92620  0.53970  0.86020  Biso   1.000  C
  H31      1.0000 0.94560  0.64380  0.84820  Biso   1.000  H
  C42      1.0000 0.90550  0.51000  0.93560  Biso   1.000  C
  H32      1.0000 0.91100  0.59430  0.97590  Biso   1.000  H
  C43      1.0000 0.87600  0.12930  0.75140  Biso   1.000  C
  H33      1.0000 0.85080  0.04010  0.77370  Biso   1.000  H
  H34      1.0000 0.91220  0.07250  0.73970  Biso   1.000  H
  C44      1.0000 0.77140  0.21560  0.67670  Biso   1.000  C
  C45      1.0000 0.68700  0.28400  0.62670  Biso   1.000  C
  H35      1.0000 0.66440  0.32550  0.58450  Biso   1.000  H
  C46      1.0000 0.66050  0.22370  0.69120  Biso   1.000  C
  H36      1.0000 0.62090  0.22340  0.69450  Biso   1.000  H
  C47      1.0000 0.69470  0.15900  0.75550  Biso   1.000  C
  C48      1.0000 0.67100  0.08790  0.83190  Biso   1.000  C
  C49      1.0000 0.70640  0.03810  0.89080  Biso   1.000  C
  H37      1.0000 0.74560  0.03930  0.88320  Biso   1.000  H
  C50      1.0000 0.68280  0.98440  0.96360  Biso   1.000  C
  H38      1.0000 0.70670  0.95910  0.00710  Biso   1.000  H
  C51      1.0000 0.62620  0.96840  0.97240  Biso   1.000  C
  H39      1.0000 0.61210  0.92200  0.02060  Biso   1.000  H
  C52      1.0000 0.61290  0.07240  0.84780  Biso   1.000  C
  H40      1.0000 0.58820  0.10540  0.80640  Biso   1.000  H
  N7       1.0000 0.70370  0.25020  0.14940  Biso   1.000  N
  N8       1.0000 0.80110  0.21380  0.18700  Biso   1.000  N
  N9       1.0000 0.86750  0.99460  0.44120  Biso   1.000  N
  N10      1.0000 0.74260  0.29110  0.61610  Biso   1.000  N
  N11      1.0000 0.75050  0.14930  0.74710  Biso   1.000  N
  N12      1.0000 0.58940  0.01570  0.91540  Biso   1.000  N
  Ag3      1.0000 0.64263  0.38027  0.06512  Biso   1.000  Ag
  S5       1.0000 0.72232  0.83770  0.54066  Biso   1.000  S
  S6       1.0000 0.65399  0.70890  0.15794  Biso   1.000  S
  C53      1.0000 0.73990  0.75220  0.63580  Biso   1.000  C
  C54      1.0000 0.81010  0.68280  0.72040  Biso   1.000  C
  H41      1.0000 0.84860  0.66730  0.73180  Biso   1.000  H
  C55      1.0000 0.77180  0.63460  0.77780  Biso   1.000  C
  H42      1.0000 0.78360  0.59360  0.82820  Biso   1.000  H
  C56      1.0000 0.71550  0.64840  0.75900  Biso   1.000  C
  C57      1.0000 0.66740  0.60350  0.81590  Biso   1.000  C
  C58      1.0000 0.61060  0.64830  0.79490  Biso   1.000  C
  H43      1.0000 0.60250  0.70090  0.74530  Biso   1.000  H
  C59      1.0000 0.56840  0.61400  0.84780  Biso   1.000  C
  H44      1.0000 0.53110  0.64440  0.83490  Biso   1.000  H
  C60      1.0000 0.57960  0.53630  0.91830  Biso   1.000  C
  H45      1.0000 0.54950  0.51020  0.95290  Biso   1.000  H
  C61      1.0000 0.67460  0.53080  0.88870  Biso   1.000  C
  H46      1.0000 0.71160  0.50320  0.90430  Biso   1.000  H
  C62      1.0000 0.64730  0.81030  0.54190  Biso   1.000  C
  H47      1.0000 0.63010  0.89300  0.57960  Biso   1.000  H
  H48      1.0000 0.63750  0.69100  0.55860  Biso   1.000  H
  C63      1.0000 0.62540  0.84600  0.45430  Biso   1.000  C
  C64      1.0000 0.63520  0.73680  0.39280  Biso   1.000  C
  H49      1.0000 0.65670  0.63500  0.40170  Biso   1.000  H
  C65      1.0000 0.61420  0.77100  0.31520  Biso   1.000  C
  C66      1.0000 0.58240  0.90840  0.30040  Biso   1.000  C
  H50      1.0000 0.56510  0.92040  0.25000  Biso   1.000  H
  C67      1.0000 0.57380  0.03970  0.36020  Biso   1.000  C
  H51      1.0000 0.55440  0.14380  0.34820  Biso   1.000  H
  C68      1.0000 0.59450  0.01000  0.43560  Biso   1.000  C
  H52      1.0000 0.58900  0.09430  0.47590  Biso   1.000  H
  C69      1.0000 0.62400  0.62930  0.25140  Biso   1.000  C
  H53      1.0000 0.64920  0.54010  0.27370  Biso   1.000  H
  H54      1.0000 0.58780  0.57250  0.23970  Biso   1.000  H
  C70      1.0000 0.72860  0.71560  0.17670  Biso   1.000  C
  C71      1.0000 0.81300  0.78400  0.12670  Biso   1.000  C
  H55      1.0000 0.83560  0.82550  0.08450  Biso   1.000  H
  C72      1.0000 0.83950  0.72370  0.19120  Biso   1.000  C
  H56      1.0000 0.87910  0.72340  0.19450  Biso   1.000  H
  C73      1.0000 0.80530  0.65900  0.25550  Biso   1.000  C
  C74      1.0000 0.82900  0.58790  0.33190  Biso   1.000  C
  C75      1.0000 0.79360  0.53810  0.39080  Biso   1.000  C
  H57      1.0000 0.75440  0.53930  0.38320  Biso   1.000  H
  C76      1.0000 0.81720  0.48440  0.46360  Biso   1.000  C
  H58      1.0000 0.79330  0.45910  0.50710  Biso   1.000  H
  C77      1.0000 0.87380  0.46840  0.47240  Biso   1.000  C
  H59      1.0000 0.88790  0.42200  0.52060  Biso   1.000  H
  C78      1.0000 0.88710  0.57240  0.34780  Biso   1.000  C
  H60      1.0000 0.91180  0.60540  0.30640  Biso   1.000  H
  N13      1.0000 0.79630  0.75020  0.64940  Biso   1.000  N
  N14      1.0000 0.69890  0.71380  0.68700  Biso   1.000  N
  N15      1.0000 0.63250  0.49460  0.94120  Biso   1.000  N
  N16      1.0000 0.75740  0.79110  0.11610  Biso   1.000  N
  N17      1.0000 0.74950  0.64930  0.24710  Biso   1.000  N
  N18      1.0000 0.91060  0.51570  0.41540  Biso   1.000  N
  Ag4      1.0000 0.35737  0.61973  0.06512  Biso   1.000  Ag
  S7       1.0000 0.27768  0.16230  0.54066  Biso   1.000  S
  S8       1.0000 0.34601  0.29110  0.15794  Biso   1.000  S
  C79      1.0000 0.26010  0.24780  0.63580  Biso   1.000  C
  C80      1.0000 0.18990  0.31720  0.72040  Biso   1.000  C
  H61      1.0000 0.15140  0.33270  0.73180  Biso   1.000  H
  C81      1.0000 0.22820  0.36540  0.77780  Biso   1.000  C
  H62      1.0000 0.21640  0.40640  0.82820  Biso   1.000  H
  C82      1.0000 0.28450  0.35160  0.75900  Biso   1.000  C
  C83      1.0000 0.33260  0.39650  0.81590  Biso   1.000  C
  C84      1.0000 0.38940  0.35170  0.79490  Biso   1.000  C
  H63      1.0000 0.39750  0.29910  0.74530  Biso   1.000  H
  C85      1.0000 0.43160  0.38600  0.84780  Biso   1.000  C
  H64      1.0000 0.46890  0.35560  0.83490  Biso   1.000  H
  C86      1.0000 0.42040  0.46370  0.91830  Biso   1.000  C
  H65      1.0000 0.45050  0.48980  0.95290  Biso   1.000  H
  C87      1.0000 0.32540  0.46920  0.88870  Biso   1.000  C
  H66      1.0000 0.28840  0.49680  0.90430  Biso   1.000  H
  C88      1.0000 0.35270  0.18970  0.54190  Biso   1.000  C
  H67      1.0000 0.36990  0.10700  0.57960  Biso   1.000  H
  H68      1.0000 0.36250  0.30900  0.55860  Biso   1.000  H
  C89      1.0000 0.37460  0.15400  0.45430  Biso   1.000  C
  C90      1.0000 0.36480  0.26320  0.39280  Biso   1.000  C
  H69      1.0000 0.34330  0.36500  0.40170  Biso   1.000  H
  C91      1.0000 0.38580  0.22900  0.31520  Biso   1.000  C
  C92      1.0000 0.41760  0.09160  0.30040  Biso   1.000  C
  H70      1.0000 0.43490  0.07960  0.25000  Biso   1.000  H
  C93      1.0000 0.42620  0.96030  0.36020  Biso   1.000  C
  H71      1.0000 0.44560  0.85620  0.34820  Biso   1.000  H
  C94      1.0000 0.40550  0.99000  0.43560  Biso   1.000  C
  H72      1.0000 0.41100  0.90570  0.47590  Biso   1.000  H
  C95      1.0000 0.37600  0.37070  0.25140  Biso   1.000  C
  H73      1.0000 0.35080  0.45990  0.27370  Biso   1.000  H
  H74      1.0000 0.41220  0.42750  0.23970  Biso   1.000  H
  C96      1.0000 0.27140  0.28440  0.17670  Biso   1.000  C
  C97      1.0000 0.18700  0.21600  0.12670  Biso   1.000  C
  H75      1.0000 0.16440  0.17450  0.08450  Biso   1.000  H
  C98      1.0000 0.16050  0.27630  0.19120  Biso   1.000  C
  H76      1.0000 0.12090  0.27660  0.19450  Biso   1.000  H
  C99      1.0000 0.19470  0.34100  0.25550  Biso   1.000  C
  C100     1.0000 0.17100  0.41210  0.33190  Biso   1.000  C
  C101     1.0000 0.20640  0.46190  0.39080  Biso   1.000  C
  H77      1.0000 0.24560  0.46070  0.38320  Biso   1.000  H
  C102     1.0000 0.18280  0.51560  0.46360  Biso   1.000  C
  H78      1.0000 0.20670  0.54090  0.50710  Biso   1.000  H
  C103     1.0000 0.12620  0.53160  0.47240  Biso   1.000  C
  H79      1.0000 0.11210  0.57800  0.52060  Biso   1.000  H
  C104     1.0000 0.11290  0.42760  0.34780  Biso   1.000  C
  H80      1.0000 0.08820  0.39460  0.30640  Biso   1.000  H
  N19      1.0000 0.20370  0.24980  0.64940  Biso   1.000  N
  N20      1.0000 0.30110  0.28620  0.68700  Biso   1.000  N
  N21      1.0000 0.36750  0.50540  0.94120  Biso   1.000  N
  N22      1.0000 0.24260  0.20890  0.11610  Biso   1.000  N
  N23      1.0000 0.25050  0.35070  0.24710  Biso   1.000  N
  N24      1.0000 0.08940  0.48430  0.41540  Biso   1.000  N
  Ag5      1.0000 0.50000  0.00000  0.93341  Biso   1.000  Ag
  Ag6      1.0000 0.00000  0.50000  0.43341  Biso   1.000  Ag
