data_image0
_cell_length_a       9.638
_cell_length_b       15.443
_cell_length_c       18.717
_cell_angle_alpha    90
_cell_angle_beta     90
_cell_angle_gamma    90

_symmetry_space_group_name_H-M    "P 1"
_symmetry_int_tables_number       1

loop_
  _symmetry_equiv_pos_as_xyz
  'x, y, z'

loop_
  _atom_site_label
  _atom_site_occupancy
  _atom_site_fract_x
  _atom_site_fract_y
  _atom_site_fract_z
  _atom_site_thermal_displace_type
  _atom_site_B_iso_or_equiv
  _atom_site_type_symbol
  Cd1      1.0000 0.11647  0.78310  0.93902  Biso   1.000  Cd
  C1       1.0000 0.41810  0.85540  0.98340  Biso   1.000  C
  H1       1.0000 0.35750  0.89270  0.00690  Biso   1.000  H
  C2       1.0000 0.55700  0.86990  0.99090  Biso   1.000  C
  H2       1.0000 0.58890  0.91620  0.01810  Biso   1.000  H
  C3       1.0000 0.64890  0.81530  0.95770  Biso   1.000  C
  C4       1.0000 0.59300  0.74850  0.91830  Biso   1.000  C
  H3       1.0000 0.65140  0.70950  0.89530  Biso   1.000  H
  C5       1.0000 0.45270  0.73900  0.91280  Biso   1.000  C
  H4       1.0000 0.41830  0.69370  0.88520  Biso   1.000  H
  C6       1.0000 0.80190  0.83110  0.96310  Biso   1.000  C
  C7       1.0000 0.05070  0.82730  0.29940  Biso   1.000  C
  H5       1.0000 0.99360  0.85340  0.33320  Biso   1.000  H
  C8       1.0000 0.04640  0.85770  0.23060  Biso   1.000  C
  H6       1.0000 0.99010  0.90440  0.21870  Biso   1.000  H
  C9       1.0000 0.12570  0.81830  0.18000  Biso   1.000  C
  C10      1.0000 0.20870  0.75030  0.20090  Biso   1.000  C
  H7       1.0000 0.26310  0.72130  0.16760  Biso   1.000  H
  C11      1.0000 0.21050  0.72560  0.27150  Biso   1.000  C
  H8       1.0000 0.26930  0.68080  0.28520  Biso   1.000  H
  C12      1.0000 0.11890  0.84720  0.10310  Biso   1.000  C
  C13      1.0000 0.10820  0.59750  0.02260  Biso   1.000  C
  C14      1.0000 0.03710  0.54940  0.13130  Biso   1.000  C
  H9       1.0000 0.97540  0.50220  0.14400  Biso   1.000  H
  H10      1.0000 0.03550  0.59250  0.16900  Biso   1.000  H
  C15      1.0000 0.17970  0.51740  0.11880  Biso   1.000  C
  H11      1.0000 0.24120  0.53340  0.15760  Biso   1.000  H
  H12      1.0000 0.18130  0.45500  0.11290  Biso   1.000  H
  C16      1.0000 0.86930  0.63130  0.05390  Biso   1.000  C
  H13      1.0000 0.80460  0.61390  0.09010  Biso   1.000  H
  H14      1.0000 0.83250  0.61710  0.00770  Biso   1.000  H
  H15      1.0000 0.88450  0.69260  0.05680  Biso   1.000  H
  C17      1.0000 0.34910  0.55080  0.02090  Biso   1.000  C
  H16      1.0000 0.41160  0.52280  0.05340  Biso   1.000  H
  H17      1.0000 0.38520  0.60680  0.00840  Biso   1.000  H
  H18      1.0000 0.33960  0.51630  0.97850  Biso   1.000  H
  N1       1.0000 0.36350  0.79130  0.94480  Biso   1.000  N
  N2       1.0000 0.13210  0.76270  0.32060  Biso   1.000  N
  N3       1.0000 0.12120  0.92850  0.91490  Biso   1.000  N
  N4       1.0000 0.17100  0.96320  0.86670  Biso   1.000  N
  N5       1.0000 0.21500  0.99760  0.81810  Biso   1.000  N
  N6       1.0000 0.99840  0.58660  0.06430  Biso   1.000  N
  N7       1.0000 0.21670  0.56070  0.05400  Biso   1.000  N
  O1       1.0000 0.10660  0.92590  0.09189  Biso   1.000  O
  O2       1.0000 0.12880  0.78830  0.05798  Biso   1.000  O
  O3       1.0000 0.83880  0.89290  0.00070  Biso   1.000  O
  O4       1.0000 0.87950  0.78040  0.92967  Biso   1.000  O
  O5       1.0000 0.10950  0.63430  0.96279  Biso   1.000  O
  Cd2      1.0000 0.88353  0.28310  0.56098  Biso   1.000  Cd
  C18      1.0000 0.58190  0.35540  0.51660  Biso   1.000  C
  H19      1.0000 0.64250  0.39270  0.49310  Biso   1.000  H
  C19      1.0000 0.44300  0.36990  0.50910  Biso   1.000  C
  H20      1.0000 0.41110  0.41620  0.48190  Biso   1.000  H
  C20      1.0000 0.35110  0.31530  0.54230  Biso   1.000  C
  C21      1.0000 0.40700  0.24850  0.58170  Biso   1.000  C
  H21      1.0000 0.34860  0.20950  0.60470  Biso   1.000  H
  C22      1.0000 0.54730  0.23900  0.58720  Biso   1.000  C
  H22      1.0000 0.58170  0.19370  0.61480  Biso   1.000  H
  C23      1.0000 0.19810  0.33110  0.53690  Biso   1.000  C
  C24      1.0000 0.94930  0.32730  0.20060  Biso   1.000  C
  H23      1.0000 0.00640  0.35340  0.16680  Biso   1.000  H
  C25      1.0000 0.95360  0.35770  0.26940  Biso   1.000  C
  H24      1.0000 0.00990  0.40440  0.28130  Biso   1.000  H
  C26      1.0000 0.87430  0.31830  0.32000  Biso   1.000  C
  C27      1.0000 0.79130  0.25030  0.29910  Biso   1.000  C
  H25      1.0000 0.73690  0.22130  0.33240  Biso   1.000  H
  C28      1.0000 0.78950  0.22560  0.22850  Biso   1.000  C
  H26      1.0000 0.73070  0.18080  0.21480  Biso   1.000  H
  C29      1.0000 0.88110  0.34720  0.39690  Biso   1.000  C
  C30      1.0000 0.89180  0.09750  0.47740  Biso   1.000  C
  C31      1.0000 0.96290  0.04940  0.36870  Biso   1.000  C
  H27      1.0000 0.02460  0.00220  0.35600  Biso   1.000  H
  H28      1.0000 0.96450  0.09250  0.33100  Biso   1.000  H
  C32      1.0000 0.82030  0.01740  0.38120  Biso   1.000  C
  H29      1.0000 0.75880  0.03340  0.34240  Biso   1.000  H
  H30      1.0000 0.81870  0.95500  0.38710  Biso   1.000  H
  C33      1.0000 0.13070  0.13130  0.44610  Biso   1.000  C
  H31      1.0000 0.19540  0.11390  0.40990  Biso   1.000  H
  H32      1.0000 0.16750  0.11710  0.49230  Biso   1.000  H
  H33      1.0000 0.11550  0.19260  0.44320  Biso   1.000  H
  C34      1.0000 0.65090  0.05080  0.47910  Biso   1.000  C
  H34      1.0000 0.58840  0.02280  0.44660  Biso   1.000  H
  H35      1.0000 0.61480  0.10680  0.49160  Biso   1.000  H
  H36      1.0000 0.66040  0.01630  0.52150  Biso   1.000  H
  N8       1.0000 0.63650  0.29130  0.55520  Biso   1.000  N
  N9       1.0000 0.86790  0.26270  0.17940  Biso   1.000  N
  N10      1.0000 0.87880  0.42850  0.58510  Biso   1.000  N
  N11      1.0000 0.82900  0.46320  0.63330  Biso   1.000  N
  N12      1.0000 0.78500  0.49760  0.68190  Biso   1.000  N
  N13      1.0000 0.00160  0.08660  0.43570  Biso   1.000  N
  N14      1.0000 0.78330  0.06070  0.44600  Biso   1.000  N
  O6       1.0000 0.89340  0.42590  0.40811  Biso   1.000  O
  O7       1.0000 0.87120  0.28830  0.44202  Biso   1.000  O
  O8       1.0000 0.16120  0.39290  0.49930  Biso   1.000  O
  O9       1.0000 0.12050  0.28040  0.57033  Biso   1.000  O
  O10      1.0000 0.89050  0.13430  0.53721  Biso   1.000  O
  Cd3      1.0000 0.88353  0.21690  0.06098  Biso   1.000  Cd
  C35      1.0000 0.58190  0.14460  0.01660  Biso   1.000  C
  H37      1.0000 0.64250  0.10730  0.99310  Biso   1.000  H
  C36      1.0000 0.44300  0.13010  0.00910  Biso   1.000  C
  H38      1.0000 0.41110  0.08380  0.98190  Biso   1.000  H
  C37      1.0000 0.35110  0.18470  0.04230  Biso   1.000  C
  C38      1.0000 0.40700  0.25150  0.08170  Biso   1.000  C
  H39      1.0000 0.34860  0.29050  0.10470  Biso   1.000  H
  C39      1.0000 0.54730  0.26100  0.08720  Biso   1.000  C
  H40      1.0000 0.58170  0.30630  0.11480  Biso   1.000  H
  C40      1.0000 0.19810  0.16890  0.03690  Biso   1.000  C
  C41      1.0000 0.94930  0.17270  0.70060  Biso   1.000  C
  H41      1.0000 0.00640  0.14660  0.66680  Biso   1.000  H
  C42      1.0000 0.95360  0.14230  0.76940  Biso   1.000  C
  H42      1.0000 0.00990  0.09560  0.78130  Biso   1.000  H
  C43      1.0000 0.87430  0.18170  0.82000  Biso   1.000  C
  C44      1.0000 0.79130  0.24970  0.79910  Biso   1.000  C
  H43      1.0000 0.73690  0.27870  0.83240  Biso   1.000  H
  C45      1.0000 0.78950  0.27440  0.72850  Biso   1.000  C
  H44      1.0000 0.73070  0.31920  0.71480  Biso   1.000  H
  C46      1.0000 0.88110  0.15280  0.89690  Biso   1.000  C
  C47      1.0000 0.89180  0.40250  0.97740  Biso   1.000  C
  C48      1.0000 0.96290  0.45060  0.86870  Biso   1.000  C
  H45      1.0000 0.02460  0.49780  0.85600  Biso   1.000  H
  H46      1.0000 0.96450  0.40750  0.83100  Biso   1.000  H
  C49      1.0000 0.82030  0.48260  0.88120  Biso   1.000  C
  H47      1.0000 0.75880  0.46660  0.84240  Biso   1.000  H
  H48      1.0000 0.81870  0.54500  0.88710  Biso   1.000  H
  C50      1.0000 0.13070  0.36870  0.94610  Biso   1.000  C
  H49      1.0000 0.19540  0.38610  0.90990  Biso   1.000  H
  H50      1.0000 0.16750  0.38290  0.99230  Biso   1.000  H
  H51      1.0000 0.11550  0.30740  0.94320  Biso   1.000  H
  C51      1.0000 0.65090  0.44920  0.97910  Biso   1.000  C
  H52      1.0000 0.58840  0.47720  0.94660  Biso   1.000  H
  H53      1.0000 0.61480  0.39320  0.99160  Biso   1.000  H
  H54      1.0000 0.66040  0.48370  0.02150  Biso   1.000  H
  N15      1.0000 0.63650  0.20870  0.05520  Biso   1.000  N
  N16      1.0000 0.86790  0.23730  0.67940  Biso   1.000  N
  N17      1.0000 0.87880  0.07150  0.08510  Biso   1.000  N
  N18      1.0000 0.82900  0.03680  0.13330  Biso   1.000  N
  N19      1.0000 0.78500  0.00240  0.18190  Biso   1.000  N
  N20      1.0000 0.00160  0.41340  0.93570  Biso   1.000  N
  N21      1.0000 0.78330  0.43930  0.94600  Biso   1.000  N
  O11      1.0000 0.89340  0.07410  0.90811  Biso   1.000  O
  O12      1.0000 0.87120  0.21170  0.94202  Biso   1.000  O
  O13      1.0000 0.16120  0.10710  0.99930  Biso   1.000  O
  O14      1.0000 0.12050  0.21960  0.07033  Biso   1.000  O
  O15      1.0000 0.89050  0.36570  0.03721  Biso   1.000  O
  Cd4      1.0000 0.11647  0.71690  0.43902  Biso   1.000  Cd
  C52      1.0000 0.41810  0.64460  0.48340  Biso   1.000  C
  H55      1.0000 0.35750  0.60730  0.50690  Biso   1.000  H
  C53      1.0000 0.55700  0.63010  0.49090  Biso   1.000  C
  H56      1.0000 0.58890  0.58380  0.51810  Biso   1.000  H
  C54      1.0000 0.64890  0.68470  0.45770  Biso   1.000  C
  C55      1.0000 0.59300  0.75150  0.41830  Biso   1.000  C
  H57      1.0000 0.65140  0.79050  0.39530  Biso   1.000  H
  C56      1.0000 0.45270  0.76100  0.41280  Biso   1.000  C
  H58      1.0000 0.41830  0.80630  0.38520  Biso   1.000  H
  C57      1.0000 0.80190  0.66890  0.46310  Biso   1.000  C
  C58      1.0000 0.05070  0.67270  0.79940  Biso   1.000  C
  H59      1.0000 0.99360  0.64660  0.83320  Biso   1.000  H
  C59      1.0000 0.04640  0.64230  0.73060  Biso   1.000  C
  H60      1.0000 0.99010  0.59560  0.71870  Biso   1.000  H
  C60      1.0000 0.12570  0.68170  0.68000  Biso   1.000  C
  C61      1.0000 0.20870  0.74970  0.70090  Biso   1.000  C
  H61      1.0000 0.26310  0.77870  0.66760  Biso   1.000  H
  C62      1.0000 0.21050  0.77440  0.77150  Biso   1.000  C
  H62      1.0000 0.26930  0.81920  0.78520  Biso   1.000  H
  C63      1.0000 0.11890  0.65280  0.60310  Biso   1.000  C
  C64      1.0000 0.10820  0.90250  0.52260  Biso   1.000  C
  C65      1.0000 0.03710  0.95060  0.63130  Biso   1.000  C
  H63      1.0000 0.97540  0.99780  0.64400  Biso   1.000  H
  H64      1.0000 0.03550  0.90750  0.66900  Biso   1.000  H
  C66      1.0000 0.17970  0.98260  0.61880  Biso   1.000  C
  H65      1.0000 0.24120  0.96660  0.65760  Biso   1.000  H
  H66      1.0000 0.18130  0.04500  0.61290  Biso   1.000  H
  C67      1.0000 0.86930  0.86870  0.55390  Biso   1.000  C
  H67      1.0000 0.80460  0.88610  0.59010  Biso   1.000  H
  H68      1.0000 0.83250  0.88290  0.50770  Biso   1.000  H
  H69      1.0000 0.88450  0.80740  0.55680  Biso   1.000  H
  C68      1.0000 0.34910  0.94920  0.52090  Biso   1.000  C
  H70      1.0000 0.41160  0.97720  0.55340  Biso   1.000  H
  H71      1.0000 0.38520  0.89320  0.50840  Biso   1.000  H
  H72      1.0000 0.33960  0.98370  0.47850  Biso   1.000  H
  N22      1.0000 0.36350  0.70870  0.44480  Biso   1.000  N
  N23      1.0000 0.13210  0.73730  0.82060  Biso   1.000  N
  N24      1.0000 0.12120  0.57150  0.41490  Biso   1.000  N
  N25      1.0000 0.17100  0.53680  0.36670  Biso   1.000  N
  N26      1.0000 0.21500  0.50240  0.31810  Biso   1.000  N
  N27      1.0000 0.99840  0.91340  0.56430  Biso   1.000  N
  N28      1.0000 0.21670  0.93930  0.55400  Biso   1.000  N
  O16      1.0000 0.10660  0.57410  0.59189  Biso   1.000  O
  O17      1.0000 0.12880  0.71170  0.55798  Biso   1.000  O
  O18      1.0000 0.83880  0.60710  0.50070  Biso   1.000  O
  O19      1.0000 0.87950  0.71960  0.42967  Biso   1.000  O
  O20      1.0000 0.10950  0.86570  0.46279  Biso   1.000  O
  Cd5      1.0000 0.00000  0.00000  0.00000  Biso   1.000  Cd
  Cd6      1.0000 0.00000  0.50000  0.50000  Biso   1.000  Cd
