data_image0
_cell_length_a       11.077
_cell_length_b       14.8156
_cell_length_c       13.4336
_cell_angle_alpha    99.046
_cell_angle_beta     90
_cell_angle_gamma    90

_symmetry_space_group_name_H-M    P 1
_symmetry_int_tables_number       1

loop_
  _symmetry_equiv_pos_as_xyz
  'x, y, z'

loop_
  _atom_site_label
  _atom_site_occupancy
  _atom_site_fract_x
  _atom_site_fract_y
  _atom_site_fract_z
  _atom_site_thermal_displace_type
  _atom_site_B_iso_or_equiv
  _atom_site_type_symbol
  Ni1      1.0000 0.99863  0.95653  0.88825  Biso   1.000  Ni
  Ni2      1.0000 0.14819  0.86488  0.09248  Biso   1.000  Ni
  Ni3      1.0000 0.49863  0.04347  0.61175  Biso   1.000  Ni
  Ni4      1.0000 0.64819  0.13512  0.40752  Biso   1.000  Ni
  Ni5      1.0000 0.00137  0.04347  0.11175  Biso   1.000  Ni
  Ni6      1.0000 0.85181  0.13512  0.90752  Biso   1.000  Ni
  Ni7      1.0000 0.50137  0.95653  0.38825  Biso   1.000  Ni
  Ni8      1.0000 0.35181  0.86488  0.59248  Biso   1.000  Ni
  H1       1.0000 0.88700  0.81740  0.84300  Biso   1.000  H
  H2       1.0000 0.94800  0.83290  0.75710  Biso   1.000  H
  H3       1.0000 0.30700  0.87600  0.21600  Biso   1.000  H
  H4       1.0000 0.35350  0.82700  0.12670  Biso   1.000  H
  H5       1.0000 0.06210  0.11430  0.96250  Biso   1.000  H
  H6       1.0000 0.36600  0.04710  0.92740  Biso   1.000  H
  H7       1.0000 0.39750  0.94690  0.09000  Biso   1.000  H
  H8       1.0000 0.49730  0.87810  0.91180  Biso   1.000  H
  H9       1.0000 0.10430  0.70050  0.19310  Biso   1.000  H
  H10      1.0000 0.05550  0.55100  0.15740  Biso   1.000  H
  H11      1.0000 0.00870  0.58200  0.87630  Biso   1.000  H
  H12      1.0000 0.07170  0.72920  0.91840  Biso   1.000  H
  H13      1.0000 0.38700  0.18260  0.65700  Biso   1.000  H
  H14      1.0000 0.44800  0.16710  0.74290  Biso   1.000  H
  H15      1.0000 0.80700  0.12400  0.28400  Biso   1.000  H
  H16      1.0000 0.85350  0.17300  0.37330  Biso   1.000  H
  H17      1.0000 0.56210  0.88570  0.53750  Biso   1.000  H
  H18      1.0000 0.86600  0.95290  0.57260  Biso   1.000  H
  H19      1.0000 0.89750  0.05310  0.41000  Biso   1.000  H
  H20      1.0000 0.99730  0.12190  0.58820  Biso   1.000  H
  H21      1.0000 0.60430  0.29950  0.30690  Biso   1.000  H
  H22      1.0000 0.55550  0.44900  0.34260  Biso   1.000  H
  H23      1.0000 0.50870  0.41800  0.62370  Biso   1.000  H
  H24      1.0000 0.57170  0.27080  0.58160  Biso   1.000  H
  H25      1.0000 0.11300  0.18260  0.15700  Biso   1.000  H
  H26      1.0000 0.05200  0.16710  0.24290  Biso   1.000  H
  H27      1.0000 0.69300  0.12400  0.78400  Biso   1.000  H
  H28      1.0000 0.64650  0.17300  0.87330  Biso   1.000  H
  H29      1.0000 0.93790  0.88570  0.03750  Biso   1.000  H
  H30      1.0000 0.63400  0.95290  0.07260  Biso   1.000  H
  H31      1.0000 0.60250  0.05310  0.91000  Biso   1.000  H
  H32      1.0000 0.50270  0.12190  0.08820  Biso   1.000  H
  H33      1.0000 0.89570  0.29950  0.80690  Biso   1.000  H
  H34      1.0000 0.94450  0.44900  0.84260  Biso   1.000  H
  H35      1.0000 0.99130  0.41800  0.12370  Biso   1.000  H
  H36      1.0000 0.92830  0.27080  0.08160  Biso   1.000  H
  H37      1.0000 0.61300  0.81740  0.34300  Biso   1.000  H
  H38      1.0000 0.55200  0.83290  0.25710  Biso   1.000  H
  H39      1.0000 0.19300  0.87600  0.71600  Biso   1.000  H
  H40      1.0000 0.14650  0.82700  0.62670  Biso   1.000  H
  H41      1.0000 0.43790  0.11430  0.46250  Biso   1.000  H
  H42      1.0000 0.13400  0.04710  0.42740  Biso   1.000  H
  H43      1.0000 0.10250  0.94690  0.59000  Biso   1.000  H
  H44      1.0000 0.00270  0.87810  0.41180  Biso   1.000  H
  H45      1.0000 0.39570  0.70050  0.69310  Biso   1.000  H
  H46      1.0000 0.44450  0.55100  0.65740  Biso   1.000  H
  H47      1.0000 0.49130  0.58200  0.37630  Biso   1.000  H
  H48      1.0000 0.42830  0.72920  0.41840  Biso   1.000  H
  C1       1.0000 0.37820  0.98850  0.95100  Biso   1.000  C
  C2       1.0000 0.39380  0.00630  0.06670  Biso   1.000  C
  C3       1.0000 0.49150  0.94100  0.89810  Biso   1.000  C
  C4       1.0000 0.26440  0.92900  0.92610  Biso   1.000  C
  C5       1.0000 0.28080  0.05560  0.11130  Biso   1.000  C
  C6       1.0000 0.47550  0.94090  0.78500  Biso   1.000  C
  C7       1.0000 0.08760  0.67600  0.12640  Biso   1.000  C
  C8       1.0000 0.05460  0.58640  0.10610  Biso   1.000  C
  C9       1.0000 0.02050  0.54830  0.01180  Biso   1.000  C
  C10      1.0000 0.02890  0.60370  0.94290  Biso   1.000  C
  C11      1.0000 0.06730  0.69320  0.96910  Biso   1.000  C
  C12      1.0000 0.87820  0.01150  0.54900  Biso   1.000  C
  C13      1.0000 0.89380  0.99370  0.43330  Biso   1.000  C
  C14      1.0000 0.99150  0.05900  0.60190  Biso   1.000  C
  C15      1.0000 0.76440  0.07100  0.57390  Biso   1.000  C
  C16      1.0000 0.78080  0.94440  0.38870  Biso   1.000  C
  C17      1.0000 0.97550  0.05910  0.71500  Biso   1.000  C
  C18      1.0000 0.58760  0.32400  0.37360  Biso   1.000  C
  C19      1.0000 0.55460  0.41360  0.39390  Biso   1.000  C
  C20      1.0000 0.52050  0.45170  0.48820  Biso   1.000  C
  C21      1.0000 0.52890  0.39630  0.55710  Biso   1.000  C
  C22      1.0000 0.56730  0.30680  0.53090  Biso   1.000  C
  C23      1.0000 0.62180  0.01150  0.04900  Biso   1.000  C
  C24      1.0000 0.60620  0.99370  0.93330  Biso   1.000  C
  C25      1.0000 0.50850  0.05900  0.10190  Biso   1.000  C
  C26      1.0000 0.73560  0.07100  0.07390  Biso   1.000  C
  C27      1.0000 0.71920  0.94440  0.88870  Biso   1.000  C
  C28      1.0000 0.52450  0.05910  0.21500  Biso   1.000  C
  C29      1.0000 0.91240  0.32400  0.87360  Biso   1.000  C
  C30      1.0000 0.94540  0.41360  0.89390  Biso   1.000  C
  C31      1.0000 0.97950  0.45170  0.98820  Biso   1.000  C
  C32      1.0000 0.97110  0.39630  0.05710  Biso   1.000  C
  C33      1.0000 0.93270  0.30680  0.03090  Biso   1.000  C
  C34      1.0000 0.12180  0.98850  0.45100  Biso   1.000  C
  C35      1.0000 0.10620  0.00630  0.56670  Biso   1.000  C
  C36      1.0000 0.00850  0.94100  0.39810  Biso   1.000  C
  C37      1.0000 0.23560  0.92900  0.42610  Biso   1.000  C
  C38      1.0000 0.21920  0.05560  0.61130  Biso   1.000  C
  C39      1.0000 0.02450  0.94090  0.28500  Biso   1.000  C
  C40      1.0000 0.41240  0.67600  0.62640  Biso   1.000  C
  C41      1.0000 0.44540  0.58640  0.60610  Biso   1.000  C
  C42      1.0000 0.47950  0.54830  0.51180  Biso   1.000  C
  C43      1.0000 0.47110  0.60370  0.44290  Biso   1.000  C
  C44      1.0000 0.43270  0.69320  0.46910  Biso   1.000  C
  N1       1.0000 0.09720  0.72970  0.05860  Biso   1.000  N
  N2       1.0000 0.59720  0.27030  0.44140  Biso   1.000  N
  N3       1.0000 0.90280  0.27030  0.94140  Biso   1.000  N
  N4       1.0000 0.40280  0.72970  0.55860  Biso   1.000  N
  O1       1.0000 0.95580  0.82430  0.81770  Biso   1.000  O
  O2       1.0000 0.30030  0.82900  0.17200  Biso   1.000  O
  O3       1.0000 0.18570  0.95890  0.87320  Biso   1.000  O
  O4       1.0000 0.25600  0.85540  0.96220  Biso   1.000  O
  O5       1.0000 0.18650  0.00650  0.11300  Biso   1.000  O
  O6       1.0000 0.28200  0.13880  0.14100  Biso   1.000  O
  O7       1.0000 0.42590  0.87280  0.73450  Biso   1.000  O
  O8       1.0000 0.50940  0.01050  0.75170  Biso   1.000  O
  O9       1.0000 0.99840  0.08500  0.97250  Biso   1.000  O
  O10      1.0000 0.45580  0.17570  0.68230  Biso   1.000  O
  O11      1.0000 0.80030  0.17100  0.32800  Biso   1.000  O
  O12      1.0000 0.68570  0.04110  0.62680  Biso   1.000  O
  O13      1.0000 0.75600  0.14460  0.53780  Biso   1.000  O
  O14      1.0000 0.68650  0.99350  0.38700  Biso   1.000  O
  O15      1.0000 0.78200  0.86120  0.35900  Biso   1.000  O
  O16      1.0000 0.92590  0.12720  0.76550  Biso   1.000  O
  O17      1.0000 0.00940  0.98950  0.74830  Biso   1.000  O
  O18      1.0000 0.49840  0.91500  0.52750  Biso   1.000  O
  O19      1.0000 0.04420  0.17570  0.18230  Biso   1.000  O
  O20      1.0000 0.69970  0.17100  0.82800  Biso   1.000  O
  O21      1.0000 0.81430  0.04110  0.12680  Biso   1.000  O
  O22      1.0000 0.74400  0.14460  0.03780  Biso   1.000  O
  O23      1.0000 0.81350  0.99350  0.88700  Biso   1.000  O
  O24      1.0000 0.71800  0.86120  0.85900  Biso   1.000  O
  O25      1.0000 0.57410  0.12720  0.26550  Biso   1.000  O
  O26      1.0000 0.49060  0.98950  0.24830  Biso   1.000  O
  O27      1.0000 0.00160  0.91500  0.02750  Biso   1.000  O
  O28      1.0000 0.54420  0.82430  0.31770  Biso   1.000  O
  O29      1.0000 0.19970  0.82900  0.67200  Biso   1.000  O
  O30      1.0000 0.31430  0.95890  0.37320  Biso   1.000  O
  O31      1.0000 0.24400  0.85540  0.46220  Biso   1.000  O
  O32      1.0000 0.31350  0.00650  0.61300  Biso   1.000  O
  O33      1.0000 0.21800  0.13880  0.64100  Biso   1.000  O
  O34      1.0000 0.07410  0.87280  0.23450  Biso   1.000  O
  O35      1.0000 0.99060  0.01050  0.25170  Biso   1.000  O
  O36      1.0000 0.50160  0.08500  0.47250  Biso   1.000  O
