data_image0
_cell_length_a       14.845
_cell_length_b       18.355
_cell_length_c       11.1608
_cell_angle_alpha    90
_cell_angle_beta     90
_cell_angle_gamma    90

_symmetry_space_group_name_H-M    "P 1"
_symmetry_int_tables_number       1

loop_
  _symmetry_equiv_pos_as_xyz
  'x, y, z'

loop_
  _atom_site_label
  _atom_site_occupancy
  _atom_site_fract_x
  _atom_site_fract_y
  _atom_site_fract_z
  _atom_site_thermal_displace_type
  _atom_site_B_iso_or_equiv
  _atom_site_type_symbol
  C1       1.0000 0.92620  0.10830  0.51120  Biso   1.000  C
  H1       1.0000 0.92690  0.05870  0.49430  Biso   1.000  H
  C2       1.0000 0.94100  0.15790  0.42170  Biso   1.000  C
  H2       1.0000 0.95210  0.14140  0.34430  Biso   1.000  H
  C3       1.0000 0.93980  0.23210  0.44360  Biso   1.000  C
  C4       1.0000 0.92630  0.25420  0.55830  Biso   1.000  C
  H3       1.0000 0.92840  0.30370  0.57630  Biso   1.000  H
  C5       1.0000 0.91010  0.20560  0.64700  Biso   1.000  C
  H4       1.0000 0.89840  0.22210  0.72420  Biso   1.000  H
  C6       1.0000 0.91070  0.13160  0.62370  Biso   1.000  C
  C7       1.0000 0.94990  0.28530  0.34310  Biso   1.000  C
  H5       1.0000 0.89180  0.30420  0.32160  Biso   1.000  H
  H6       1.0000 0.97610  0.26120  0.27520  Biso   1.000  H
  H7       1.0000 0.98820  0.32460  0.36790  Biso   1.000  H
  C8       1.0000 0.95340  0.13830  0.93070  Biso   1.000  C
  H8       1.0000 0.90030  0.16830  0.91360  Biso   1.000  H
  C9       1.0000 0.03870  0.18530  0.91490  Biso   1.000  C
  C10      1.0000 0.94830  0.11220  0.05920  Biso   1.000  C
  H9       1.0000 0.95990  0.15280  0.11250  Biso   1.000  H
  H10      1.0000 0.99460  0.07590  0.07270  Biso   1.000  H
  C11      1.0000 0.85590  0.07910  0.08930  Biso   1.000  C
  H11      1.0000 0.84200  0.04220  0.02990  Biso   1.000  H
  H12      1.0000 0.86020  0.05490  0.16640  Biso   1.000  H
  C12      1.0000 0.77790  0.13280  0.09410  Biso   1.000  C
  C13      1.0000 0.30880  0.05890  0.87120  Biso   1.000  C
  H13      1.0000 0.25090  0.04430  0.85000  Biso   1.000  H
  C14      1.0000 0.37540  0.00850  0.87060  Biso   1.000  C
  H14      1.0000 0.36240  0.96090  0.84780  Biso   1.000  H
  C15      1.0000 0.46290  0.02670  0.90350  Biso   1.000  C
  C16      1.0000 0.47600  0.09780  0.93500  Biso   1.000  C
  H15      1.0000 0.53320  0.11310  0.95780  Biso   1.000  H
  C17      1.0000 0.40600  0.14740  0.93370  Biso   1.000  C
  H16      1.0000 0.41750  0.19520  0.95640  Biso   1.000  H
  C18      1.0000 0.20370  0.28620  0.65130  Biso   1.000  C
  H17      1.0000 0.21170  0.33040  0.69080  Biso   1.000  H
  C19      1.0000 0.19870  0.28690  0.52990  Biso   1.000  C
  H18      1.0000 0.20180  0.33100  0.48910  Biso   1.000  H
  C20      1.0000 0.18910  0.22350  0.46670  Biso   1.000  C
  C21      1.0000 0.17980  0.16130  0.53390  Biso   1.000  C
  H19      1.0000 0.17050  0.11680  0.49620  Biso   1.000  H
  C22      1.0000 0.18410  0.16490  0.65630  Biso   1.000  C
  H20      1.0000 0.17700  0.12180  0.69930  Biso   1.000  H
  C23      1.0000 0.19030  0.22260  0.33470  Biso   1.000  C
  C24      1.0000 0.17650  0.28340  0.26600  Biso   1.000  C
  H21      1.0000 0.16200  0.32720  0.30310  Biso   1.000  H
  C25      1.0000 0.18390  0.28080  0.14360  Biso   1.000  C
  H22      1.0000 0.17460  0.32360  0.10060  Biso   1.000  H
  C26      1.0000 0.21590  0.15980  0.14780  Biso   1.000  C
  H23      1.0000 0.22850  0.11640  0.10800  Biso   1.000  H
  C27      1.0000 0.21060  0.15920  0.27040  Biso   1.000  C
  H24      1.0000 0.22070  0.11600  0.31160  Biso   1.000  H
  Cu1      1.0000 0.21103  0.22080  0.89953  Biso   1.000  Cu
  N1       1.0000 0.19770  0.22570  0.71720  Biso   1.000  N
  N2       1.0000 0.20360  0.22050  0.08320  Biso   1.000  N
  N3       1.0000 0.32200  0.12890  0.90090  Biso   1.000  N
  N4       1.0000 0.95530  0.07740  0.84700  Biso   1.000  N
  O1       1.0000 0.03390  0.25170  0.91720  Biso   1.000  O
  O2       1.0000 0.11130  0.14889  0.90220  Biso   1.000  O
  O3       1.0000 0.70230  0.11000  0.09740  Biso   1.000  O
  O4       1.0000 0.80050  0.20089  0.09600  Biso   1.000  O
  H25      1.0000 0.00740  0.05880  0.82630  Biso   1.000  H
  O5       1.0000 0.79890  0.09000  0.78650  Biso   1.000  O
  O6       1.0000 0.89520  0.99730  0.69220  Biso   1.000  O
  S1       1.0000 0.88390  0.06944  0.73841  Biso   1.000  S
  C28      1.0000 0.07380  0.89170  0.51120  Biso   1.000  C
  H26      1.0000 0.07310  0.94130  0.49430  Biso   1.000  H
  C29      1.0000 0.05900  0.84210  0.42170  Biso   1.000  C
  H27      1.0000 0.04790  0.85860  0.34430  Biso   1.000  H
  C30      1.0000 0.06020  0.76790  0.44360  Biso   1.000  C
  C31      1.0000 0.07370  0.74580  0.55830  Biso   1.000  C
  H28      1.0000 0.07160  0.69630  0.57630  Biso   1.000  H
  C32      1.0000 0.08990  0.79440  0.64700  Biso   1.000  C
  H29      1.0000 0.10160  0.77790  0.72420  Biso   1.000  H
  C33      1.0000 0.08930  0.86840  0.62370  Biso   1.000  C
  C34      1.0000 0.05010  0.71470  0.34310  Biso   1.000  C
  H30      1.0000 0.10820  0.69580  0.32160  Biso   1.000  H
  H31      1.0000 0.02390  0.73880  0.27520  Biso   1.000  H
  H32      1.0000 0.01180  0.67540  0.36790  Biso   1.000  H
  C35      1.0000 0.04660  0.86170  0.93070  Biso   1.000  C
  H33      1.0000 0.09970  0.83170  0.91360  Biso   1.000  H
  C36      1.0000 0.96130  0.81470  0.91490  Biso   1.000  C
  C37      1.0000 0.05170  0.88780  0.05920  Biso   1.000  C
  H34      1.0000 0.04010  0.84720  0.11250  Biso   1.000  H
  H35      1.0000 0.00540  0.92410  0.07270  Biso   1.000  H
  C38      1.0000 0.14410  0.92090  0.08930  Biso   1.000  C
  H36      1.0000 0.15800  0.95780  0.02990  Biso   1.000  H
  H37      1.0000 0.13980  0.94510  0.16640  Biso   1.000  H
  C39      1.0000 0.22210  0.86720  0.09410  Biso   1.000  C
  C40      1.0000 0.69120  0.94110  0.87120  Biso   1.000  C
  H38      1.0000 0.74910  0.95570  0.85000  Biso   1.000  H
  C41      1.0000 0.62460  0.99150  0.87060  Biso   1.000  C
  H39      1.0000 0.63760  0.03910  0.84780  Biso   1.000  H
  C42      1.0000 0.53710  0.97330  0.90350  Biso   1.000  C
  C43      1.0000 0.52400  0.90220  0.93500  Biso   1.000  C
  H40      1.0000 0.46680  0.88690  0.95780  Biso   1.000  H
  C44      1.0000 0.59400  0.85260  0.93370  Biso   1.000  C
  H41      1.0000 0.58250  0.80480  0.95640  Biso   1.000  H
  C45      1.0000 0.79630  0.71380  0.65130  Biso   1.000  C
  H42      1.0000 0.78830  0.66960  0.69080  Biso   1.000  H
  C46      1.0000 0.80130  0.71310  0.52990  Biso   1.000  C
  H43      1.0000 0.79820  0.66900  0.48910  Biso   1.000  H
  C47      1.0000 0.81090  0.77650  0.46670  Biso   1.000  C
  C48      1.0000 0.82020  0.83870  0.53390  Biso   1.000  C
  H44      1.0000 0.82950  0.88320  0.49620  Biso   1.000  H
  C49      1.0000 0.81590  0.83510  0.65630  Biso   1.000  C
  H45      1.0000 0.82300  0.87820  0.69930  Biso   1.000  H
  C50      1.0000 0.80970  0.77740  0.33470  Biso   1.000  C
  C51      1.0000 0.82350  0.71660  0.26600  Biso   1.000  C
  H46      1.0000 0.83800  0.67280  0.30310  Biso   1.000  H
  C52      1.0000 0.81610  0.71920  0.14360  Biso   1.000  C
  H47      1.0000 0.82540  0.67640  0.10060  Biso   1.000  H
  C53      1.0000 0.78410  0.84020  0.14780  Biso   1.000  C
  H48      1.0000 0.77150  0.88360  0.10800  Biso   1.000  H
  C54      1.0000 0.78940  0.84080  0.27040  Biso   1.000  C
  H49      1.0000 0.77930  0.88400  0.31160  Biso   1.000  H
  Cu2      1.0000 0.78897  0.77920  0.89953  Biso   1.000  Cu
  N5       1.0000 0.80230  0.77430  0.71720  Biso   1.000  N
  N6       1.0000 0.79640  0.77950  0.08320  Biso   1.000  N
  N7       1.0000 0.67800  0.87110  0.90090  Biso   1.000  N
  N8       1.0000 0.04470  0.92260  0.84700  Biso   1.000  N
  O7       1.0000 0.96610  0.74830  0.91720  Biso   1.000  O
  O8       1.0000 0.88870  0.85111  0.90220  Biso   1.000  O
  O9       1.0000 0.29770  0.89000  0.09740  Biso   1.000  O
  O10      1.0000 0.19950  0.79911  0.09600  Biso   1.000  O
  H50      1.0000 0.99260  0.94120  0.82630  Biso   1.000  H
  O11      1.0000 0.20110  0.91000  0.78650  Biso   1.000  O
  O12      1.0000 0.10480  0.00270  0.69220  Biso   1.000  O
  S2       1.0000 0.11610  0.93056  0.73841  Biso   1.000  S
  C55      1.0000 0.57380  0.60830  0.48880  Biso   1.000  C
  H51      1.0000 0.57310  0.55870  0.50570  Biso   1.000  H
  C56      1.0000 0.55900  0.65790  0.57830  Biso   1.000  C
  H52      1.0000 0.54790  0.64140  0.65570  Biso   1.000  H
  C57      1.0000 0.56020  0.73210  0.55640  Biso   1.000  C
  C58      1.0000 0.57370  0.75420  0.44170  Biso   1.000  C
  H53      1.0000 0.57160  0.80370  0.42370  Biso   1.000  H
  C59      1.0000 0.58990  0.70560  0.35300  Biso   1.000  C
  H54      1.0000 0.60160  0.72210  0.27580  Biso   1.000  H
  C60      1.0000 0.58930  0.63160  0.37630  Biso   1.000  C
  C61      1.0000 0.55010  0.78530  0.65690  Biso   1.000  C
  H55      1.0000 0.60820  0.80420  0.67840  Biso   1.000  H
  H56      1.0000 0.52390  0.76120  0.72480  Biso   1.000  H
  H57      1.0000 0.51180  0.82460  0.63210  Biso   1.000  H
  C62      1.0000 0.54660  0.63830  0.06930  Biso   1.000  C
  H58      1.0000 0.59970  0.66830  0.08640  Biso   1.000  H
  C63      1.0000 0.46130  0.68530  0.08510  Biso   1.000  C
  C64      1.0000 0.55170  0.61220  0.94080  Biso   1.000  C
  H59      1.0000 0.54010  0.65280  0.88750  Biso   1.000  H
  H60      1.0000 0.50540  0.57590  0.92730  Biso   1.000  H
  C65      1.0000 0.64410  0.57910  0.91070  Biso   1.000  C
  H61      1.0000 0.65800  0.54220  0.97010  Biso   1.000  H
  H62      1.0000 0.63980  0.55490  0.83360  Biso   1.000  H
  C66      1.0000 0.72210  0.63280  0.90590  Biso   1.000  C
  C67      1.0000 0.19120  0.55890  0.12880  Biso   1.000  C
  H63      1.0000 0.24910  0.54430  0.15000  Biso   1.000  H
  C68      1.0000 0.12460  0.50850  0.12940  Biso   1.000  C
  H64      1.0000 0.13760  0.46090  0.15220  Biso   1.000  H
  C69      1.0000 0.03710  0.52670  0.09650  Biso   1.000  C
  C70      1.0000 0.02400  0.59780  0.06500  Biso   1.000  C
  H65      1.0000 0.96680  0.61310  0.04220  Biso   1.000  H
  C71      1.0000 0.09400  0.64740  0.06630  Biso   1.000  C
  H66      1.0000 0.08250  0.69520  0.04360  Biso   1.000  H
  C72      1.0000 0.29630  0.78620  0.34870  Biso   1.000  C
  H67      1.0000 0.28830  0.83040  0.30920  Biso   1.000  H
  C73      1.0000 0.30130  0.78690  0.47010  Biso   1.000  C
  H68      1.0000 0.29820  0.83100  0.51090  Biso   1.000  H
  C74      1.0000 0.31090  0.72350  0.53330  Biso   1.000  C
  C75      1.0000 0.32020  0.66130  0.46610  Biso   1.000  C
  H69      1.0000 0.32950  0.61680  0.50380  Biso   1.000  H
  C76      1.0000 0.31590  0.66490  0.34370  Biso   1.000  C
  H70      1.0000 0.32300  0.62180  0.30070  Biso   1.000  H
  C77      1.0000 0.30970  0.72260  0.66530  Biso   1.000  C
  C78      1.0000 0.32350  0.78340  0.73400  Biso   1.000  C
  H71      1.0000 0.33800  0.82720  0.69690  Biso   1.000  H
  C79      1.0000 0.31610  0.78080  0.85640  Biso   1.000  C
  H72      1.0000 0.32540  0.82360  0.89940  Biso   1.000  H
  C80      1.0000 0.28410  0.65980  0.85220  Biso   1.000  C
  H73      1.0000 0.27150  0.61640  0.89200  Biso   1.000  H
  C81      1.0000 0.28940  0.65920  0.72960  Biso   1.000  C
  H74      1.0000 0.27930  0.61600  0.68840  Biso   1.000  H
  Cu3      1.0000 0.28897  0.72080  0.10047  Biso   1.000  Cu
  N9       1.0000 0.30230  0.72570  0.28280  Biso   1.000  N
  N10      1.0000 0.29640  0.72050  0.91680  Biso   1.000  N
  N11      1.0000 0.17800  0.62890  0.09910  Biso   1.000  N
  N12      1.0000 0.54470  0.57740  0.15300  Biso   1.000  N
  O13      1.0000 0.46610  0.75170  0.08280  Biso   1.000  O
  O14      1.0000 0.38870  0.64889  0.09780  Biso   1.000  O
  O15      1.0000 0.79770  0.61000  0.90260  Biso   1.000  O
  O16      1.0000 0.69950  0.70089  0.90400  Biso   1.000  O
  H75      1.0000 0.49260  0.55880  0.17370  Biso   1.000  H
  O17      1.0000 0.70110  0.59000  0.21350  Biso   1.000  O
  O18      1.0000 0.60480  0.49730  0.30780  Biso   1.000  O
  S3       1.0000 0.61610  0.56944  0.26159  Biso   1.000  S
  C82      1.0000 0.42620  0.39170  0.48880  Biso   1.000  C
  H76      1.0000 0.42690  0.44130  0.50570  Biso   1.000  H
  C83      1.0000 0.44100  0.34210  0.57830  Biso   1.000  C
  H77      1.0000 0.45210  0.35860  0.65570  Biso   1.000  H
  C84      1.0000 0.43980  0.26790  0.55640  Biso   1.000  C
  C85      1.0000 0.42630  0.24580  0.44170  Biso   1.000  C
  H78      1.0000 0.42840  0.19630  0.42370  Biso   1.000  H
  C86      1.0000 0.41010  0.29440  0.35300  Biso   1.000  C
  H79      1.0000 0.39840  0.27790  0.27580  Biso   1.000  H
  C87      1.0000 0.41070  0.36840  0.37630  Biso   1.000  C
  C88      1.0000 0.44990  0.21470  0.65690  Biso   1.000  C
  H80      1.0000 0.39180  0.19580  0.67840  Biso   1.000  H
  H81      1.0000 0.47610  0.23880  0.72480  Biso   1.000  H
  H82      1.0000 0.48820  0.17540  0.63210  Biso   1.000  H
  C89      1.0000 0.45340  0.36170  0.06930  Biso   1.000  C
  H83      1.0000 0.40030  0.33170  0.08640  Biso   1.000  H
  C90      1.0000 0.53870  0.31470  0.08510  Biso   1.000  C
  C91      1.0000 0.44830  0.38780  0.94080  Biso   1.000  C
  H84      1.0000 0.45990  0.34720  0.88750  Biso   1.000  H
  H85      1.0000 0.49460  0.42410  0.92730  Biso   1.000  H
  C92      1.0000 0.35590  0.42090  0.91070  Biso   1.000  C
  H86      1.0000 0.34200  0.45780  0.97010  Biso   1.000  H
  H87      1.0000 0.36020  0.44510  0.83360  Biso   1.000  H
  C93      1.0000 0.27790  0.36720  0.90590  Biso   1.000  C
  C94      1.0000 0.80880  0.44110  0.12880  Biso   1.000  C
  H88      1.0000 0.75090  0.45570  0.15000  Biso   1.000  H
  C95      1.0000 0.87540  0.49150  0.12940  Biso   1.000  C
  H89      1.0000 0.86240  0.53910  0.15220  Biso   1.000  H
  C96      1.0000 0.96290  0.47330  0.09650  Biso   1.000  C
  C97      1.0000 0.97600  0.40220  0.06500  Biso   1.000  C
  H90      1.0000 0.03320  0.38690  0.04220  Biso   1.000  H
  C98      1.0000 0.90600  0.35260  0.06630  Biso   1.000  C
  H91      1.0000 0.91750  0.30480  0.04360  Biso   1.000  H
  C99      1.0000 0.70370  0.21380  0.34870  Biso   1.000  C
  H92      1.0000 0.71170  0.16960  0.30920  Biso   1.000  H
  C100     1.0000 0.69870  0.21310  0.47010  Biso   1.000  C
  H93      1.0000 0.70180  0.16900  0.51090  Biso   1.000  H
  C101     1.0000 0.68910  0.27650  0.53330  Biso   1.000  C
  C102     1.0000 0.67980  0.33870  0.46610  Biso   1.000  C
  H94      1.0000 0.67050  0.38320  0.50380  Biso   1.000  H
  C103     1.0000 0.68410  0.33510  0.34370  Biso   1.000  C
  H95      1.0000 0.67700  0.37820  0.30070  Biso   1.000  H
  C104     1.0000 0.69030  0.27740  0.66530  Biso   1.000  C
  C105     1.0000 0.67650  0.21660  0.73400  Biso   1.000  C
  H96      1.0000 0.66200  0.17280  0.69690  Biso   1.000  H
  C106     1.0000 0.68390  0.21920  0.85640  Biso   1.000  C
  H97      1.0000 0.67460  0.17640  0.89940  Biso   1.000  H
  C107     1.0000 0.71590  0.34020  0.85220  Biso   1.000  C
  H98      1.0000 0.72850  0.38360  0.89200  Biso   1.000  H
  C108     1.0000 0.71060  0.34080  0.72960  Biso   1.000  C
  H99      1.0000 0.72070  0.38400  0.68840  Biso   1.000  H
  Cu4      1.0000 0.71103  0.27920  0.10047  Biso   1.000  Cu
  N13      1.0000 0.69770  0.27430  0.28280  Biso   1.000  N
  N14      1.0000 0.70360  0.27950  0.91680  Biso   1.000  N
  N15      1.0000 0.82200  0.37110  0.09910  Biso   1.000  N
  N16      1.0000 0.45530  0.42260  0.15300  Biso   1.000  N
  O19      1.0000 0.53390  0.24830  0.08280  Biso   1.000  O
  O20      1.0000 0.61130  0.35111  0.09780  Biso   1.000  O
  O21      1.0000 0.20230  0.39000  0.90260  Biso   1.000  O
  O22      1.0000 0.30050  0.29911  0.90400  Biso   1.000  O
  H100     1.0000 0.50740  0.44120  0.17370  Biso   1.000  H
  O23      1.0000 0.29890  0.41000  0.21350  Biso   1.000  O
  O24      1.0000 0.39520  0.50270  0.30780  Biso   1.000  O
  S4       1.0000 0.38390  0.43056  0.26159  Biso   1.000  S
