data_image0
_cell_length_a       7.113
_cell_length_b       9.959
_cell_length_c       9.959
_cell_angle_alpha    90
_cell_angle_beta     90
_cell_angle_gamma    90

_symmetry_space_group_name_H-M    P 1
_symmetry_int_tables_number       1

loop_
  _symmetry_equiv_pos_as_xyz
  'x, y, z'

loop_
  _atom_site_label
  _atom_site_occupancy
  _atom_site_fract_x
  _atom_site_fract_y
  _atom_site_fract_z
  _atom_site_thermal_displace_type
  _atom_site_B_iso_or_equiv
  _atom_site_type_symbol
  V1       1.0000 0.50000  0.60910  0.89090  Biso   1.000  V
  V2       1.0000 0.50000  0.39090  0.10910  Biso   1.000  V
  V3       1.0000 0.50000  0.10910  0.60910  Biso   1.000  V
  V4       1.0000 0.50000  0.89090  0.39090  Biso   1.000  V
  H1       1.0000 0.50000  0.35630  0.85630  Biso   1.000  H
  H2       1.0000 0.50000  0.64370  0.14370  Biso   1.000  H
  H3       1.0000 0.50000  0.14370  0.35630  Biso   1.000  H
  H4       1.0000 0.50000  0.85630  0.64370  Biso   1.000  H
  C1       1.0000 0.50000  0.44220  0.41440  Biso   1.000  C
  C2       1.0000 0.50000  0.55780  0.58560  Biso   1.000  C
  C3       1.0000 0.50000  0.58560  0.44220  Biso   1.000  C
  C4       1.0000 0.50000  0.41440  0.55780  Biso   1.000  C
  C5       1.0000 0.50000  0.05780  0.91440  Biso   1.000  C
  C6       1.0000 0.50000  0.94220  0.08560  Biso   1.000  C
  C7       1.0000 0.50000  0.91440  0.94220  Biso   1.000  C
  C8       1.0000 0.50000  0.08560  0.05780  Biso   1.000  C
  C9       1.0000 0.10100  0.55160  0.94840  Biso   1.000  C
  C10      1.0000 0.10100  0.44840  0.05160  Biso   1.000  C
  C11      1.0000 0.10100  0.05160  0.55160  Biso   1.000  C
  C12      1.0000 0.10100  0.94840  0.44840  Biso   1.000  C
  C13      1.0000 0.89900  0.94840  0.44840  Biso   1.000  C
  C14      1.0000 0.89900  0.05160  0.55160  Biso   1.000  C
  C15      1.0000 0.89900  0.44840  0.05160  Biso   1.000  C
  C16      1.0000 0.89900  0.55160  0.94840  Biso   1.000  C
  O1       1.0000 0.50000  0.62990  0.68790  Biso   1.000  O
  O2       1.0000 0.50000  0.37010  0.31210  Biso   1.000  O
  O3       1.0000 0.50000  0.31210  0.62990  Biso   1.000  O
  O4       1.0000 0.50000  0.68790  0.37010  Biso   1.000  O
  O5       1.0000 0.50000  0.87010  0.18790  Biso   1.000  O
  O6       1.0000 0.50000  0.12990  0.81210  Biso   1.000  O
  O7       1.0000 0.50000  0.18790  0.12990  Biso   1.000  O
  O8       1.0000 0.50000  0.81210  0.87010  Biso   1.000  O
  O9       1.0000 0.22030  0.61750  0.88250  Biso   1.000  O
  O10      1.0000 0.22030  0.38250  0.11750  Biso   1.000  O
  O11      1.0000 0.22030  0.11750  0.61750  Biso   1.000  O
  O12      1.0000 0.22030  0.88250  0.38250  Biso   1.000  O
  O13      1.0000 0.77970  0.88250  0.38250  Biso   1.000  O
  O14      1.0000 0.77970  0.11750  0.61750  Biso   1.000  O
  O15      1.0000 0.77970  0.38250  0.11750  Biso   1.000  O
  O16      1.0000 0.77970  0.61750  0.88250  Biso   1.000  O
  O17      1.0000 0.50000  0.58620  0.08620  Biso   1.000  O
  O18      1.0000 0.50000  0.41380  0.91380  Biso   1.000  O
  O19      1.0000 0.50000  0.91380  0.58620  Biso   1.000  O
  O20      1.0000 0.50000  0.08620  0.41380  Biso   1.000  O
