data_image0
_cell_length_a       7.3179
_cell_length_b       7.3179
_cell_length_c       24.419
_cell_angle_alpha    90
_cell_angle_beta     90
_cell_angle_gamma    120

_symmetry_space_group_name_H-M    "P 1"
_symmetry_int_tables_number       1

loop_
  _symmetry_equiv_pos_as_xyz
  'x, y, z'

loop_
  _atom_site_label
  _atom_site_occupancy
  _atom_site_fract_x
  _atom_site_fract_y
  _atom_site_fract_z
  _atom_site_thermal_displace_type
  _atom_site_B_iso_or_equiv
  _atom_site_type_symbol
  O1       1.0000 0.33840  0.45080  0.13215  Biso   1.000  O
  O2       1.0000 0.92200  0.29750  0.96500  Biso   1.000  O
  O3       1.0000 0.14050  0.41830  0.03400  Biso   1.000  O
  C1       1.0000 0.03280  0.43130  0.99890  Biso   1.000  C
  H1       1.0000 0.03340  0.55850  0.99710  Biso   1.000  H
  O4       1.0000 0.54920  0.88760  0.46548  Biso   1.000  O
  O5       1.0000 0.70250  0.62450  0.29833  Biso   1.000  O
  O6       1.0000 0.58170  0.72220  0.36733  Biso   1.000  O
  C2       1.0000 0.56870  0.60150  0.33223  Biso   1.000  C
  H2       1.0000 0.44150  0.47490  0.33043  Biso   1.000  H
  O7       1.0000 0.11240  0.66160  0.79882  Biso   1.000  O
  O8       1.0000 0.37550  0.07800  0.63167  Biso   1.000  O
  O9       1.0000 0.27780  0.85950  0.70067  Biso   1.000  O
  C3       1.0000 0.39850  0.96720  0.66557  Biso   1.000  C
  H3       1.0000 0.52510  0.96660  0.66377  Biso   1.000  H
  O10      1.0000 0.66160  0.54920  0.63215  Biso   1.000  O
  O11      1.0000 0.07800  0.70250  0.46500  Biso   1.000  O
  O12      1.0000 0.85950  0.58170  0.53400  Biso   1.000  O
  C4       1.0000 0.96720  0.56870  0.49890  Biso   1.000  C
  H4       1.0000 0.96660  0.44150  0.49710  Biso   1.000  H
  O13      1.0000 0.45080  0.11240  0.96548  Biso   1.000  O
  O14      1.0000 0.29750  0.37550  0.79833  Biso   1.000  O
  O15      1.0000 0.41830  0.27780  0.86733  Biso   1.000  O
  C5       1.0000 0.43130  0.39850  0.83223  Biso   1.000  C
  H5       1.0000 0.55850  0.52510  0.83043  Biso   1.000  H
  O16      1.0000 0.88760  0.33840  0.29882  Biso   1.000  O
  O17      1.0000 0.62450  0.92200  0.13167  Biso   1.000  O
  O18      1.0000 0.72220  0.14050  0.20067  Biso   1.000  O
  C6       1.0000 0.60150  0.03280  0.16557  Biso   1.000  C
  H6       1.0000 0.47490  0.03340  0.16377  Biso   1.000  H
  O19      1.0000 0.45080  0.33840  0.20118  Biso   1.000  O
  O20      1.0000 0.29750  0.92200  0.36833  Biso   1.000  O
  O21      1.0000 0.41830  0.14050  0.29933  Biso   1.000  O
  C7       1.0000 0.43130  0.03280  0.33443  Biso   1.000  C
  H7       1.0000 0.55850  0.03340  0.33623  Biso   1.000  H
  O22      1.0000 0.88760  0.54920  0.86785  Biso   1.000  O
  O23      1.0000 0.62450  0.70250  0.03500  Biso   1.000  O
  O24      1.0000 0.72220  0.58170  0.96600  Biso   1.000  O
  C8       1.0000 0.60150  0.56870  0.00110  Biso   1.000  C
  H8       1.0000 0.47490  0.44150  0.00290  Biso   1.000  H
  O25      1.0000 0.66160  0.11240  0.53452  Biso   1.000  O
  O26      1.0000 0.07800  0.37550  0.70167  Biso   1.000  O
  O27      1.0000 0.85950  0.27780  0.63267  Biso   1.000  O
  C9       1.0000 0.96720  0.39850  0.66777  Biso   1.000  C
  H9       1.0000 0.96660  0.52510  0.66957  Biso   1.000  H
  O28      1.0000 0.54920  0.66160  0.70118  Biso   1.000  O
  O29      1.0000 0.70250  0.07800  0.86833  Biso   1.000  O
  O30      1.0000 0.58170  0.85950  0.79933  Biso   1.000  O
  C10      1.0000 0.56870  0.96720  0.83443  Biso   1.000  C
  H10      1.0000 0.44150  0.96660  0.83623  Biso   1.000  H
  O31      1.0000 0.11240  0.45080  0.36785  Biso   1.000  O
  O32      1.0000 0.37550  0.29750  0.53500  Biso   1.000  O
  O33      1.0000 0.27780  0.41830  0.46600  Biso   1.000  O
  C11      1.0000 0.39850  0.43130  0.50110  Biso   1.000  C
  H11      1.0000 0.52510  0.55850  0.50290  Biso   1.000  H
  O34      1.0000 0.33840  0.88760  0.03452  Biso   1.000  O
  O35      1.0000 0.92200  0.62450  0.20167  Biso   1.000  O
  O36      1.0000 0.14050  0.72220  0.13267  Biso   1.000  O
  C12      1.0000 0.03280  0.60150  0.16777  Biso   1.000  C
  H12      1.0000 0.03340  0.47490  0.16957  Biso   1.000  H
  Cu1      1.0000 0.36480  0.68240  0.08333  Biso   1.000  Cu
  Cu2      1.0000 0.31760  0.68240  0.41667  Biso   1.000  Cu
  Cu3      1.0000 0.31760  0.63520  0.75000  Biso   1.000  Cu
  Cu4      1.0000 0.63520  0.31760  0.58333  Biso   1.000  Cu
  Cu5      1.0000 0.68240  0.31760  0.91667  Biso   1.000  Cu
  Cu6      1.0000 0.68240  0.36480  0.25000  Biso   1.000  Cu
  C13      1.0000 0.47300  0.47300  0.16667  Biso   1.000  C
  H13      1.0000 0.60010  0.60010  0.16667  Biso   1.000  H
  C14      1.0000 0.52700  0.00000  0.50000  Biso   1.000  C
  H14      1.0000 0.39990  0.00000  0.50000  Biso   1.000  H
  C15      1.0000 0.00000  0.52700  0.83333  Biso   1.000  C
  H15      1.0000 0.00000  0.39990  0.83333  Biso   1.000  H
  C16      1.0000 0.52700  0.52700  0.66667  Biso   1.000  C
  H16      1.0000 0.39990  0.39990  0.66667  Biso   1.000  H
  C17      1.0000 0.47300  0.00000  0.00000  Biso   1.000  C
  H17      1.0000 0.60010  0.00000  0.00000  Biso   1.000  H
  C18      1.0000 0.00000  0.47300  0.33333  Biso   1.000  C
  H18      1.0000 0.00000  0.60010  0.33333  Biso   1.000  H
