data_image0
_cell_length_a       7.3192
_cell_length_b       7.3192
_cell_length_c       24.381
_cell_angle_alpha    90
_cell_angle_beta     90
_cell_angle_gamma    120

_symmetry_space_group_name_H-M    "P 1"
_symmetry_int_tables_number       1

loop_
  _symmetry_equiv_pos_as_xyz
  'x, y, z'

loop_
  _atom_site_label
  _atom_site_occupancy
  _atom_site_fract_x
  _atom_site_fract_y
  _atom_site_fract_z
  _atom_site_thermal_displace_type
  _atom_site_B_iso_or_equiv
  _atom_site_type_symbol
  O1       1.0000 0.33810  0.45140  0.13246  Biso   1.000  O
  O2       1.0000 0.92120  0.29790  0.96440  Biso   1.000  O
  O3       1.0000 0.14090  0.41950  0.03423  Biso   1.000  O
  C1       1.0000 0.03140  0.43110  0.99900  Biso   1.000  C
  H1       1.0000 0.02960  0.55720  0.99780  Biso   1.000  H
  O4       1.0000 0.54860  0.88670  0.46579  Biso   1.000  O
  O5       1.0000 0.70210  0.62330  0.29773  Biso   1.000  O
  O6       1.0000 0.58050  0.72140  0.36756  Biso   1.000  O
  C2       1.0000 0.56890  0.60030  0.33233  Biso   1.000  C
  H2       1.0000 0.44280  0.47240  0.33113  Biso   1.000  H
  O7       1.0000 0.11330  0.66190  0.79913  Biso   1.000  O
  O8       1.0000 0.37670  0.07880  0.63107  Biso   1.000  O
  O9       1.0000 0.27860  0.85910  0.70090  Biso   1.000  O
  C3       1.0000 0.39970  0.96860  0.66567  Biso   1.000  C
  H3       1.0000 0.52760  0.97040  0.66447  Biso   1.000  H
  O10      1.0000 0.66190  0.54860  0.63246  Biso   1.000  O
  O11      1.0000 0.07880  0.70210  0.46440  Biso   1.000  O
  O12      1.0000 0.85910  0.58050  0.53423  Biso   1.000  O
  C4       1.0000 0.96860  0.56890  0.49900  Biso   1.000  C
  H4       1.0000 0.97040  0.44280  0.49780  Biso   1.000  H
  O13      1.0000 0.45140  0.11330  0.96579  Biso   1.000  O
  O14      1.0000 0.29790  0.37670  0.79773  Biso   1.000  O
  O15      1.0000 0.41950  0.27860  0.86756  Biso   1.000  O
  C5       1.0000 0.43110  0.39970  0.83233  Biso   1.000  C
  H5       1.0000 0.55720  0.52760  0.83113  Biso   1.000  H
  O16      1.0000 0.88670  0.33810  0.29913  Biso   1.000  O
  O17      1.0000 0.62330  0.92120  0.13107  Biso   1.000  O
  O18      1.0000 0.72140  0.14090  0.20090  Biso   1.000  O
  C6       1.0000 0.60030  0.03140  0.16567  Biso   1.000  C
  H6       1.0000 0.47240  0.02960  0.16447  Biso   1.000  H
  O19      1.0000 0.45140  0.33810  0.20087  Biso   1.000  O
  O20      1.0000 0.29790  0.92120  0.36893  Biso   1.000  O
  O21      1.0000 0.41950  0.14090  0.29910  Biso   1.000  O
  C7       1.0000 0.43110  0.03140  0.33433  Biso   1.000  C
  H7       1.0000 0.55720  0.02960  0.33553  Biso   1.000  H
  O22      1.0000 0.88670  0.54860  0.86754  Biso   1.000  O
  O23      1.0000 0.62330  0.70210  0.03560  Biso   1.000  O
  O24      1.0000 0.72140  0.58050  0.96577  Biso   1.000  O
  C8       1.0000 0.60030  0.56890  0.00100  Biso   1.000  C
  H8       1.0000 0.47240  0.44280  0.00220  Biso   1.000  H
  O25      1.0000 0.66190  0.11330  0.53421  Biso   1.000  O
  O26      1.0000 0.07880  0.37670  0.70227  Biso   1.000  O
  O27      1.0000 0.85910  0.27860  0.63244  Biso   1.000  O
  C9       1.0000 0.96860  0.39970  0.66767  Biso   1.000  C
  H9       1.0000 0.97040  0.52760  0.66887  Biso   1.000  H
  O28      1.0000 0.54860  0.66190  0.70087  Biso   1.000  O
  O29      1.0000 0.70210  0.07880  0.86893  Biso   1.000  O
  O30      1.0000 0.58050  0.85910  0.79910  Biso   1.000  O
  C10      1.0000 0.56890  0.96860  0.83433  Biso   1.000  C
  H10      1.0000 0.44280  0.97040  0.83553  Biso   1.000  H
  O31      1.0000 0.11330  0.45140  0.36754  Biso   1.000  O
  O32      1.0000 0.37670  0.29790  0.53560  Biso   1.000  O
  O33      1.0000 0.27860  0.41950  0.46577  Biso   1.000  O
  C11      1.0000 0.39970  0.43110  0.50100  Biso   1.000  C
  H11      1.0000 0.52760  0.55720  0.50220  Biso   1.000  H
  O34      1.0000 0.33810  0.88670  0.03421  Biso   1.000  O
  O35      1.0000 0.92120  0.62330  0.20227  Biso   1.000  O
  O36      1.0000 0.14090  0.72140  0.13244  Biso   1.000  O
  C12      1.0000 0.03140  0.60030  0.16767  Biso   1.000  C
  H12      1.0000 0.02960  0.47240  0.16887  Biso   1.000  H
  Cu1      1.0000 0.36459  0.68230  0.08333  Biso   1.000  Cu
  Cu2      1.0000 0.31770  0.68229  0.41667  Biso   1.000  Cu
  Cu3      1.0000 0.31771  0.63541  0.75000  Biso   1.000  Cu
  Cu4      1.0000 0.63541  0.31770  0.58333  Biso   1.000  Cu
  Cu5      1.0000 0.68230  0.31770  0.91667  Biso   1.000  Cu
  Cu6      1.0000 0.68229  0.36459  0.25000  Biso   1.000  Cu
  C13      1.0000 0.47270  0.47270  0.16667  Biso   1.000  C
  H13      1.0000 0.59970  0.59970  0.16667  Biso   1.000  H
  C14      1.0000 0.52730  0.00000  0.50000  Biso   1.000  C
  H14      1.0000 0.40030  0.00000  0.50000  Biso   1.000  H
  C15      1.0000 0.00000  0.52730  0.83333  Biso   1.000  C
  H15      1.0000 0.00000  0.40030  0.83333  Biso   1.000  H
  C16      1.0000 0.52730  0.52730  0.66667  Biso   1.000  C
  H16      1.0000 0.40030  0.40030  0.66667  Biso   1.000  H
  C17      1.0000 0.47270  0.00000  0.00000  Biso   1.000  C
  H17      1.0000 0.59970  0.00000  0.00000  Biso   1.000  H
  C18      1.0000 0.00000  0.47270  0.33333  Biso   1.000  C
  H18      1.0000 0.00000  0.59970  0.33333  Biso   1.000  H
