data_image0
_cell_length_a       7.3285
_cell_length_b       7.3285
_cell_length_c       24.431
_cell_angle_alpha    90
_cell_angle_beta     90
_cell_angle_gamma    120

_symmetry_space_group_name_H-M    "P 1"
_symmetry_int_tables_number       1

loop_
  _symmetry_equiv_pos_as_xyz
  'x, y, z'

loop_
  _atom_site_label
  _atom_site_occupancy
  _atom_site_fract_x
  _atom_site_fract_y
  _atom_site_fract_z
  _atom_site_thermal_displace_type
  _atom_site_B_iso_or_equiv
  _atom_site_type_symbol
  O1       1.0000 0.33750  0.45060  0.13220  Biso   1.000  O
  O2       1.0000 0.92200  0.29820  0.96490  Biso   1.000  O
  O3       1.0000 0.14110  0.41730  0.03380  Biso   1.000  O
  C1       1.0000 0.03240  0.42990  0.99860  Biso   1.000  C
  H1       1.0000 0.03310  0.55710  0.99690  Biso   1.000  H
  O4       1.0000 0.54940  0.88690  0.46553  Biso   1.000  O
  O5       1.0000 0.70180  0.62380  0.29823  Biso   1.000  O
  O6       1.0000 0.58270  0.72380  0.36713  Biso   1.000  O
  C2       1.0000 0.57010  0.60250  0.33193  Biso   1.000  C
  H2       1.0000 0.44290  0.47600  0.33023  Biso   1.000  H
  O7       1.0000 0.11310  0.66250  0.79887  Biso   1.000  O
  O8       1.0000 0.37620  0.07800  0.63157  Biso   1.000  O
  O9       1.0000 0.27620  0.85890  0.70047  Biso   1.000  O
  C3       1.0000 0.39750  0.96760  0.66527  Biso   1.000  C
  H3       1.0000 0.52400  0.96690  0.66357  Biso   1.000  H
  O10      1.0000 0.66250  0.54940  0.63220  Biso   1.000  O
  O11      1.0000 0.07800  0.70180  0.46490  Biso   1.000  O
  O12      1.0000 0.85890  0.58270  0.53380  Biso   1.000  O
  C4       1.0000 0.96760  0.57010  0.49860  Biso   1.000  C
  H4       1.0000 0.96690  0.44290  0.49690  Biso   1.000  H
  O13      1.0000 0.45060  0.11310  0.96553  Biso   1.000  O
  O14      1.0000 0.29820  0.37620  0.79823  Biso   1.000  O
  O15      1.0000 0.41730  0.27620  0.86713  Biso   1.000  O
  C5       1.0000 0.42990  0.39750  0.83193  Biso   1.000  C
  H5       1.0000 0.55710  0.52400  0.83023  Biso   1.000  H
  O16      1.0000 0.88690  0.33750  0.29887  Biso   1.000  O
  O17      1.0000 0.62380  0.92200  0.13157  Biso   1.000  O
  O18      1.0000 0.72380  0.14110  0.20047  Biso   1.000  O
  C6       1.0000 0.60250  0.03240  0.16527  Biso   1.000  C
  H6       1.0000 0.47600  0.03310  0.16357  Biso   1.000  H
  O19      1.0000 0.45060  0.33750  0.20113  Biso   1.000  O
  O20      1.0000 0.29820  0.92200  0.36843  Biso   1.000  O
  O21      1.0000 0.41730  0.14110  0.29953  Biso   1.000  O
  C7       1.0000 0.42990  0.03240  0.33473  Biso   1.000  C
  H7       1.0000 0.55710  0.03310  0.33643  Biso   1.000  H
  O22      1.0000 0.88690  0.54940  0.86780  Biso   1.000  O
  O23      1.0000 0.62380  0.70180  0.03510  Biso   1.000  O
  O24      1.0000 0.72380  0.58270  0.96620  Biso   1.000  O
  C8       1.0000 0.60250  0.57010  0.00140  Biso   1.000  C
  H8       1.0000 0.47600  0.44290  0.00310  Biso   1.000  H
  O25      1.0000 0.66250  0.11310  0.53447  Biso   1.000  O
  O26      1.0000 0.07800  0.37620  0.70177  Biso   1.000  O
  O27      1.0000 0.85890  0.27620  0.63287  Biso   1.000  O
  C9       1.0000 0.96760  0.39750  0.66807  Biso   1.000  C
  H9       1.0000 0.96690  0.52400  0.66977  Biso   1.000  H
  O28      1.0000 0.54940  0.66250  0.70113  Biso   1.000  O
  O29      1.0000 0.70180  0.07800  0.86843  Biso   1.000  O
  O30      1.0000 0.58270  0.85890  0.79953  Biso   1.000  O
  C10      1.0000 0.57010  0.96760  0.83473  Biso   1.000  C
  H10      1.0000 0.44290  0.96690  0.83643  Biso   1.000  H
  O31      1.0000 0.11310  0.45060  0.36780  Biso   1.000  O
  O32      1.0000 0.37620  0.29820  0.53510  Biso   1.000  O
  O33      1.0000 0.27620  0.41730  0.46620  Biso   1.000  O
  C11      1.0000 0.39750  0.42990  0.50140  Biso   1.000  C
  H11      1.0000 0.52400  0.55710  0.50310  Biso   1.000  H
  O34      1.0000 0.33750  0.88690  0.03447  Biso   1.000  O
  O35      1.0000 0.92200  0.62380  0.20177  Biso   1.000  O
  O36      1.0000 0.14110  0.72380  0.13287  Biso   1.000  O
  C12      1.0000 0.03240  0.60250  0.16807  Biso   1.000  C
  H12      1.0000 0.03310  0.47600  0.16977  Biso   1.000  H
  Cu1      1.0000 0.36451  0.68226  0.08333  Biso   1.000  Cu
  Cu2      1.0000 0.31774  0.68226  0.41667  Biso   1.000  Cu
  Cu3      1.0000 0.31774  0.63549  0.75000  Biso   1.000  Cu
  Cu4      1.0000 0.63549  0.31774  0.58333  Biso   1.000  Cu
  Cu5      1.0000 0.68226  0.31774  0.91667  Biso   1.000  Cu
  Cu6      1.0000 0.68225  0.36451  0.25000  Biso   1.000  Cu
  C13      1.0000 0.47700  0.47700  0.16667  Biso   1.000  C
  H13      1.0000 0.60390  0.60390  0.16667  Biso   1.000  H
  C14      1.0000 0.52300  0.00000  0.50000  Biso   1.000  C
  H14      1.0000 0.39610  0.00000  0.50000  Biso   1.000  H
  C15      1.0000 0.00000  0.52300  0.83333  Biso   1.000  C
  H15      1.0000 0.00000  0.39610  0.83333  Biso   1.000  H
  C16      1.0000 0.52300  0.52300  0.66667  Biso   1.000  C
  H16      1.0000 0.39610  0.39610  0.66667  Biso   1.000  H
  C17      1.0000 0.47700  0.00000  0.00000  Biso   1.000  C
  H17      1.0000 0.60390  0.00000  0.00000  Biso   1.000  H
  C18      1.0000 0.00000  0.47700  0.33333  Biso   1.000  C
  H18      1.0000 0.00000  0.60390  0.33333  Biso   1.000  H
