data_image0
_cell_length_a       7.3263
_cell_length_b       7.3263
_cell_length_c       24.3653
_cell_angle_alpha    90
_cell_angle_beta     90
_cell_angle_gamma    120

_symmetry_space_group_name_H-M    "P 1"
_symmetry_int_tables_number       1

loop_
  _symmetry_equiv_pos_as_xyz
  'x, y, z'

loop_
  _atom_site_label
  _atom_site_occupancy
  _atom_site_fract_x
  _atom_site_fract_y
  _atom_site_fract_z
  _atom_site_thermal_displace_type
  _atom_site_B_iso_or_equiv
  _atom_site_type_symbol
  O1       1.0000 0.33830  0.45110  0.13220  Biso   1.000  O
  O2       1.0000 0.92100  0.29810  0.96470  Biso   1.000  O
  O3       1.0000 0.14170  0.41890  0.03421  Biso   1.000  O
  C1       1.0000 0.03300  0.43210  0.99860  Biso   1.000  C
  H1       1.0000 0.03480  0.55970  0.99660  Biso   1.000  H
  O4       1.0000 0.54890  0.88720  0.46553  Biso   1.000  O
  O5       1.0000 0.70190  0.62290  0.29803  Biso   1.000  O
  O6       1.0000 0.58110  0.72280  0.36754  Biso   1.000  O
  C2       1.0000 0.56790  0.60090  0.33193  Biso   1.000  C
  H2       1.0000 0.44030  0.47510  0.32993  Biso   1.000  H
  O7       1.0000 0.11280  0.66170  0.79887  Biso   1.000  O
  O8       1.0000 0.37710  0.07900  0.63137  Biso   1.000  O
  O9       1.0000 0.27720  0.85830  0.70088  Biso   1.000  O
  C3       1.0000 0.39910  0.96700  0.66527  Biso   1.000  C
  H3       1.0000 0.52490  0.96520  0.66327  Biso   1.000  H
  O10      1.0000 0.66170  0.54890  0.63220  Biso   1.000  O
  O11      1.0000 0.07900  0.70190  0.46470  Biso   1.000  O
  O12      1.0000 0.85830  0.58110  0.53421  Biso   1.000  O
  C4       1.0000 0.96700  0.56790  0.49860  Biso   1.000  C
  H4       1.0000 0.96520  0.44030  0.49660  Biso   1.000  H
  O13      1.0000 0.45110  0.11280  0.96553  Biso   1.000  O
  O14      1.0000 0.29810  0.37710  0.79803  Biso   1.000  O
  O15      1.0000 0.41890  0.27720  0.86754  Biso   1.000  O
  C5       1.0000 0.43210  0.39910  0.83193  Biso   1.000  C
  H5       1.0000 0.55970  0.52490  0.82993  Biso   1.000  H
  O16      1.0000 0.88720  0.33830  0.29887  Biso   1.000  O
  O17      1.0000 0.62290  0.92100  0.13137  Biso   1.000  O
  O18      1.0000 0.72280  0.14170  0.20088  Biso   1.000  O
  C6       1.0000 0.60090  0.03300  0.16527  Biso   1.000  C
  H6       1.0000 0.47510  0.03480  0.16327  Biso   1.000  H
  O19      1.0000 0.45110  0.33830  0.20113  Biso   1.000  O
  O20      1.0000 0.29810  0.92100  0.36863  Biso   1.000  O
  O21      1.0000 0.41890  0.14170  0.29912  Biso   1.000  O
  C7       1.0000 0.43210  0.03300  0.33473  Biso   1.000  C
  H7       1.0000 0.55970  0.03480  0.33673  Biso   1.000  H
  O22      1.0000 0.88720  0.54890  0.86780  Biso   1.000  O
  O23      1.0000 0.62290  0.70190  0.03530  Biso   1.000  O
  O24      1.0000 0.72280  0.58110  0.96579  Biso   1.000  O
  C8       1.0000 0.60090  0.56790  0.00140  Biso   1.000  C
  H8       1.0000 0.47510  0.44030  0.00340  Biso   1.000  H
  O25      1.0000 0.66170  0.11280  0.53447  Biso   1.000  O
  O26      1.0000 0.07900  0.37710  0.70197  Biso   1.000  O
  O27      1.0000 0.85830  0.27720  0.63246  Biso   1.000  O
  C9       1.0000 0.96700  0.39910  0.66807  Biso   1.000  C
  H9       1.0000 0.96520  0.52490  0.67007  Biso   1.000  H
  O28      1.0000 0.54890  0.66170  0.70113  Biso   1.000  O
  O29      1.0000 0.70190  0.07900  0.86863  Biso   1.000  O
  O30      1.0000 0.58110  0.85830  0.79912  Biso   1.000  O
  C10      1.0000 0.56790  0.96700  0.83473  Biso   1.000  C
  H10      1.0000 0.44030  0.96520  0.83673  Biso   1.000  H
  O31      1.0000 0.11280  0.45110  0.36780  Biso   1.000  O
  O32      1.0000 0.37710  0.29810  0.53530  Biso   1.000  O
  O33      1.0000 0.27720  0.41890  0.46579  Biso   1.000  O
  C11      1.0000 0.39910  0.43210  0.50140  Biso   1.000  C
  H11      1.0000 0.52490  0.55970  0.50340  Biso   1.000  H
  O34      1.0000 0.33830  0.88720  0.03447  Biso   1.000  O
  O35      1.0000 0.92100  0.62290  0.20197  Biso   1.000  O
  O36      1.0000 0.14170  0.72280  0.13246  Biso   1.000  O
  C12      1.0000 0.03300  0.60090  0.16807  Biso   1.000  C
  H12      1.0000 0.03480  0.47510  0.17007  Biso   1.000  H
  Cu1      1.0000 0.36459  0.68229  0.08333  Biso   1.000  Cu
  Cu2      1.0000 0.31771  0.68229  0.41667  Biso   1.000  Cu
  Cu3      1.0000 0.31771  0.63541  0.75000  Biso   1.000  Cu
  Cu4      1.0000 0.63541  0.31771  0.58333  Biso   1.000  Cu
  Cu5      1.0000 0.68229  0.31771  0.91667  Biso   1.000  Cu
  Cu6      1.0000 0.68229  0.36459  0.25000  Biso   1.000  Cu
  C13      1.0000 0.47360  0.47360  0.16667  Biso   1.000  C
  H13      1.0000 0.60050  0.60050  0.16667  Biso   1.000  H
  C14      1.0000 0.52640  0.00000  0.50000  Biso   1.000  C
  H14      1.0000 0.39950  0.00000  0.50000  Biso   1.000  H
  C15      1.0000 0.00000  0.52640  0.83333  Biso   1.000  C
  H15      1.0000 0.00000  0.39950  0.83333  Biso   1.000  H
  C16      1.0000 0.52640  0.52640  0.66667  Biso   1.000  C
  H16      1.0000 0.39950  0.39950  0.66667  Biso   1.000  H
  C17      1.0000 0.47360  0.00000  0.00000  Biso   1.000  C
  H17      1.0000 0.60050  0.00000  0.00000  Biso   1.000  H
  C18      1.0000 0.00000  0.47360  0.33333  Biso   1.000  C
  H18      1.0000 0.00000  0.60050  0.33333  Biso   1.000  H
