data_image0
_cell_length_a       7.3256
_cell_length_b       7.3256
_cell_length_c       24.3944
_cell_angle_alpha    90
_cell_angle_beta     90
_cell_angle_gamma    120

_symmetry_space_group_name_H-M    "P 1"
_symmetry_int_tables_number       1

loop_
  _symmetry_equiv_pos_as_xyz
  'x, y, z'

loop_
  _atom_site_label
  _atom_site_occupancy
  _atom_site_fract_x
  _atom_site_fract_y
  _atom_site_fract_z
  _atom_site_thermal_displace_type
  _atom_site_B_iso_or_equiv
  _atom_site_type_symbol
  O1       1.0000 0.33830  0.45130  0.13233  Biso   1.000  O
  O2       1.0000 0.92110  0.29790  0.96460  Biso   1.000  O
  O3       1.0000 0.14160  0.41920  0.03432  Biso   1.000  O
  C1       1.0000 0.03340  0.43130  0.99870  Biso   1.000  C
  H1       1.0000 0.03500  0.55890  0.99680  Biso   1.000  H
  O4       1.0000 0.54870  0.88700  0.46566  Biso   1.000  O
  O5       1.0000 0.70210  0.62320  0.29793  Biso   1.000  O
  O6       1.0000 0.58080  0.72240  0.36765  Biso   1.000  O
  C2       1.0000 0.56870  0.60210  0.33203  Biso   1.000  C
  H2       1.0000 0.44110  0.47610  0.33013  Biso   1.000  H
  O7       1.0000 0.11300  0.66170  0.79900  Biso   1.000  O
  O8       1.0000 0.37680  0.07890  0.63127  Biso   1.000  O
  O9       1.0000 0.27760  0.85840  0.70099  Biso   1.000  O
  C3       1.0000 0.39790  0.96660  0.66537  Biso   1.000  C
  H3       1.0000 0.52390  0.96500  0.66347  Biso   1.000  H
  O10      1.0000 0.66170  0.54870  0.63233  Biso   1.000  O
  O11      1.0000 0.07890  0.70210  0.46460  Biso   1.000  O
  O12      1.0000 0.85840  0.58080  0.53432  Biso   1.000  O
  C4       1.0000 0.96660  0.56870  0.49870  Biso   1.000  C
  H4       1.0000 0.96500  0.44110  0.49680  Biso   1.000  H
  O13      1.0000 0.45130  0.11300  0.96566  Biso   1.000  O
  O14      1.0000 0.29790  0.37680  0.79793  Biso   1.000  O
  O15      1.0000 0.41920  0.27760  0.86765  Biso   1.000  O
  C5       1.0000 0.43130  0.39790  0.83203  Biso   1.000  C
  H5       1.0000 0.55890  0.52390  0.83013  Biso   1.000  H
  O16      1.0000 0.88700  0.33830  0.29900  Biso   1.000  O
  O17      1.0000 0.62320  0.92110  0.13127  Biso   1.000  O
  O18      1.0000 0.72240  0.14160  0.20099  Biso   1.000  O
  C6       1.0000 0.60210  0.03340  0.16537  Biso   1.000  C
  H6       1.0000 0.47610  0.03500  0.16347  Biso   1.000  H
  O19      1.0000 0.45130  0.33830  0.20100  Biso   1.000  O
  O20      1.0000 0.29790  0.92110  0.36873  Biso   1.000  O
  O21      1.0000 0.41920  0.14160  0.29901  Biso   1.000  O
  C7       1.0000 0.43130  0.03340  0.33463  Biso   1.000  C
  H7       1.0000 0.55890  0.03500  0.33653  Biso   1.000  H
  O22      1.0000 0.88700  0.54870  0.86767  Biso   1.000  O
  O23      1.0000 0.62320  0.70210  0.03540  Biso   1.000  O
  O24      1.0000 0.72240  0.58080  0.96568  Biso   1.000  O
  C8       1.0000 0.60210  0.56870  0.00130  Biso   1.000  C
  H8       1.0000 0.47610  0.44110  0.00320  Biso   1.000  H
  O25      1.0000 0.66170  0.11300  0.53434  Biso   1.000  O
  O26      1.0000 0.07890  0.37680  0.70207  Biso   1.000  O
  O27      1.0000 0.85840  0.27760  0.63235  Biso   1.000  O
  C9       1.0000 0.96660  0.39790  0.66797  Biso   1.000  C
  H9       1.0000 0.96500  0.52390  0.66987  Biso   1.000  H
  O28      1.0000 0.54870  0.66170  0.70100  Biso   1.000  O
  O29      1.0000 0.70210  0.07890  0.86873  Biso   1.000  O
  O30      1.0000 0.58080  0.85840  0.79901  Biso   1.000  O
  C10      1.0000 0.56870  0.96660  0.83463  Biso   1.000  C
  H10      1.0000 0.44110  0.96500  0.83653  Biso   1.000  H
  O31      1.0000 0.11300  0.45130  0.36767  Biso   1.000  O
  O32      1.0000 0.37680  0.29790  0.53540  Biso   1.000  O
  O33      1.0000 0.27760  0.41920  0.46568  Biso   1.000  O
  C11      1.0000 0.39790  0.43130  0.50130  Biso   1.000  C
  H11      1.0000 0.52390  0.55890  0.50320  Biso   1.000  H
  O34      1.0000 0.33830  0.88700  0.03434  Biso   1.000  O
  O35      1.0000 0.92110  0.62320  0.20207  Biso   1.000  O
  O36      1.0000 0.14160  0.72240  0.13235  Biso   1.000  O
  C12      1.0000 0.03340  0.60210  0.16797  Biso   1.000  C
  H12      1.0000 0.03500  0.47610  0.16987  Biso   1.000  H
  Cu1      1.0000 0.36473  0.68237  0.08333  Biso   1.000  Cu
  Cu2      1.0000 0.31764  0.68236  0.41667  Biso   1.000  Cu
  Cu3      1.0000 0.31764  0.63527  0.75000  Biso   1.000  Cu
  Cu4      1.0000 0.63527  0.31764  0.58333  Biso   1.000  Cu
  Cu5      1.0000 0.68237  0.31764  0.91667  Biso   1.000  Cu
  Cu6      1.0000 0.68236  0.36473  0.25000  Biso   1.000  Cu
  C13      1.0000 0.47420  0.47420  0.16667  Biso   1.000  C
  H13      1.0000 0.60110  0.60110  0.16667  Biso   1.000  H
  C14      1.0000 0.52580  0.00000  0.50000  Biso   1.000  C
  H14      1.0000 0.39890  0.00000  0.50000  Biso   1.000  H
  C15      1.0000 0.00000  0.52580  0.83333  Biso   1.000  C
  H15      1.0000 0.00000  0.39890  0.83333  Biso   1.000  H
  C16      1.0000 0.52580  0.52580  0.66667  Biso   1.000  C
  H16      1.0000 0.39890  0.39890  0.66667  Biso   1.000  H
  C17      1.0000 0.47420  0.00000  0.00000  Biso   1.000  C
  H17      1.0000 0.60110  0.00000  0.00000  Biso   1.000  H
  C18      1.0000 0.00000  0.47420  0.33333  Biso   1.000  C
  H18      1.0000 0.00000  0.60110  0.33333  Biso   1.000  H
