data_image0
_cell_length_a       14.69
_cell_length_b       15.126
_cell_length_c       15.126
_cell_angle_alpha    120
_cell_angle_beta     90
_cell_angle_gamma    90

_symmetry_space_group_name_H-M    P 1
_symmetry_int_tables_number       1

loop_
  _symmetry_equiv_pos_as_xyz
  'x, y, z'

loop_
  _atom_site_label
  _atom_site_occupancy
  _atom_site_fract_x
  _atom_site_fract_y
  _atom_site_fract_z
  _atom_site_thermal_displace_type
  _atom_site_B_iso_or_equiv
  _atom_site_type_symbol
  Gd1      1.0000 0.75000  0.33333  0.66666  Biso   1.000  Gd
  Gd2      1.0000 0.75000  0.66667  0.33334  Biso   1.000  Gd
  Gd3      1.0000 0.25000  0.66667  0.33334  Biso   1.000  Gd
  Gd4      1.0000 0.25000  0.33333  0.66666  Biso   1.000  Gd
  Cu1      1.0000 0.50000  0.50000  0.50000  Biso   1.000  Cu
  Cu2      1.0000 0.50000  0.00000  0.50000  Biso   1.000  Cu
  Cu3      1.0000 0.50000  0.50000  0.00000  Biso   1.000  Cu
  Cu4      1.0000 0.00000  0.00000  0.50000  Biso   1.000  Cu
  Cu5      1.0000 0.00000  0.50000  0.50000  Biso   1.000  Cu
  Cu6      1.0000 0.00000  0.50000  0.00000  Biso   1.000  Cu
  C1       1.0000 0.70050  0.26840  0.41470  Biso   1.000  C
  C2       1.0000 0.63960  0.35660  0.48630  Biso   1.000  C
  C3       1.0000 0.70050  0.14630  0.73160  Biso   1.000  C
  C4       1.0000 0.63960  0.12970  0.64340  Biso   1.000  C
  C5       1.0000 0.70050  0.58530  0.85370  Biso   1.000  C
  C6       1.0000 0.63960  0.51370  0.87030  Biso   1.000  C
  C7       1.0000 0.70050  0.73160  0.58530  Biso   1.000  C
  C8       1.0000 0.63960  0.64340  0.51370  Biso   1.000  C
  C9       1.0000 0.70050  0.85370  0.26840  Biso   1.000  C
  C10      1.0000 0.63960  0.87030  0.35660  Biso   1.000  C
  C11      1.0000 0.70050  0.41470  0.14630  Biso   1.000  C
  C12      1.0000 0.63960  0.48630  0.12970  Biso   1.000  C
  C13      1.0000 0.79950  0.85370  0.58530  Biso   1.000  C
  C14      1.0000 0.86040  0.87030  0.51370  Biso   1.000  C
  C15      1.0000 0.79950  0.41470  0.26840  Biso   1.000  C
  C16      1.0000 0.86040  0.48630  0.35660  Biso   1.000  C
  C17      1.0000 0.79950  0.73160  0.14630  Biso   1.000  C
  C18      1.0000 0.86040  0.64340  0.12970  Biso   1.000  C
  C19      1.0000 0.79950  0.14630  0.41470  Biso   1.000  C
  C20      1.0000 0.86040  0.12970  0.48630  Biso   1.000  C
  C21      1.0000 0.79950  0.58530  0.73160  Biso   1.000  C
  C22      1.0000 0.86040  0.51370  0.64340  Biso   1.000  C
  C23      1.0000 0.79950  0.26840  0.85370  Biso   1.000  C
  C24      1.0000 0.86040  0.35660  0.87030  Biso   1.000  C
  C25      1.0000 0.29950  0.73160  0.58530  Biso   1.000  C
  C26      1.0000 0.36040  0.64340  0.51370  Biso   1.000  C
  C27      1.0000 0.29950  0.85370  0.26840  Biso   1.000  C
  C28      1.0000 0.36040  0.87030  0.35660  Biso   1.000  C
  C29      1.0000 0.29950  0.41470  0.14630  Biso   1.000  C
  C30      1.0000 0.36040  0.48630  0.12970  Biso   1.000  C
  C31      1.0000 0.29950  0.26840  0.41470  Biso   1.000  C
  C32      1.0000 0.36040  0.35660  0.48630  Biso   1.000  C
  C33      1.0000 0.29950  0.14630  0.73160  Biso   1.000  C
  C34      1.0000 0.36040  0.12970  0.64340  Biso   1.000  C
  C35      1.0000 0.29950  0.58530  0.85370  Biso   1.000  C
  C36      1.0000 0.36040  0.51370  0.87030  Biso   1.000  C
  C37      1.0000 0.20050  0.14630  0.41470  Biso   1.000  C
  C38      1.0000 0.13960  0.12970  0.48630  Biso   1.000  C
  C39      1.0000 0.20050  0.58530  0.73160  Biso   1.000  C
  C40      1.0000 0.13960  0.51370  0.64340  Biso   1.000  C
  C41      1.0000 0.20050  0.26840  0.85370  Biso   1.000  C
  C42      1.0000 0.13960  0.35660  0.87030  Biso   1.000  C
  C43      1.0000 0.20050  0.85370  0.58530  Biso   1.000  C
  C44      1.0000 0.13960  0.87030  0.51370  Biso   1.000  C
  C45      1.0000 0.20050  0.41470  0.26840  Biso   1.000  C
  C46      1.0000 0.13960  0.48630  0.35660  Biso   1.000  C
  C47      1.0000 0.20050  0.73160  0.14630  Biso   1.000  C
  C48      1.0000 0.13960  0.64340  0.12970  Biso   1.000  C
  O1       1.0000 0.64160  0.38540  0.57840  Biso   1.000  O
  O2       1.0000 0.59330  0.39360  0.44290  Biso   1.000  O
  O3       1.0000 0.64160  0.19300  0.61460  Biso   1.000  O
  O4       1.0000 0.59330  0.04930  0.60640  Biso   1.000  O
  O5       1.0000 0.64160  0.42160  0.80700  Biso   1.000  O
  O6       1.0000 0.59330  0.55710  0.95070  Biso   1.000  O
  O7       1.0000 0.64160  0.61460  0.42160  Biso   1.000  O
  O8       1.0000 0.59330  0.60640  0.55710  Biso   1.000  O
  O9       1.0000 0.64160  0.80700  0.38540  Biso   1.000  O
  O10      1.0000 0.59330  0.95070  0.39360  Biso   1.000  O
  O11      1.0000 0.64160  0.57840  0.19300  Biso   1.000  O
  O12      1.0000 0.59330  0.44290  0.04930  Biso   1.000  O
  O13      1.0000 0.85840  0.80700  0.42160  Biso   1.000  O
  O14      1.0000 0.90670  0.95070  0.55710  Biso   1.000  O
  O15      1.0000 0.85840  0.57840  0.38540  Biso   1.000  O
  O16      1.0000 0.90670  0.44290  0.39360  Biso   1.000  O
  O17      1.0000 0.85840  0.61460  0.19300  Biso   1.000  O
  O18      1.0000 0.90670  0.60640  0.04930  Biso   1.000  O
  O19      1.0000 0.85840  0.19300  0.57840  Biso   1.000  O
  O20      1.0000 0.90670  0.04930  0.44290  Biso   1.000  O
  O21      1.0000 0.85840  0.42160  0.61460  Biso   1.000  O
  O22      1.0000 0.90670  0.55710  0.60640  Biso   1.000  O
  O23      1.0000 0.85840  0.38540  0.80700  Biso   1.000  O
  O24      1.0000 0.90670  0.39360  0.95070  Biso   1.000  O
  O25      1.0000 0.35840  0.61460  0.42160  Biso   1.000  O
  O26      1.0000 0.40670  0.60640  0.55710  Biso   1.000  O
  O27      1.0000 0.35840  0.80700  0.38540  Biso   1.000  O
  O28      1.0000 0.40670  0.95070  0.39360  Biso   1.000  O
  O29      1.0000 0.35840  0.57840  0.19300  Biso   1.000  O
  O30      1.0000 0.40670  0.44290  0.04930  Biso   1.000  O
  O31      1.0000 0.35840  0.38540  0.57840  Biso   1.000  O
  O32      1.0000 0.40670  0.39360  0.44290  Biso   1.000  O
  O33      1.0000 0.35840  0.19300  0.61460  Biso   1.000  O
  O34      1.0000 0.40670  0.04930  0.60640  Biso   1.000  O
  O35      1.0000 0.35840  0.42160  0.80700  Biso   1.000  O
  O36      1.0000 0.40670  0.55710  0.95070  Biso   1.000  O
  O37      1.0000 0.14160  0.19300  0.57840  Biso   1.000  O
  O38      1.0000 0.09330  0.04930  0.44290  Biso   1.000  O
  O39      1.0000 0.14160  0.42160  0.61460  Biso   1.000  O
  O40      1.0000 0.09330  0.55710  0.60640  Biso   1.000  O
  O41      1.0000 0.14160  0.38540  0.80700  Biso   1.000  O
  O42      1.0000 0.09330  0.39360  0.95070  Biso   1.000  O
  O43      1.0000 0.14160  0.80700  0.42160  Biso   1.000  O
  O44      1.0000 0.09330  0.95070  0.55710  Biso   1.000  O
  O45      1.0000 0.14160  0.57840  0.38540  Biso   1.000  O
  O46      1.0000 0.09330  0.44290  0.39360  Biso   1.000  O
  O47      1.0000 0.14160  0.61460  0.19300  Biso   1.000  O
  O48      1.0000 0.09330  0.60640  0.04930  Biso   1.000  O
  O49      1.0000 0.75000  0.23705  0.47410  Biso   1.000  O
  O50      1.0000 0.75000  0.23705  0.76295  Biso   1.000  O
  O51      1.0000 0.75000  0.52590  0.76295  Biso   1.000  O
  O52      1.0000 0.75000  0.76295  0.52590  Biso   1.000  O
  O53      1.0000 0.75000  0.76295  0.23705  Biso   1.000  O
  O54      1.0000 0.75000  0.47410  0.23705  Biso   1.000  O
  O55      1.0000 0.25000  0.76295  0.52590  Biso   1.000  O
  O56      1.0000 0.25000  0.76295  0.23705  Biso   1.000  O
  O57      1.0000 0.25000  0.47410  0.23705  Biso   1.000  O
  O58      1.0000 0.25000  0.23705  0.47410  Biso   1.000  O
  O59      1.0000 0.25000  0.23705  0.76295  Biso   1.000  O
  O60      1.0000 0.25000  0.52590  0.76295  Biso   1.000  O
