data_image0
_cell_length_a       15.4017
_cell_length_b       15.4017
_cell_length_c       28.9421
_cell_angle_alpha    90
_cell_angle_beta     90
_cell_angle_gamma    90

_symmetry_space_group_name_H-M    "P 1"
_symmetry_int_tables_number       1

loop_
  _symmetry_equiv_pos_as_xyz
  'x, y, z'

loop_
  _atom_site_label
  _atom_site_occupancy
  _atom_site_fract_x
  _atom_site_fract_y
  _atom_site_fract_z
  _atom_site_thermal_displace_type
  _atom_site_B_iso_or_equiv
  _atom_site_type_symbol
  Fe1      1.0000 0.40230  0.81872  0.05054  Biso   1.000  Fe
  Fe2      1.0000 0.49206  0.04938  0.04689  Biso   1.000  Fe
  P1       1.0000 0.32226  0.98011  0.99837  Biso   1.000  P
  P2       1.0000 0.29420  0.67686  0.11051  Biso   1.000  P
  O1       1.0000 0.36765  0.04405  0.03193  Biso   1.000  O
  O2       1.0000 0.38053  0.96567  0.95588  Biso   1.000  O
  O3       1.0000 0.30686  0.89348  0.02391  Biso   1.000  O
  O4       1.0000 0.23569  0.01878  0.98257  Biso   1.000  O
  O5       1.0000 0.32034  0.72477  0.06682  Biso   1.000  O
  O6       1.0000 0.23578  0.73578  0.13918  Biso   1.000  O
  O7       1.0000 0.23811  0.59634  0.09629  Biso   1.000  O
  O8       1.0000 0.37141  0.64397  0.13817  Biso   1.000  O
  O9       1.0000 0.51073  0.83023  0.93027  Biso   1.000  O
  O10      1.0000 0.41794  0.75912  0.99063  Biso   1.000  O
  O11      1.0000 0.49205  0.91536  0.02439  Biso   1.000  O
  Fe3      1.0000 0.90230  0.31872  0.55054  Biso   1.000  Fe
  Fe4      1.0000 0.99206  0.54938  0.54689  Biso   1.000  Fe
  P3       1.0000 0.82226  0.48011  0.49837  Biso   1.000  P
  P4       1.0000 0.79420  0.17686  0.61051  Biso   1.000  P
  O12      1.0000 0.86765  0.54405  0.53193  Biso   1.000  O
  O13      1.0000 0.88053  0.46567  0.45588  Biso   1.000  O
  O14      1.0000 0.80686  0.39348  0.52391  Biso   1.000  O
  O15      1.0000 0.73569  0.51878  0.48257  Biso   1.000  O
  O16      1.0000 0.82034  0.22477  0.56682  Biso   1.000  O
  O17      1.0000 0.73578  0.23578  0.63918  Biso   1.000  O
  O18      1.0000 0.73811  0.09634  0.59629  Biso   1.000  O
  O19      1.0000 0.87141  0.14397  0.63817  Biso   1.000  O
  O20      1.0000 0.01073  0.33023  0.43027  Biso   1.000  O
  O21      1.0000 0.91794  0.25912  0.49063  Biso   1.000  O
  O22      1.0000 0.99205  0.41536  0.52439  Biso   1.000  O
  Fe5      1.0000 0.09770  0.18128  0.55054  Biso   1.000  Fe
  Fe6      1.0000 0.00794  0.95062  0.54689  Biso   1.000  Fe
  P5       1.0000 0.17774  0.01989  0.49837  Biso   1.000  P
  P6       1.0000 0.20580  0.32314  0.61051  Biso   1.000  P
  O23      1.0000 0.13235  0.95595  0.53193  Biso   1.000  O
  O24      1.0000 0.11947  0.03433  0.45588  Biso   1.000  O
  O25      1.0000 0.19314  0.10652  0.52391  Biso   1.000  O
  O26      1.0000 0.26431  0.98122  0.48257  Biso   1.000  O
  O27      1.0000 0.17966  0.27523  0.56682  Biso   1.000  O
  O28      1.0000 0.26422  0.26422  0.63918  Biso   1.000  O
  O29      1.0000 0.26189  0.40366  0.59629  Biso   1.000  O
  O30      1.0000 0.12859  0.35603  0.63817  Biso   1.000  O
  O31      1.0000 0.98927  0.16977  0.43027  Biso   1.000  O
  O32      1.0000 0.08206  0.24088  0.49063  Biso   1.000  O
  O33      1.0000 0.00795  0.08464  0.52439  Biso   1.000  O
  Fe7      1.0000 0.59770  0.68128  0.05054  Biso   1.000  Fe
  Fe8      1.0000 0.50794  0.45062  0.04689  Biso   1.000  Fe
  P7       1.0000 0.67774  0.51989  0.99837  Biso   1.000  P
  P8       1.0000 0.70580  0.82314  0.11051  Biso   1.000  P
  O34      1.0000 0.63235  0.45595  0.03193  Biso   1.000  O
  O35      1.0000 0.61947  0.53433  0.95588  Biso   1.000  O
  O36      1.0000 0.69314  0.60652  0.02391  Biso   1.000  O
  O37      1.0000 0.76431  0.48122  0.98257  Biso   1.000  O
  O38      1.0000 0.67966  0.77523  0.06682  Biso   1.000  O
  O39      1.0000 0.76422  0.76422  0.13918  Biso   1.000  O
  O40      1.0000 0.76189  0.90366  0.09629  Biso   1.000  O
  O41      1.0000 0.62859  0.85603  0.13817  Biso   1.000  O
  O42      1.0000 0.48927  0.66977  0.93027  Biso   1.000  O
  O43      1.0000 0.58206  0.74088  0.99063  Biso   1.000  O
  O44      1.0000 0.50795  0.58464  0.02439  Biso   1.000  O
  Fe9      1.0000 0.93128  0.65230  0.30054  Biso   1.000  Fe
  Fe10     1.0000 0.70062  0.74206  0.29689  Biso   1.000  Fe
  P9       1.0000 0.76989  0.57226  0.24837  Biso   1.000  P
  P10      1.0000 0.07314  0.54420  0.36051  Biso   1.000  P
  O45      1.0000 0.70595  0.61765  0.28193  Biso   1.000  O
  O46      1.0000 0.78433  0.63053  0.20588  Biso   1.000  O
  O47      1.0000 0.85652  0.55686  0.27391  Biso   1.000  O
  O48      1.0000 0.73122  0.48569  0.23257  Biso   1.000  O
  O49      1.0000 0.02523  0.57034  0.31682  Biso   1.000  O
  O50      1.0000 0.01422  0.48578  0.38918  Biso   1.000  O
  O51      1.0000 0.15366  0.48811  0.34629  Biso   1.000  O
  O52      1.0000 0.10603  0.62141  0.38817  Biso   1.000  O
  O53      1.0000 0.91977  0.76073  0.18027  Biso   1.000  O
  O54      1.0000 0.99088  0.66794  0.24063  Biso   1.000  O
  O55      1.0000 0.83464  0.74205  0.27439  Biso   1.000  O
  Fe11     1.0000 0.43128  0.15230  0.80054  Biso   1.000  Fe
  Fe12     1.0000 0.20062  0.24206  0.79689  Biso   1.000  Fe
  P11      1.0000 0.26989  0.07226  0.74837  Biso   1.000  P
  P12      1.0000 0.57314  0.04420  0.86051  Biso   1.000  P
  O56      1.0000 0.20595  0.11765  0.78193  Biso   1.000  O
  O57      1.0000 0.28433  0.13053  0.70588  Biso   1.000  O
  O58      1.0000 0.35652  0.05686  0.77391  Biso   1.000  O
  O59      1.0000 0.23122  0.98569  0.73257  Biso   1.000  O
  O60      1.0000 0.52523  0.07034  0.81682  Biso   1.000  O
  O61      1.0000 0.51422  0.98578  0.88918  Biso   1.000  O
  O62      1.0000 0.65366  0.98811  0.84629  Biso   1.000  O
  O63      1.0000 0.60603  0.12141  0.88817  Biso   1.000  O
  O64      1.0000 0.41977  0.26073  0.68027  Biso   1.000  O
  O65      1.0000 0.49088  0.16794  0.74063  Biso   1.000  O
  O66      1.0000 0.33464  0.24205  0.77439  Biso   1.000  O
  Fe13     1.0000 0.56872  0.34770  0.80054  Biso   1.000  Fe
  Fe14     1.0000 0.79938  0.25794  0.79689  Biso   1.000  Fe
  P13      1.0000 0.73011  0.42774  0.74837  Biso   1.000  P
  P14      1.0000 0.42686  0.45580  0.86051  Biso   1.000  P
  O67      1.0000 0.79405  0.38235  0.78193  Biso   1.000  O
  O68      1.0000 0.71567  0.36947  0.70588  Biso   1.000  O
  O69      1.0000 0.64348  0.44314  0.77391  Biso   1.000  O
  O70      1.0000 0.76878  0.51431  0.73257  Biso   1.000  O
  O71      1.0000 0.47477  0.42966  0.81682  Biso   1.000  O
  O72      1.0000 0.48578  0.51422  0.88918  Biso   1.000  O
  O73      1.0000 0.34634  0.51189  0.84629  Biso   1.000  O
  O74      1.0000 0.39397  0.37859  0.88817  Biso   1.000  O
  O75      1.0000 0.58023  0.23927  0.68027  Biso   1.000  O
  O76      1.0000 0.50912  0.33206  0.74063  Biso   1.000  O
  O77      1.0000 0.66536  0.25795  0.77439  Biso   1.000  O
  Fe15     1.0000 0.06872  0.84770  0.30054  Biso   1.000  Fe
  Fe16     1.0000 0.29938  0.75794  0.29689  Biso   1.000  Fe
  P15      1.0000 0.23011  0.92774  0.24837  Biso   1.000  P
  P16      1.0000 0.92686  0.95580  0.36051  Biso   1.000  P
  O78      1.0000 0.29405  0.88235  0.28193  Biso   1.000  O
  O79      1.0000 0.21567  0.86947  0.20588  Biso   1.000  O
  O80      1.0000 0.14348  0.94314  0.27391  Biso   1.000  O
  O81      1.0000 0.26878  0.01431  0.23257  Biso   1.000  O
  O82      1.0000 0.97477  0.92966  0.31682  Biso   1.000  O
  O83      1.0000 0.98578  0.01422  0.38918  Biso   1.000  O
  O84      1.0000 0.84634  0.01189  0.34629  Biso   1.000  O
  O85      1.0000 0.89397  0.87859  0.38817  Biso   1.000  O
  O86      1.0000 0.08023  0.73927  0.18027  Biso   1.000  O
  O87      1.0000 0.00912  0.83206  0.24063  Biso   1.000  O
  O88      1.0000 0.16536  0.75795  0.27439  Biso   1.000  O
  Fe17     1.0000 0.59770  0.18128  0.94946  Biso   1.000  Fe
  Fe18     1.0000 0.50794  0.95062  0.95311  Biso   1.000  Fe
  P17      1.0000 0.67774  0.01989  0.00163  Biso   1.000  P
  P18      1.0000 0.70580  0.32314  0.88949  Biso   1.000  P
  O89      1.0000 0.63235  0.95595  0.96807  Biso   1.000  O
  O90      1.0000 0.61947  0.03433  0.04412  Biso   1.000  O
  O91      1.0000 0.69314  0.10652  0.97609  Biso   1.000  O
  O92      1.0000 0.76431  0.98122  0.01743  Biso   1.000  O
  O93      1.0000 0.67966  0.27523  0.93318  Biso   1.000  O
  O94      1.0000 0.76422  0.26422  0.86082  Biso   1.000  O
  O95      1.0000 0.76189  0.40366  0.90371  Biso   1.000  O
  O96      1.0000 0.62859  0.35603  0.86183  Biso   1.000  O
  O97      1.0000 0.48927  0.16977  0.06973  Biso   1.000  O
  O98      1.0000 0.58206  0.24088  0.00937  Biso   1.000  O
  O99      1.0000 0.50795  0.08464  0.97561  Biso   1.000  O
  Fe19     1.0000 0.09770  0.68128  0.44946  Biso   1.000  Fe
  Fe20     1.0000 0.00794  0.45062  0.45311  Biso   1.000  Fe
  P19      1.0000 0.17774  0.51989  0.50163  Biso   1.000  P
  P20      1.0000 0.20580  0.82314  0.38949  Biso   1.000  P
  O100     1.0000 0.13235  0.45595  0.46807  Biso   1.000  O
  O101     1.0000 0.11947  0.53433  0.54412  Biso   1.000  O
  O102     1.0000 0.19314  0.60652  0.47609  Biso   1.000  O
  O103     1.0000 0.26431  0.48122  0.51743  Biso   1.000  O
  O104     1.0000 0.17966  0.77523  0.43318  Biso   1.000  O
  O105     1.0000 0.26422  0.76422  0.36082  Biso   1.000  O
  O106     1.0000 0.26189  0.90366  0.40371  Biso   1.000  O
  O107     1.0000 0.12859  0.85603  0.36183  Biso   1.000  O
  O108     1.0000 0.98927  0.66977  0.56973  Biso   1.000  O
  O109     1.0000 0.08206  0.74088  0.50937  Biso   1.000  O
  O110     1.0000 0.00795  0.58464  0.47561  Biso   1.000  O
  Fe21     1.0000 0.90230  0.81872  0.44946  Biso   1.000  Fe
  Fe22     1.0000 0.99206  0.04938  0.45311  Biso   1.000  Fe
  P21      1.0000 0.82226  0.98011  0.50163  Biso   1.000  P
  P22      1.0000 0.79420  0.67686  0.38949  Biso   1.000  P
  O111     1.0000 0.86765  0.04405  0.46807  Biso   1.000  O
  O112     1.0000 0.88053  0.96567  0.54412  Biso   1.000  O
  O113     1.0000 0.80686  0.89348  0.47609  Biso   1.000  O
  O114     1.0000 0.73569  0.01878  0.51743  Biso   1.000  O
  O115     1.0000 0.82034  0.72477  0.43318  Biso   1.000  O
  O116     1.0000 0.73578  0.73578  0.36082  Biso   1.000  O
  O117     1.0000 0.73811  0.59634  0.40371  Biso   1.000  O
  O118     1.0000 0.87141  0.64397  0.36183  Biso   1.000  O
  O119     1.0000 0.01073  0.83023  0.56973  Biso   1.000  O
  O120     1.0000 0.91794  0.75912  0.50937  Biso   1.000  O
  O121     1.0000 0.99205  0.91536  0.47561  Biso   1.000  O
  Fe23     1.0000 0.40230  0.31872  0.94946  Biso   1.000  Fe
  Fe24     1.0000 0.49206  0.54938  0.95311  Biso   1.000  Fe
  P23      1.0000 0.32226  0.48011  0.00163  Biso   1.000  P
  P24      1.0000 0.29420  0.17686  0.88949  Biso   1.000  P
  O122     1.0000 0.36765  0.54405  0.96807  Biso   1.000  O
  O123     1.0000 0.38053  0.46567  0.04412  Biso   1.000  O
  O124     1.0000 0.30686  0.39348  0.97609  Biso   1.000  O
  O125     1.0000 0.23569  0.51878  0.01743  Biso   1.000  O
  O126     1.0000 0.32034  0.22477  0.93318  Biso   1.000  O
  O127     1.0000 0.23578  0.23578  0.86082  Biso   1.000  O
  O128     1.0000 0.23811  0.09634  0.90371  Biso   1.000  O
  O129     1.0000 0.37141  0.14397  0.86183  Biso   1.000  O
  O130     1.0000 0.51073  0.33023  0.06973  Biso   1.000  O
  O131     1.0000 0.41794  0.25912  0.00937  Biso   1.000  O
  O132     1.0000 0.49205  0.41536  0.97561  Biso   1.000  O
  Fe25     1.0000 0.06872  0.34770  0.69946  Biso   1.000  Fe
  Fe26     1.0000 0.29938  0.25794  0.70311  Biso   1.000  Fe
  P25      1.0000 0.23011  0.42774  0.75163  Biso   1.000  P
  P26      1.0000 0.92686  0.45580  0.63949  Biso   1.000  P
  O133     1.0000 0.29405  0.38235  0.71807  Biso   1.000  O
  O134     1.0000 0.21567  0.36947  0.79412  Biso   1.000  O
  O135     1.0000 0.14348  0.44314  0.72609  Biso   1.000  O
  O136     1.0000 0.26878  0.51431  0.76743  Biso   1.000  O
  O137     1.0000 0.97477  0.42966  0.68318  Biso   1.000  O
  O138     1.0000 0.98578  0.51422  0.61082  Biso   1.000  O
  O139     1.0000 0.84634  0.51189  0.65371  Biso   1.000  O
  O140     1.0000 0.89397  0.37859  0.61183  Biso   1.000  O
  O141     1.0000 0.08023  0.23927  0.81973  Biso   1.000  O
  O142     1.0000 0.00912  0.33206  0.75937  Biso   1.000  O
  O143     1.0000 0.16536  0.25795  0.72561  Biso   1.000  O
  Fe27     1.0000 0.56872  0.84770  0.19946  Biso   1.000  Fe
  Fe28     1.0000 0.79938  0.75794  0.20311  Biso   1.000  Fe
  P27      1.0000 0.73011  0.92774  0.25163  Biso   1.000  P
  P28      1.0000 0.42686  0.95580  0.13949  Biso   1.000  P
  O144     1.0000 0.79405  0.88235  0.21807  Biso   1.000  O
  O145     1.0000 0.71567  0.86947  0.29412  Biso   1.000  O
  O146     1.0000 0.64348  0.94314  0.22609  Biso   1.000  O
  O147     1.0000 0.76878  0.01431  0.26743  Biso   1.000  O
  O148     1.0000 0.47477  0.92966  0.18318  Biso   1.000  O
  O149     1.0000 0.48578  0.01422  0.11082  Biso   1.000  O
  O150     1.0000 0.34634  0.01189  0.15371  Biso   1.000  O
  O151     1.0000 0.39397  0.87859  0.11183  Biso   1.000  O
  O152     1.0000 0.58023  0.73927  0.31973  Biso   1.000  O
  O153     1.0000 0.50912  0.83206  0.25937  Biso   1.000  O
  O154     1.0000 0.66536  0.75795  0.22561  Biso   1.000  O
  Fe29     1.0000 0.43128  0.65230  0.19946  Biso   1.000  Fe
  Fe30     1.0000 0.20062  0.74206  0.20311  Biso   1.000  Fe
  P29      1.0000 0.26989  0.57226  0.25163  Biso   1.000  P
  P30      1.0000 0.57314  0.54420  0.13949  Biso   1.000  P
  O155     1.0000 0.20595  0.61765  0.21807  Biso   1.000  O
  O156     1.0000 0.28433  0.63053  0.29412  Biso   1.000  O
  O157     1.0000 0.35652  0.55686  0.22609  Biso   1.000  O
  O158     1.0000 0.23122  0.48569  0.26743  Biso   1.000  O
  O159     1.0000 0.52523  0.57034  0.18318  Biso   1.000  O
  O160     1.0000 0.51422  0.48578  0.11082  Biso   1.000  O
  O161     1.0000 0.65366  0.48811  0.15371  Biso   1.000  O
  O162     1.0000 0.60603  0.62141  0.11183  Biso   1.000  O
  O163     1.0000 0.41977  0.76073  0.31973  Biso   1.000  O
  O164     1.0000 0.49088  0.66794  0.25937  Biso   1.000  O
  O165     1.0000 0.33464  0.74205  0.22561  Biso   1.000  O
  Fe31     1.0000 0.93128  0.15230  0.69946  Biso   1.000  Fe
  Fe32     1.0000 0.70062  0.24206  0.70311  Biso   1.000  Fe
  P31      1.0000 0.76989  0.07226  0.75163  Biso   1.000  P
  P32      1.0000 0.07314  0.04420  0.63949  Biso   1.000  P
  O166     1.0000 0.70595  0.11765  0.71807  Biso   1.000  O
  O167     1.0000 0.78433  0.13053  0.79412  Biso   1.000  O
  O168     1.0000 0.85652  0.05686  0.72609  Biso   1.000  O
  O169     1.0000 0.73122  0.98569  0.76743  Biso   1.000  O
  O170     1.0000 0.02523  0.07034  0.68318  Biso   1.000  O
  O171     1.0000 0.01422  0.98578  0.61082  Biso   1.000  O
  O172     1.0000 0.15366  0.98811  0.65371  Biso   1.000  O
  O173     1.0000 0.10603  0.12141  0.61183  Biso   1.000  O
  O174     1.0000 0.91977  0.26073  0.81973  Biso   1.000  O
  O175     1.0000 0.99088  0.16794  0.75937  Biso   1.000  O
  O176     1.0000 0.83464  0.24205  0.72561  Biso   1.000  O
  P33      1.0000 0.50000  0.75000  0.96119  Biso   1.000  P
  O177     1.0000 0.50000  0.75000  0.07545  Biso   1.000  O
  P34      1.0000 0.00000  0.25000  0.46119  Biso   1.000  P
  O178     1.0000 0.00000  0.25000  0.57545  Biso   1.000  O
  P35      1.0000 0.00000  0.75000  0.21119  Biso   1.000  P
  O179     1.0000 0.00000  0.75000  0.32545  Biso   1.000  O
  P36      1.0000 0.50000  0.25000  0.71119  Biso   1.000  P
  O180     1.0000 0.50000  0.25000  0.82545  Biso   1.000  O
  P37      1.0000 0.50000  0.25000  0.03881  Biso   1.000  P
  O181     1.0000 0.50000  0.25000  0.92455  Biso   1.000  O
  P38      1.0000 0.00000  0.75000  0.53881  Biso   1.000  P
  O182     1.0000 0.00000  0.75000  0.42455  Biso   1.000  O
  P39      1.0000 0.00000  0.25000  0.78881  Biso   1.000  P
  O183     1.0000 0.00000  0.25000  0.67455  Biso   1.000  O
  P40      1.0000 0.50000  0.75000  0.28881  Biso   1.000  P
  O184     1.0000 0.50000  0.75000  0.17455  Biso   1.000  O
