data_image0
_cell_length_a       12.3829
_cell_length_b       8.597
_cell_length_c       12.6633
_cell_angle_alpha    90
_cell_angle_beta     109.984
_cell_angle_gamma    90

_symmetry_space_group_name_H-M    "P 1"
_symmetry_int_tables_number       1

loop_
  _symmetry_equiv_pos_as_xyz
  'x, y, z'

loop_
  _atom_site_label
  _atom_site_occupancy
  _atom_site_fract_x
  _atom_site_fract_y
  _atom_site_fract_z
  _atom_site_thermal_displace_type
  _atom_site_B_iso_or_equiv
  _atom_site_type_symbol
  Cu1      1.0000 0.14800  0.20491  0.25965  Biso   1.000  Cu
  Cu2      1.0000 0.40627  0.29567  0.66208  Biso   1.000  Cu
  C1       1.0000 0.28240  0.23230  0.39960  Biso   1.000  C
  N1       1.0000 0.33530  0.25230  0.49290  Biso   1.000  N
  C2       1.0000 0.07190  0.00200  0.23550  Biso   1.000  C
  C3       1.0000 0.52270  0.11430  0.71660  Biso   1.000  C
  C4       1.0000 0.49990  0.49140  0.68840  Biso   1.000  C
  C5       1.0000 0.05290  0.39640  0.21410  Biso   1.000  C
  C6       1.0000 0.28530  0.29160  0.72980  Biso   1.000  C
  Cu3      1.0000 0.35200  0.20491  0.24035  Biso   1.000  Cu
  Cu4      1.0000 0.09373  0.29567  0.83792  Biso   1.000  Cu
  C7       1.0000 0.21760  0.23230  0.10040  Biso   1.000  C
  N2       1.0000 0.16470  0.25230  0.00710  Biso   1.000  N
  C8       1.0000 0.42810  0.00200  0.26450  Biso   1.000  C
  C9       1.0000 0.97730  0.11430  0.78340  Biso   1.000  C
  C10      1.0000 0.00010  0.49140  0.81160  Biso   1.000  C
  C11      1.0000 0.44710  0.39640  0.28590  Biso   1.000  C
  C12      1.0000 0.21470  0.29160  0.77020  Biso   1.000  C
  Cu5      1.0000 0.85200  0.79509  0.74035  Biso   1.000  Cu
  Cu6      1.0000 0.59373  0.70433  0.33792  Biso   1.000  Cu
  C13      1.0000 0.71760  0.76770  0.60040  Biso   1.000  C
  N3       1.0000 0.66470  0.74770  0.50710  Biso   1.000  N
  C14      1.0000 0.92810  0.99800  0.76450  Biso   1.000  C
  C15      1.0000 0.47730  0.88570  0.28340  Biso   1.000  C
  C16      1.0000 0.50010  0.50860  0.31160  Biso   1.000  C
  C17      1.0000 0.94710  0.60360  0.78590  Biso   1.000  C
  C18      1.0000 0.71470  0.70840  0.27020  Biso   1.000  C
  Cu7      1.0000 0.64800  0.79509  0.75965  Biso   1.000  Cu
  Cu8      1.0000 0.90627  0.70433  0.16208  Biso   1.000  Cu
  C19      1.0000 0.78240  0.76770  0.89960  Biso   1.000  C
  N4       1.0000 0.83530  0.74770  0.99290  Biso   1.000  N
  C20      1.0000 0.57190  0.99800  0.73550  Biso   1.000  C
  C21      1.0000 0.02270  0.88570  0.21660  Biso   1.000  C
  C22      1.0000 0.99990  0.50860  0.18840  Biso   1.000  C
  C23      1.0000 0.55290  0.60360  0.71410  Biso   1.000  C
  C24      1.0000 0.78530  0.70840  0.22980  Biso   1.000  C
