data_image0
_cell_length_a       9.042
_cell_length_b       9.042
_cell_length_c       12.027
_cell_angle_alpha    90
_cell_angle_beta     90
_cell_angle_gamma    90

_symmetry_space_group_name_H-M    P 1
_symmetry_int_tables_number       1

loop_
  _symmetry_equiv_pos_as_xyz
  'x, y, z'

loop_
  _atom_site_label
  _atom_site_occupancy
  _atom_site_fract_x
  _atom_site_fract_y
  _atom_site_fract_z
  _atom_site_thermal_displace_type
  _atom_site_B_iso_or_equiv
  _atom_site_type_symbol
  Cd1      1.0000 0.69022  0.69022  0.00000  Biso   1.000  Cd
  Cd2      1.0000 0.30978  0.30978  0.50000  Biso   1.000  Cd
  Cd3      1.0000 0.80978  0.19022  0.75000  Biso   1.000  Cd
  Cd4      1.0000 0.19022  0.80978  0.25000  Biso   1.000  Cd
  C1       1.0000 0.73300  0.88760  0.89390  Biso   1.000  C
  C2       1.0000 0.26700  0.11240  0.39390  Biso   1.000  C
  C3       1.0000 0.61240  0.23300  0.64390  Biso   1.000  C
  C4       1.0000 0.38760  0.76700  0.14390  Biso   1.000  C
  C5       1.0000 0.76700  0.38760  0.85610  Biso   1.000  C
  C6       1.0000 0.23300  0.61240  0.35610  Biso   1.000  C
  C7       1.0000 0.88760  0.73300  0.10610  Biso   1.000  C
  C8       1.0000 0.11240  0.26700  0.60610  Biso   1.000  C
  N1       1.0000 0.48930  0.73940  0.09410  Biso   1.000  N
  N2       1.0000 0.51070  0.26060  0.59410  Biso   1.000  N
  N3       1.0000 0.76060  0.98930  0.84410  Biso   1.000  N
  N4       1.0000 0.23940  0.01070  0.34410  Biso   1.000  N
  N5       1.0000 0.01070  0.23940  0.65590  Biso   1.000  N
  N6       1.0000 0.98930  0.76060  0.15590  Biso   1.000  N
  N7       1.0000 0.73940  0.48930  0.90590  Biso   1.000  N
  N8       1.0000 0.26060  0.51070  0.40590  Biso   1.000  N
