data_image0
_cell_length_a       12.7956
_cell_length_b       12.7956
_cell_length_c       12.7956
_cell_angle_alpha    90
_cell_angle_beta     90
_cell_angle_gamma    90

_symmetry_space_group_name_H-M    "P 1"
_symmetry_int_tables_number       1

loop_
  _symmetry_equiv_pos_as_xyz
  'x, y, z'

loop_
  _atom_site_label
  _atom_site_occupancy
  _atom_site_fract_x
  _atom_site_fract_y
  _atom_site_fract_z
  _atom_site_thermal_displace_type
  _atom_site_B_iso_or_equiv
  _atom_site_type_symbol
  N1       1.0000 0.64284  0.93734  0.95494  Biso   1.000  N
  N2       1.0000 0.72578  0.97966  0.96379  Biso   1.000  N
  N3       1.0000 0.80774  0.01789  0.97022  Biso   1.000  N
  N4       1.0000 0.85716  0.06266  0.45494  Biso   1.000  N
  N5       1.0000 0.77422  0.02034  0.46379  Biso   1.000  N
  N6       1.0000 0.69226  0.98211  0.47022  Biso   1.000  N
  N7       1.0000 0.35716  0.43734  0.54506  Biso   1.000  N
  N8       1.0000 0.27422  0.47966  0.53621  Biso   1.000  N
  N9       1.0000 0.19226  0.51789  0.52978  Biso   1.000  N
  N10      1.0000 0.14284  0.56266  0.04506  Biso   1.000  N
  N11      1.0000 0.22578  0.52034  0.03621  Biso   1.000  N
  N12      1.0000 0.30774  0.48211  0.02978  Biso   1.000  N
  N13      1.0000 0.95494  0.64284  0.93734  Biso   1.000  N
  N14      1.0000 0.96379  0.72578  0.97966  Biso   1.000  N
  N15      1.0000 0.97022  0.80774  0.01789  Biso   1.000  N
  N16      1.0000 0.45494  0.85716  0.06266  Biso   1.000  N
  N17      1.0000 0.46379  0.77422  0.02034  Biso   1.000  N
  N18      1.0000 0.47022  0.69226  0.98211  Biso   1.000  N
  N19      1.0000 0.54506  0.35716  0.43734  Biso   1.000  N
  N20      1.0000 0.53621  0.27422  0.47966  Biso   1.000  N
  N21      1.0000 0.52978  0.19226  0.51789  Biso   1.000  N
  N22      1.0000 0.04506  0.14284  0.56266  Biso   1.000  N
  N23      1.0000 0.03621  0.22578  0.52034  Biso   1.000  N
  N24      1.0000 0.02978  0.30774  0.48211  Biso   1.000  N
  N25      1.0000 0.93734  0.95494  0.64284  Biso   1.000  N
  N26      1.0000 0.97966  0.96379  0.72578  Biso   1.000  N
  N27      1.0000 0.01789  0.97022  0.80774  Biso   1.000  N
  N28      1.0000 0.06266  0.45494  0.85716  Biso   1.000  N
  N29      1.0000 0.02034  0.46379  0.77422  Biso   1.000  N
  N30      1.0000 0.98211  0.47022  0.69226  Biso   1.000  N
  N31      1.0000 0.43734  0.54506  0.35716  Biso   1.000  N
  N32      1.0000 0.47966  0.53621  0.27422  Biso   1.000  N
  N33      1.0000 0.51789  0.52978  0.19226  Biso   1.000  N
  N34      1.0000 0.56266  0.04506  0.14284  Biso   1.000  N
  N35      1.0000 0.52034  0.03621  0.22578  Biso   1.000  N
  N36      1.0000 0.48211  0.02978  0.30774  Biso   1.000  N
  N37      1.0000 0.35716  0.06266  0.04506  Biso   1.000  N
  N38      1.0000 0.27422  0.02034  0.03621  Biso   1.000  N
  N39      1.0000 0.19226  0.98211  0.02978  Biso   1.000  N
  N40      1.0000 0.14284  0.93734  0.54506  Biso   1.000  N
  N41      1.0000 0.22578  0.97966  0.53621  Biso   1.000  N
  N42      1.0000 0.30774  0.01789  0.52978  Biso   1.000  N
  N43      1.0000 0.64284  0.56266  0.45494  Biso   1.000  N
  N44      1.0000 0.72578  0.52034  0.46379  Biso   1.000  N
  N45      1.0000 0.80774  0.48211  0.47022  Biso   1.000  N
  N46      1.0000 0.85716  0.43734  0.95494  Biso   1.000  N
  N47      1.0000 0.77422  0.47966  0.96379  Biso   1.000  N
  N48      1.0000 0.69226  0.51789  0.97022  Biso   1.000  N
  N49      1.0000 0.04506  0.35716  0.06266  Biso   1.000  N
  N50      1.0000 0.03621  0.27422  0.02034  Biso   1.000  N
  N51      1.0000 0.02978  0.19226  0.98211  Biso   1.000  N
  N52      1.0000 0.54506  0.14284  0.93734  Biso   1.000  N
  N53      1.0000 0.53621  0.22578  0.97966  Biso   1.000  N
  N54      1.0000 0.52978  0.30774  0.01789  Biso   1.000  N
  N55      1.0000 0.45494  0.64284  0.56266  Biso   1.000  N
  N56      1.0000 0.46379  0.72578  0.52034  Biso   1.000  N
  N57      1.0000 0.47022  0.80774  0.48211  Biso   1.000  N
  N58      1.0000 0.95494  0.85716  0.43734  Biso   1.000  N
  N59      1.0000 0.96379  0.77422  0.47966  Biso   1.000  N
  N60      1.0000 0.97022  0.69226  0.51789  Biso   1.000  N
  N61      1.0000 0.06266  0.04506  0.35716  Biso   1.000  N
  N62      1.0000 0.02034  0.03621  0.27422  Biso   1.000  N
  N63      1.0000 0.98211  0.02978  0.19226  Biso   1.000  N
  N64      1.0000 0.93734  0.54506  0.14284  Biso   1.000  N
  N65      1.0000 0.97966  0.53621  0.22578  Biso   1.000  N
  N66      1.0000 0.01789  0.52978  0.30774  Biso   1.000  N
  N67      1.0000 0.56266  0.45494  0.64284  Biso   1.000  N
  N68      1.0000 0.52034  0.46379  0.72578  Biso   1.000  N
  N69      1.0000 0.48211  0.47022  0.80774  Biso   1.000  N
  N70      1.0000 0.43734  0.95494  0.85716  Biso   1.000  N
  N71      1.0000 0.47966  0.96379  0.77422  Biso   1.000  N
  N72      1.0000 0.51789  0.97022  0.69226  Biso   1.000  N
  Fe1      1.0000 0.50000  0.00000  0.00000  Biso   1.000  Fe
  Fe2      1.0000 0.00000  0.00000  0.50000  Biso   1.000  Fe
  Fe3      1.0000 0.50000  0.50000  0.50000  Biso   1.000  Fe
  Fe4      1.0000 0.00000  0.50000  0.00000  Biso   1.000  Fe
  Na1      1.0000 0.00000  0.00000  0.00000  Biso   1.000  Na
  Na2      1.0000 0.50000  0.00000  0.50000  Biso   1.000  Na
  Na3      1.0000 0.00000  0.50000  0.50000  Biso   1.000  Na
  Na4      1.0000 0.50000  0.50000  0.00000  Biso   1.000  Na
