data_image0
_cell_length_a       12.8259
_cell_length_b       12.8259
_cell_length_c       12.8259
_cell_angle_alpha    90
_cell_angle_beta     90
_cell_angle_gamma    90

_symmetry_space_group_name_H-M    "P 1"
_symmetry_int_tables_number       1

loop_
  _symmetry_equiv_pos_as_xyz
  'x, y, z'

loop_
  _atom_site_label
  _atom_site_occupancy
  _atom_site_fract_x
  _atom_site_fract_y
  _atom_site_fract_z
  _atom_site_thermal_displace_type
  _atom_site_B_iso_or_equiv
  _atom_site_type_symbol
  N1       1.0000 0.64298  0.93825  0.95534  Biso   1.000  N
  N2       1.0000 0.72564  0.98011  0.96431  Biso   1.000  N
  N3       1.0000 0.80746  0.01774  0.97076  Biso   1.000  N
  N4       1.0000 0.85702  0.06175  0.45534  Biso   1.000  N
  N5       1.0000 0.77436  0.01989  0.46431  Biso   1.000  N
  N6       1.0000 0.69254  0.98226  0.47076  Biso   1.000  N
  N7       1.0000 0.35702  0.43825  0.54466  Biso   1.000  N
  N8       1.0000 0.27436  0.48011  0.53569  Biso   1.000  N
  N9       1.0000 0.19254  0.51774  0.52924  Biso   1.000  N
  N10      1.0000 0.14298  0.56175  0.04466  Biso   1.000  N
  N11      1.0000 0.22564  0.51989  0.03569  Biso   1.000  N
  N12      1.0000 0.30746  0.48226  0.02924  Biso   1.000  N
  N13      1.0000 0.95534  0.64298  0.93825  Biso   1.000  N
  N14      1.0000 0.96431  0.72564  0.98011  Biso   1.000  N
  N15      1.0000 0.97076  0.80746  0.01774  Biso   1.000  N
  N16      1.0000 0.45534  0.85702  0.06175  Biso   1.000  N
  N17      1.0000 0.46431  0.77436  0.01989  Biso   1.000  N
  N18      1.0000 0.47076  0.69254  0.98226  Biso   1.000  N
  N19      1.0000 0.54466  0.35702  0.43825  Biso   1.000  N
  N20      1.0000 0.53569  0.27436  0.48011  Biso   1.000  N
  N21      1.0000 0.52924  0.19254  0.51774  Biso   1.000  N
  N22      1.0000 0.04466  0.14298  0.56175  Biso   1.000  N
  N23      1.0000 0.03569  0.22564  0.51989  Biso   1.000  N
  N24      1.0000 0.02924  0.30746  0.48226  Biso   1.000  N
  N25      1.0000 0.93825  0.95534  0.64298  Biso   1.000  N
  N26      1.0000 0.98011  0.96431  0.72564  Biso   1.000  N
  N27      1.0000 0.01774  0.97076  0.80746  Biso   1.000  N
  N28      1.0000 0.06175  0.45534  0.85702  Biso   1.000  N
  N29      1.0000 0.01989  0.46431  0.77436  Biso   1.000  N
  N30      1.0000 0.98226  0.47076  0.69254  Biso   1.000  N
  N31      1.0000 0.43825  0.54466  0.35702  Biso   1.000  N
  N32      1.0000 0.48011  0.53569  0.27436  Biso   1.000  N
  N33      1.0000 0.51774  0.52924  0.19254  Biso   1.000  N
  N34      1.0000 0.56175  0.04466  0.14298  Biso   1.000  N
  N35      1.0000 0.51989  0.03569  0.22564  Biso   1.000  N
  N36      1.0000 0.48226  0.02924  0.30746  Biso   1.000  N
  N37      1.0000 0.35702  0.06175  0.04466  Biso   1.000  N
  N38      1.0000 0.27436  0.01989  0.03569  Biso   1.000  N
  N39      1.0000 0.19254  0.98226  0.02924  Biso   1.000  N
  N40      1.0000 0.14298  0.93825  0.54466  Biso   1.000  N
  N41      1.0000 0.22564  0.98011  0.53569  Biso   1.000  N
  N42      1.0000 0.30746  0.01774  0.52924  Biso   1.000  N
  N43      1.0000 0.64298  0.56175  0.45534  Biso   1.000  N
  N44      1.0000 0.72564  0.51989  0.46431  Biso   1.000  N
  N45      1.0000 0.80746  0.48226  0.47076  Biso   1.000  N
  N46      1.0000 0.85702  0.43825  0.95534  Biso   1.000  N
  N47      1.0000 0.77436  0.48011  0.96431  Biso   1.000  N
  N48      1.0000 0.69254  0.51774  0.97076  Biso   1.000  N
  N49      1.0000 0.04466  0.35702  0.06175  Biso   1.000  N
  N50      1.0000 0.03569  0.27436  0.01989  Biso   1.000  N
  N51      1.0000 0.02924  0.19254  0.98226  Biso   1.000  N
  N52      1.0000 0.54466  0.14298  0.93825  Biso   1.000  N
  N53      1.0000 0.53569  0.22564  0.98011  Biso   1.000  N
  N54      1.0000 0.52924  0.30746  0.01774  Biso   1.000  N
  N55      1.0000 0.45534  0.64298  0.56175  Biso   1.000  N
  N56      1.0000 0.46431  0.72564  0.51989  Biso   1.000  N
  N57      1.0000 0.47076  0.80746  0.48226  Biso   1.000  N
  N58      1.0000 0.95534  0.85702  0.43825  Biso   1.000  N
  N59      1.0000 0.96431  0.77436  0.48011  Biso   1.000  N
  N60      1.0000 0.97076  0.69254  0.51774  Biso   1.000  N
  N61      1.0000 0.06175  0.04466  0.35702  Biso   1.000  N
  N62      1.0000 0.01989  0.03569  0.27436  Biso   1.000  N
  N63      1.0000 0.98226  0.02924  0.19254  Biso   1.000  N
  N64      1.0000 0.93825  0.54466  0.14298  Biso   1.000  N
  N65      1.0000 0.98011  0.53569  0.22564  Biso   1.000  N
  N66      1.0000 0.01774  0.52924  0.30746  Biso   1.000  N
  N67      1.0000 0.56175  0.45534  0.64298  Biso   1.000  N
  N68      1.0000 0.51989  0.46431  0.72564  Biso   1.000  N
  N69      1.0000 0.48226  0.47076  0.80746  Biso   1.000  N
  N70      1.0000 0.43825  0.95534  0.85702  Biso   1.000  N
  N71      1.0000 0.48011  0.96431  0.77436  Biso   1.000  N
  N72      1.0000 0.51774  0.97076  0.69254  Biso   1.000  N
  Fe1      1.0000 0.50000  0.00000  0.00000  Biso   1.000  Fe
  Fe2      1.0000 0.00000  0.00000  0.50000  Biso   1.000  Fe
  Fe3      1.0000 0.50000  0.50000  0.50000  Biso   1.000  Fe
  Fe4      1.0000 0.00000  0.50000  0.00000  Biso   1.000  Fe
  Na1      1.0000 0.00000  0.00000  0.00000  Biso   1.000  Na
  Na2      1.0000 0.50000  0.00000  0.50000  Biso   1.000  Na
  Na3      1.0000 0.00000  0.50000  0.50000  Biso   1.000  Na
  Na4      1.0000 0.50000  0.50000  0.00000  Biso   1.000  Na
