data_image0
_cell_length_a       13.2235
_cell_length_b       13.2235
_cell_length_c       13.2235
_cell_angle_alpha    90
_cell_angle_beta     90
_cell_angle_gamma    90

_symmetry_space_group_name_H-M    "P 1"
_symmetry_int_tables_number       1

loop_
  _symmetry_equiv_pos_as_xyz
  'x, y, z'

loop_
  _atom_site_label
  _atom_site_occupancy
  _atom_site_fract_x
  _atom_site_fract_y
  _atom_site_fract_z
  _atom_site_thermal_displace_type
  _atom_site_B_iso_or_equiv
  _atom_site_type_symbol
  N1       1.0000 0.63712  0.93657  0.95544  Biso   1.000  N
  N2       1.0000 0.71552  0.98061  0.96162  Biso   1.000  N
  N3       1.0000 0.79247  0.02080  0.96570  Biso   1.000  N
  N4       1.0000 0.86288  0.06343  0.45544  Biso   1.000  N
  N5       1.0000 0.78448  0.01939  0.46162  Biso   1.000  N
  N6       1.0000 0.70753  0.97920  0.46570  Biso   1.000  N
  N7       1.0000 0.36288  0.43657  0.54456  Biso   1.000  N
  N8       1.0000 0.28448  0.48061  0.53838  Biso   1.000  N
  N9       1.0000 0.20753  0.52080  0.53430  Biso   1.000  N
  N10      1.0000 0.13712  0.56343  0.04456  Biso   1.000  N
  N11      1.0000 0.21552  0.51939  0.03838  Biso   1.000  N
  N12      1.0000 0.29247  0.47920  0.03430  Biso   1.000  N
  N13      1.0000 0.95544  0.63712  0.93657  Biso   1.000  N
  N14      1.0000 0.96162  0.71552  0.98061  Biso   1.000  N
  N15      1.0000 0.96570  0.79247  0.02080  Biso   1.000  N
  N16      1.0000 0.45544  0.86288  0.06343  Biso   1.000  N
  N17      1.0000 0.46162  0.78448  0.01939  Biso   1.000  N
  N18      1.0000 0.46570  0.70753  0.97920  Biso   1.000  N
  N19      1.0000 0.54456  0.36288  0.43657  Biso   1.000  N
  N20      1.0000 0.53838  0.28448  0.48061  Biso   1.000  N
  N21      1.0000 0.53430  0.20753  0.52080  Biso   1.000  N
  N22      1.0000 0.04456  0.13712  0.56343  Biso   1.000  N
  N23      1.0000 0.03838  0.21552  0.51939  Biso   1.000  N
  N24      1.0000 0.03430  0.29247  0.47920  Biso   1.000  N
  N25      1.0000 0.93657  0.95544  0.63712  Biso   1.000  N
  N26      1.0000 0.98061  0.96162  0.71552  Biso   1.000  N
  N27      1.0000 0.02080  0.96570  0.79247  Biso   1.000  N
  N28      1.0000 0.06343  0.45544  0.86288  Biso   1.000  N
  N29      1.0000 0.01939  0.46162  0.78448  Biso   1.000  N
  N30      1.0000 0.97920  0.46570  0.70753  Biso   1.000  N
  N31      1.0000 0.43657  0.54456  0.36288  Biso   1.000  N
  N32      1.0000 0.48061  0.53838  0.28448  Biso   1.000  N
  N33      1.0000 0.52080  0.53430  0.20753  Biso   1.000  N
  N34      1.0000 0.56343  0.04456  0.13712  Biso   1.000  N
  N35      1.0000 0.51939  0.03838  0.21552  Biso   1.000  N
  N36      1.0000 0.47920  0.03430  0.29247  Biso   1.000  N
  N37      1.0000 0.36288  0.06343  0.04456  Biso   1.000  N
  N38      1.0000 0.28448  0.01939  0.03838  Biso   1.000  N
  N39      1.0000 0.20753  0.97920  0.03430  Biso   1.000  N
  N40      1.0000 0.13712  0.93657  0.54456  Biso   1.000  N
  N41      1.0000 0.21552  0.98061  0.53838  Biso   1.000  N
  N42      1.0000 0.29247  0.02080  0.53430  Biso   1.000  N
  N43      1.0000 0.63712  0.56343  0.45544  Biso   1.000  N
  N44      1.0000 0.71552  0.51939  0.46162  Biso   1.000  N
  N45      1.0000 0.79247  0.47920  0.46570  Biso   1.000  N
  N46      1.0000 0.86288  0.43657  0.95544  Biso   1.000  N
  N47      1.0000 0.78448  0.48061  0.96162  Biso   1.000  N
  N48      1.0000 0.70753  0.52080  0.96570  Biso   1.000  N
  N49      1.0000 0.04456  0.36288  0.06343  Biso   1.000  N
  N50      1.0000 0.03838  0.28448  0.01939  Biso   1.000  N
  N51      1.0000 0.03430  0.20753  0.97920  Biso   1.000  N
  N52      1.0000 0.54456  0.13712  0.93657  Biso   1.000  N
  N53      1.0000 0.53838  0.21552  0.98061  Biso   1.000  N
  N54      1.0000 0.53430  0.29247  0.02080  Biso   1.000  N
  N55      1.0000 0.45544  0.63712  0.56343  Biso   1.000  N
  N56      1.0000 0.46162  0.71552  0.51939  Biso   1.000  N
  N57      1.0000 0.46570  0.79247  0.47920  Biso   1.000  N
  N58      1.0000 0.95544  0.86288  0.43657  Biso   1.000  N
  N59      1.0000 0.96162  0.78448  0.48061  Biso   1.000  N
  N60      1.0000 0.96570  0.70753  0.52080  Biso   1.000  N
  N61      1.0000 0.06343  0.04456  0.36288  Biso   1.000  N
  N62      1.0000 0.01939  0.03838  0.28448  Biso   1.000  N
  N63      1.0000 0.97920  0.03430  0.20753  Biso   1.000  N
  N64      1.0000 0.93657  0.54456  0.13712  Biso   1.000  N
  N65      1.0000 0.98061  0.53838  0.21552  Biso   1.000  N
  N66      1.0000 0.02080  0.53430  0.29247  Biso   1.000  N
  N67      1.0000 0.56343  0.45544  0.63712  Biso   1.000  N
  N68      1.0000 0.51939  0.46162  0.71552  Biso   1.000  N
  N69      1.0000 0.47920  0.46570  0.79247  Biso   1.000  N
  N70      1.0000 0.43657  0.95544  0.86288  Biso   1.000  N
  N71      1.0000 0.48061  0.96162  0.78448  Biso   1.000  N
  N72      1.0000 0.52080  0.96570  0.70753  Biso   1.000  N
  Fe1      1.0000 0.50000  0.00000  0.00000  Biso   1.000  Fe
  Fe2      1.0000 0.00000  0.00000  0.50000  Biso   1.000  Fe
  Fe3      1.0000 0.50000  0.50000  0.50000  Biso   1.000  Fe
  Fe4      1.0000 0.00000  0.50000  0.00000  Biso   1.000  Fe
  K1       1.0000 0.00000  0.00000  0.00000  Biso   1.000  K
  K2       1.0000 0.50000  0.00000  0.50000  Biso   1.000  K
  K3       1.0000 0.00000  0.50000  0.50000  Biso   1.000  K
  K4       1.0000 0.50000  0.50000  0.00000  Biso   1.000  K
