data_image0
_cell_length_a       13.1319
_cell_length_b       13.1319
_cell_length_c       13.1319
_cell_angle_alpha    90
_cell_angle_beta     90
_cell_angle_gamma    90

_symmetry_space_group_name_H-M    "P 1"
_symmetry_int_tables_number       1

loop_
  _symmetry_equiv_pos_as_xyz
  'x, y, z'

loop_
  _atom_site_label
  _atom_site_occupancy
  _atom_site_fract_x
  _atom_site_fract_y
  _atom_site_fract_z
  _atom_site_thermal_displace_type
  _atom_site_B_iso_or_equiv
  _atom_site_type_symbol
  N1       1.0000 0.63678  0.93413  0.95434  Biso   1.000  N
  N2       1.0000 0.71535  0.97950  0.95918  Biso   1.000  N
  N3       1.0000 0.79275  0.02155  0.96282  Biso   1.000  N
  N4       1.0000 0.86322  0.06587  0.45434  Biso   1.000  N
  N5       1.0000 0.78465  0.02050  0.45918  Biso   1.000  N
  N6       1.0000 0.70725  0.97845  0.46282  Biso   1.000  N
  N7       1.0000 0.36322  0.43413  0.54566  Biso   1.000  N
  N8       1.0000 0.28465  0.47950  0.54082  Biso   1.000  N
  N9       1.0000 0.20725  0.52155  0.53718  Biso   1.000  N
  N10      1.0000 0.13678  0.56587  0.04566  Biso   1.000  N
  N11      1.0000 0.21535  0.52050  0.04082  Biso   1.000  N
  N12      1.0000 0.29275  0.47845  0.03718  Biso   1.000  N
  N13      1.0000 0.95434  0.63678  0.93413  Biso   1.000  N
  N14      1.0000 0.95918  0.71535  0.97950  Biso   1.000  N
  N15      1.0000 0.96282  0.79275  0.02155  Biso   1.000  N
  N16      1.0000 0.45434  0.86322  0.06587  Biso   1.000  N
  N17      1.0000 0.45918  0.78465  0.02050  Biso   1.000  N
  N18      1.0000 0.46282  0.70725  0.97845  Biso   1.000  N
  N19      1.0000 0.54566  0.36322  0.43413  Biso   1.000  N
  N20      1.0000 0.54082  0.28465  0.47950  Biso   1.000  N
  N21      1.0000 0.53718  0.20725  0.52155  Biso   1.000  N
  N22      1.0000 0.04566  0.13678  0.56587  Biso   1.000  N
  N23      1.0000 0.04082  0.21535  0.52050  Biso   1.000  N
  N24      1.0000 0.03718  0.29275  0.47845  Biso   1.000  N
  N25      1.0000 0.93413  0.95434  0.63678  Biso   1.000  N
  N26      1.0000 0.97950  0.95918  0.71535  Biso   1.000  N
  N27      1.0000 0.02155  0.96282  0.79275  Biso   1.000  N
  N28      1.0000 0.06587  0.45434  0.86322  Biso   1.000  N
  N29      1.0000 0.02050  0.45918  0.78465  Biso   1.000  N
  N30      1.0000 0.97845  0.46282  0.70725  Biso   1.000  N
  N31      1.0000 0.43413  0.54566  0.36322  Biso   1.000  N
  N32      1.0000 0.47950  0.54082  0.28465  Biso   1.000  N
  N33      1.0000 0.52155  0.53718  0.20725  Biso   1.000  N
  N34      1.0000 0.56587  0.04566  0.13678  Biso   1.000  N
  N35      1.0000 0.52050  0.04082  0.21535  Biso   1.000  N
  N36      1.0000 0.47845  0.03718  0.29275  Biso   1.000  N
  N37      1.0000 0.36322  0.06587  0.04566  Biso   1.000  N
  N38      1.0000 0.28465  0.02050  0.04082  Biso   1.000  N
  N39      1.0000 0.20725  0.97845  0.03718  Biso   1.000  N
  N40      1.0000 0.13678  0.93413  0.54566  Biso   1.000  N
  N41      1.0000 0.21535  0.97950  0.54082  Biso   1.000  N
  N42      1.0000 0.29275  0.02155  0.53718  Biso   1.000  N
  N43      1.0000 0.63678  0.56587  0.45434  Biso   1.000  N
  N44      1.0000 0.71535  0.52050  0.45918  Biso   1.000  N
  N45      1.0000 0.79275  0.47845  0.46282  Biso   1.000  N
  N46      1.0000 0.86322  0.43413  0.95434  Biso   1.000  N
  N47      1.0000 0.78465  0.47950  0.95918  Biso   1.000  N
  N48      1.0000 0.70725  0.52155  0.96282  Biso   1.000  N
  N49      1.0000 0.04566  0.36322  0.06587  Biso   1.000  N
  N50      1.0000 0.04082  0.28465  0.02050  Biso   1.000  N
  N51      1.0000 0.03718  0.20725  0.97845  Biso   1.000  N
  N52      1.0000 0.54566  0.13678  0.93413  Biso   1.000  N
  N53      1.0000 0.54082  0.21535  0.97950  Biso   1.000  N
  N54      1.0000 0.53718  0.29275  0.02155  Biso   1.000  N
  N55      1.0000 0.45434  0.63678  0.56587  Biso   1.000  N
  N56      1.0000 0.45918  0.71535  0.52050  Biso   1.000  N
  N57      1.0000 0.46282  0.79275  0.47845  Biso   1.000  N
  N58      1.0000 0.95434  0.86322  0.43413  Biso   1.000  N
  N59      1.0000 0.95918  0.78465  0.47950  Biso   1.000  N
  N60      1.0000 0.96282  0.70725  0.52155  Biso   1.000  N
  N61      1.0000 0.06587  0.04566  0.36322  Biso   1.000  N
  N62      1.0000 0.02050  0.04082  0.28465  Biso   1.000  N
  N63      1.0000 0.97845  0.03718  0.20725  Biso   1.000  N
  N64      1.0000 0.93413  0.54566  0.13678  Biso   1.000  N
  N65      1.0000 0.97950  0.54082  0.21535  Biso   1.000  N
  N66      1.0000 0.02155  0.53718  0.29275  Biso   1.000  N
  N67      1.0000 0.56587  0.45434  0.63678  Biso   1.000  N
  N68      1.0000 0.52050  0.45918  0.71535  Biso   1.000  N
  N69      1.0000 0.47845  0.46282  0.79275  Biso   1.000  N
  N70      1.0000 0.43413  0.95434  0.86322  Biso   1.000  N
  N71      1.0000 0.47950  0.95918  0.78465  Biso   1.000  N
  N72      1.0000 0.52155  0.96282  0.70725  Biso   1.000  N
  Fe1      1.0000 0.50000  0.00000  0.00000  Biso   1.000  Fe
  Fe2      1.0000 0.00000  0.00000  0.50000  Biso   1.000  Fe
  Fe3      1.0000 0.50000  0.50000  0.50000  Biso   1.000  Fe
  Fe4      1.0000 0.00000  0.50000  0.00000  Biso   1.000  Fe
  K1       1.0000 0.00000  0.00000  0.00000  Biso   1.000  K
  K2       1.0000 0.50000  0.00000  0.50000  Biso   1.000  K
  K3       1.0000 0.00000  0.50000  0.50000  Biso   1.000  K
  K4       1.0000 0.50000  0.50000  0.00000  Biso   1.000  K
