data_image0
_cell_length_a       13.1026
_cell_length_b       13.1026
_cell_length_c       13.1026
_cell_angle_alpha    90
_cell_angle_beta     90
_cell_angle_gamma    90

_symmetry_space_group_name_H-M    "P 1"
_symmetry_int_tables_number       1

loop_
  _symmetry_equiv_pos_as_xyz
  'x, y, z'

loop_
  _atom_site_label
  _atom_site_occupancy
  _atom_site_fract_x
  _atom_site_fract_y
  _atom_site_fract_z
  _atom_site_thermal_displace_type
  _atom_site_B_iso_or_equiv
  _atom_site_type_symbol
  N1       1.0000 0.63660  0.93300  0.95382  Biso   1.000  N
  N2       1.0000 0.71529  0.97901  0.95863  Biso   1.000  N
  N3       1.0000 0.79281  0.02178  0.96191  Biso   1.000  N
  N4       1.0000 0.86340  0.06700  0.45382  Biso   1.000  N
  N5       1.0000 0.78471  0.02099  0.45863  Biso   1.000  N
  N6       1.0000 0.70719  0.97822  0.46191  Biso   1.000  N
  N7       1.0000 0.36340  0.43300  0.54618  Biso   1.000  N
  N8       1.0000 0.28471  0.47901  0.54137  Biso   1.000  N
  N9       1.0000 0.20719  0.52178  0.53809  Biso   1.000  N
  N10      1.0000 0.13660  0.56700  0.04618  Biso   1.000  N
  N11      1.0000 0.21529  0.52099  0.04137  Biso   1.000  N
  N12      1.0000 0.29281  0.47822  0.03809  Biso   1.000  N
  N13      1.0000 0.95382  0.63660  0.93300  Biso   1.000  N
  N14      1.0000 0.95863  0.71529  0.97901  Biso   1.000  N
  N15      1.0000 0.96191  0.79281  0.02178  Biso   1.000  N
  N16      1.0000 0.45382  0.86340  0.06700  Biso   1.000  N
  N17      1.0000 0.45863  0.78471  0.02099  Biso   1.000  N
  N18      1.0000 0.46191  0.70719  0.97822  Biso   1.000  N
  N19      1.0000 0.54618  0.36340  0.43300  Biso   1.000  N
  N20      1.0000 0.54137  0.28471  0.47901  Biso   1.000  N
  N21      1.0000 0.53809  0.20719  0.52178  Biso   1.000  N
  N22      1.0000 0.04618  0.13660  0.56700  Biso   1.000  N
  N23      1.0000 0.04137  0.21529  0.52099  Biso   1.000  N
  N24      1.0000 0.03809  0.29281  0.47822  Biso   1.000  N
  N25      1.0000 0.93300  0.95382  0.63660  Biso   1.000  N
  N26      1.0000 0.97901  0.95863  0.71529  Biso   1.000  N
  N27      1.0000 0.02178  0.96191  0.79281  Biso   1.000  N
  N28      1.0000 0.06700  0.45382  0.86340  Biso   1.000  N
  N29      1.0000 0.02099  0.45863  0.78471  Biso   1.000  N
  N30      1.0000 0.97822  0.46191  0.70719  Biso   1.000  N
  N31      1.0000 0.43300  0.54618  0.36340  Biso   1.000  N
  N32      1.0000 0.47901  0.54137  0.28471  Biso   1.000  N
  N33      1.0000 0.52178  0.53809  0.20719  Biso   1.000  N
  N34      1.0000 0.56700  0.04618  0.13660  Biso   1.000  N
  N35      1.0000 0.52099  0.04137  0.21529  Biso   1.000  N
  N36      1.0000 0.47822  0.03809  0.29281  Biso   1.000  N
  N37      1.0000 0.36340  0.06700  0.04618  Biso   1.000  N
  N38      1.0000 0.28471  0.02099  0.04137  Biso   1.000  N
  N39      1.0000 0.20719  0.97822  0.03809  Biso   1.000  N
  N40      1.0000 0.13660  0.93300  0.54618  Biso   1.000  N
  N41      1.0000 0.21529  0.97901  0.54137  Biso   1.000  N
  N42      1.0000 0.29281  0.02178  0.53809  Biso   1.000  N
  N43      1.0000 0.63660  0.56700  0.45382  Biso   1.000  N
  N44      1.0000 0.71529  0.52099  0.45863  Biso   1.000  N
  N45      1.0000 0.79281  0.47822  0.46191  Biso   1.000  N
  N46      1.0000 0.86340  0.43300  0.95382  Biso   1.000  N
  N47      1.0000 0.78471  0.47901  0.95863  Biso   1.000  N
  N48      1.0000 0.70719  0.52178  0.96191  Biso   1.000  N
  N49      1.0000 0.04618  0.36340  0.06700  Biso   1.000  N
  N50      1.0000 0.04137  0.28471  0.02099  Biso   1.000  N
  N51      1.0000 0.03809  0.20719  0.97822  Biso   1.000  N
  N52      1.0000 0.54618  0.13660  0.93300  Biso   1.000  N
  N53      1.0000 0.54137  0.21529  0.97901  Biso   1.000  N
  N54      1.0000 0.53809  0.29281  0.02178  Biso   1.000  N
  N55      1.0000 0.45382  0.63660  0.56700  Biso   1.000  N
  N56      1.0000 0.45863  0.71529  0.52099  Biso   1.000  N
  N57      1.0000 0.46191  0.79281  0.47822  Biso   1.000  N
  N58      1.0000 0.95382  0.86340  0.43300  Biso   1.000  N
  N59      1.0000 0.95863  0.78471  0.47901  Biso   1.000  N
  N60      1.0000 0.96191  0.70719  0.52178  Biso   1.000  N
  N61      1.0000 0.06700  0.04618  0.36340  Biso   1.000  N
  N62      1.0000 0.02099  0.04137  0.28471  Biso   1.000  N
  N63      1.0000 0.97822  0.03809  0.20719  Biso   1.000  N
  N64      1.0000 0.93300  0.54618  0.13660  Biso   1.000  N
  N65      1.0000 0.97901  0.54137  0.21529  Biso   1.000  N
  N66      1.0000 0.02178  0.53809  0.29281  Biso   1.000  N
  N67      1.0000 0.56700  0.45382  0.63660  Biso   1.000  N
  N68      1.0000 0.52099  0.45863  0.71529  Biso   1.000  N
  N69      1.0000 0.47822  0.46191  0.79281  Biso   1.000  N
  N70      1.0000 0.43300  0.95382  0.86340  Biso   1.000  N
  N71      1.0000 0.47901  0.95863  0.78471  Biso   1.000  N
  N72      1.0000 0.52178  0.96191  0.70719  Biso   1.000  N
  Fe1      1.0000 0.50000  0.00000  0.00000  Biso   1.000  Fe
  Fe2      1.0000 0.00000  0.00000  0.50000  Biso   1.000  Fe
  Fe3      1.0000 0.50000  0.50000  0.50000  Biso   1.000  Fe
  Fe4      1.0000 0.00000  0.50000  0.00000  Biso   1.000  Fe
  K1       1.0000 0.00000  0.00000  0.00000  Biso   1.000  K
  K2       1.0000 0.50000  0.00000  0.50000  Biso   1.000  K
  K3       1.0000 0.00000  0.50000  0.50000  Biso   1.000  K
  K4       1.0000 0.50000  0.50000  0.00000  Biso   1.000  K
