data_image0
_cell_length_a       13.1642
_cell_length_b       13.1642
_cell_length_c       13.1642
_cell_angle_alpha    90
_cell_angle_beta     90
_cell_angle_gamma    90

_symmetry_space_group_name_H-M    "P 1"
_symmetry_int_tables_number       1

loop_
  _symmetry_equiv_pos_as_xyz
  'x, y, z'

loop_
  _atom_site_label
  _atom_site_occupancy
  _atom_site_fract_x
  _atom_site_fract_y
  _atom_site_fract_z
  _atom_site_thermal_displace_type
  _atom_site_B_iso_or_equiv
  _atom_site_type_symbol
  N1       1.0000 0.43840  0.45750  0.13530  Biso   1.000  N
  N2       1.0000 0.48220  0.46440  0.21440  Biso   1.000  N
  N3       1.0000 0.51850  0.46830  0.29220  Biso   1.000  N
  N4       1.0000 0.06160  0.54250  0.63530  Biso   1.000  N
  N5       1.0000 0.01780  0.53560  0.71440  Biso   1.000  N
  N6       1.0000 0.98150  0.53170  0.79220  Biso   1.000  N
  N7       1.0000 0.56160  0.95750  0.36470  Biso   1.000  N
  N8       1.0000 0.51780  0.96440  0.28560  Biso   1.000  N
  N9       1.0000 0.48150  0.96830  0.20780  Biso   1.000  N
  N10      1.0000 0.93840  0.04250  0.86470  Biso   1.000  N
  N11      1.0000 0.98220  0.03560  0.78560  Biso   1.000  N
  N12      1.0000 0.01850  0.03170  0.70780  Biso   1.000  N
  N13      1.0000 0.13530  0.43840  0.45750  Biso   1.000  N
  N14      1.0000 0.21440  0.48220  0.46440  Biso   1.000  N
  N15      1.0000 0.29220  0.51850  0.46830  Biso   1.000  N
  N16      1.0000 0.63530  0.06160  0.54250  Biso   1.000  N
  N17      1.0000 0.71440  0.01780  0.53560  Biso   1.000  N
  N18      1.0000 0.79220  0.98150  0.53170  Biso   1.000  N
  N19      1.0000 0.36470  0.56160  0.95750  Biso   1.000  N
  N20      1.0000 0.28560  0.51780  0.96440  Biso   1.000  N
  N21      1.0000 0.20780  0.48150  0.96830  Biso   1.000  N
  N22      1.0000 0.86470  0.93840  0.04250  Biso   1.000  N
  N23      1.0000 0.78560  0.98220  0.03560  Biso   1.000  N
  N24      1.0000 0.70780  0.01850  0.03170  Biso   1.000  N
  N25      1.0000 0.45750  0.13530  0.43840  Biso   1.000  N
  N26      1.0000 0.46440  0.21440  0.48220  Biso   1.000  N
  N27      1.0000 0.46830  0.29220  0.51850  Biso   1.000  N
  N28      1.0000 0.54250  0.63530  0.06160  Biso   1.000  N
  N29      1.0000 0.53560  0.71440  0.01780  Biso   1.000  N
  N30      1.0000 0.53170  0.79220  0.98150  Biso   1.000  N
  N31      1.0000 0.95750  0.36470  0.56160  Biso   1.000  N
  N32      1.0000 0.96440  0.28560  0.51780  Biso   1.000  N
  N33      1.0000 0.96830  0.20780  0.48150  Biso   1.000  N
  N34      1.0000 0.04250  0.86470  0.93840  Biso   1.000  N
  N35      1.0000 0.03560  0.78560  0.98220  Biso   1.000  N
  N36      1.0000 0.03170  0.70780  0.01850  Biso   1.000  N
  N37      1.0000 0.56160  0.54250  0.86470  Biso   1.000  N
  N38      1.0000 0.51780  0.53560  0.78560  Biso   1.000  N
  N39      1.0000 0.48150  0.53170  0.70780  Biso   1.000  N
  N40      1.0000 0.93840  0.45750  0.36470  Biso   1.000  N
  N41      1.0000 0.98220  0.46440  0.28560  Biso   1.000  N
  N42      1.0000 0.01850  0.46830  0.20780  Biso   1.000  N
  N43      1.0000 0.43840  0.04250  0.63530  Biso   1.000  N
  N44      1.0000 0.48220  0.03560  0.71440  Biso   1.000  N
  N45      1.0000 0.51850  0.03170  0.79220  Biso   1.000  N
  N46      1.0000 0.06160  0.95750  0.13530  Biso   1.000  N
  N47      1.0000 0.01780  0.96440  0.21440  Biso   1.000  N
  N48      1.0000 0.98150  0.96830  0.29220  Biso   1.000  N
  N49      1.0000 0.86470  0.56160  0.54250  Biso   1.000  N
  N50      1.0000 0.78560  0.51780  0.53560  Biso   1.000  N
  N51      1.0000 0.70780  0.48150  0.53170  Biso   1.000  N
  N52      1.0000 0.36470  0.93840  0.45750  Biso   1.000  N
  N53      1.0000 0.28560  0.98220  0.46440  Biso   1.000  N
  N54      1.0000 0.20780  0.01850  0.46830  Biso   1.000  N
  N55      1.0000 0.63530  0.43840  0.04250  Biso   1.000  N
  N56      1.0000 0.71440  0.48220  0.03560  Biso   1.000  N
  N57      1.0000 0.79220  0.51850  0.03170  Biso   1.000  N
  N58      1.0000 0.13530  0.06160  0.95750  Biso   1.000  N
  N59      1.0000 0.21440  0.01780  0.96440  Biso   1.000  N
  N60      1.0000 0.29220  0.98150  0.96830  Biso   1.000  N
  N61      1.0000 0.54250  0.86470  0.56160  Biso   1.000  N
  N62      1.0000 0.53560  0.78560  0.51780  Biso   1.000  N
  N63      1.0000 0.53170  0.70780  0.48150  Biso   1.000  N
  N64      1.0000 0.45750  0.36470  0.93840  Biso   1.000  N
  N65      1.0000 0.46440  0.28560  0.98220  Biso   1.000  N
  N66      1.0000 0.46830  0.20780  0.01850  Biso   1.000  N
  N67      1.0000 0.04250  0.63530  0.43840  Biso   1.000  N
  N68      1.0000 0.03560  0.71440  0.48220  Biso   1.000  N
  N69      1.0000 0.03170  0.79220  0.51850  Biso   1.000  N
  N70      1.0000 0.95750  0.13530  0.06160  Biso   1.000  N
  N71      1.0000 0.96440  0.21440  0.01780  Biso   1.000  N
  N72      1.0000 0.96830  0.29220  0.98150  Biso   1.000  N
  Cr1      1.0000 0.50000  0.50000  0.00000  Biso   1.000  Cr
  Cr2      1.0000 0.00000  0.50000  0.50000  Biso   1.000  Cr
  Cr3      1.0000 0.50000  0.00000  0.50000  Biso   1.000  Cr
  Cr4      1.0000 0.00000  0.00000  0.00000  Biso   1.000  Cr
  K1       1.0000 0.50000  0.50000  0.50000  Biso   1.000  K
  K2       1.0000 0.00000  0.50000  0.00000  Biso   1.000  K
  K3       1.0000 0.50000  0.00000  0.00000  Biso   1.000  K
  K4       1.0000 0.00000  0.00000  0.50000  Biso   1.000  K
