data_image0
_cell_length_a       13.0973
_cell_length_b       13.0973
_cell_length_c       13.0973
_cell_angle_alpha    90
_cell_angle_beta     90
_cell_angle_gamma    90

_symmetry_space_group_name_H-M    "P 1"
_symmetry_int_tables_number       1

loop_
  _symmetry_equiv_pos_as_xyz
  'x, y, z'

loop_
  _atom_site_label
  _atom_site_occupancy
  _atom_site_fract_x
  _atom_site_fract_y
  _atom_site_fract_z
  _atom_site_thermal_displace_type
  _atom_site_B_iso_or_equiv
  _atom_site_type_symbol
  N1       1.0000 0.43631  0.45599  0.13520  Biso   1.000  N
  N2       1.0000 0.48052  0.46111  0.21404  Biso   1.000  N
  N3       1.0000 0.52010  0.46450  0.29246  Biso   1.000  N
  N4       1.0000 0.06369  0.54401  0.63520  Biso   1.000  N
  N5       1.0000 0.01948  0.53889  0.71404  Biso   1.000  N
  N6       1.0000 0.97990  0.53550  0.79246  Biso   1.000  N
  N7       1.0000 0.56369  0.95599  0.36480  Biso   1.000  N
  N8       1.0000 0.51948  0.96111  0.28596  Biso   1.000  N
  N9       1.0000 0.47990  0.96450  0.20754  Biso   1.000  N
  N10      1.0000 0.93631  0.04401  0.86480  Biso   1.000  N
  N11      1.0000 0.98052  0.03889  0.78596  Biso   1.000  N
  N12      1.0000 0.02010  0.03550  0.70754  Biso   1.000  N
  N13      1.0000 0.13520  0.43631  0.45599  Biso   1.000  N
  N14      1.0000 0.21404  0.48052  0.46111  Biso   1.000  N
  N15      1.0000 0.29246  0.52010  0.46450  Biso   1.000  N
  N16      1.0000 0.63520  0.06369  0.54401  Biso   1.000  N
  N17      1.0000 0.71404  0.01948  0.53889  Biso   1.000  N
  N18      1.0000 0.79246  0.97990  0.53550  Biso   1.000  N
  N19      1.0000 0.36480  0.56369  0.95599  Biso   1.000  N
  N20      1.0000 0.28596  0.51948  0.96111  Biso   1.000  N
  N21      1.0000 0.20754  0.47990  0.96450  Biso   1.000  N
  N22      1.0000 0.86480  0.93631  0.04401  Biso   1.000  N
  N23      1.0000 0.78596  0.98052  0.03889  Biso   1.000  N
  N24      1.0000 0.70754  0.02010  0.03550  Biso   1.000  N
  N25      1.0000 0.45599  0.13520  0.43631  Biso   1.000  N
  N26      1.0000 0.46111  0.21404  0.48052  Biso   1.000  N
  N27      1.0000 0.46450  0.29246  0.52010  Biso   1.000  N
  N28      1.0000 0.54401  0.63520  0.06369  Biso   1.000  N
  N29      1.0000 0.53889  0.71404  0.01948  Biso   1.000  N
  N30      1.0000 0.53550  0.79246  0.97990  Biso   1.000  N
  N31      1.0000 0.95599  0.36480  0.56369  Biso   1.000  N
  N32      1.0000 0.96111  0.28596  0.51948  Biso   1.000  N
  N33      1.0000 0.96450  0.20754  0.47990  Biso   1.000  N
  N34      1.0000 0.04401  0.86480  0.93631  Biso   1.000  N
  N35      1.0000 0.03889  0.78596  0.98052  Biso   1.000  N
  N36      1.0000 0.03550  0.70754  0.02010  Biso   1.000  N
  N37      1.0000 0.56369  0.54401  0.86480  Biso   1.000  N
  N38      1.0000 0.51948  0.53889  0.78596  Biso   1.000  N
  N39      1.0000 0.47990  0.53550  0.70754  Biso   1.000  N
  N40      1.0000 0.93631  0.45599  0.36480  Biso   1.000  N
  N41      1.0000 0.98052  0.46111  0.28596  Biso   1.000  N
  N42      1.0000 0.02010  0.46450  0.20754  Biso   1.000  N
  N43      1.0000 0.43631  0.04401  0.63520  Biso   1.000  N
  N44      1.0000 0.48052  0.03889  0.71404  Biso   1.000  N
  N45      1.0000 0.52010  0.03550  0.79246  Biso   1.000  N
  N46      1.0000 0.06369  0.95599  0.13520  Biso   1.000  N
  N47      1.0000 0.01948  0.96111  0.21404  Biso   1.000  N
  N48      1.0000 0.97990  0.96450  0.29246  Biso   1.000  N
  N49      1.0000 0.86480  0.56369  0.54401  Biso   1.000  N
  N50      1.0000 0.78596  0.51948  0.53889  Biso   1.000  N
  N51      1.0000 0.70754  0.47990  0.53550  Biso   1.000  N
  N52      1.0000 0.36480  0.93631  0.45599  Biso   1.000  N
  N53      1.0000 0.28596  0.98052  0.46111  Biso   1.000  N
  N54      1.0000 0.20754  0.02010  0.46450  Biso   1.000  N
  N55      1.0000 0.63520  0.43631  0.04401  Biso   1.000  N
  N56      1.0000 0.71404  0.48052  0.03889  Biso   1.000  N
  N57      1.0000 0.79246  0.52010  0.03550  Biso   1.000  N
  N58      1.0000 0.13520  0.06369  0.95599  Biso   1.000  N
  N59      1.0000 0.21404  0.01948  0.96111  Biso   1.000  N
  N60      1.0000 0.29246  0.97990  0.96450  Biso   1.000  N
  N61      1.0000 0.54401  0.86480  0.56369  Biso   1.000  N
  N62      1.0000 0.53889  0.78596  0.51948  Biso   1.000  N
  N63      1.0000 0.53550  0.70754  0.47990  Biso   1.000  N
  N64      1.0000 0.45599  0.36480  0.93631  Biso   1.000  N
  N65      1.0000 0.46111  0.28596  0.98052  Biso   1.000  N
  N66      1.0000 0.46450  0.20754  0.02010  Biso   1.000  N
  N67      1.0000 0.04401  0.63520  0.43631  Biso   1.000  N
  N68      1.0000 0.03889  0.71404  0.48052  Biso   1.000  N
  N69      1.0000 0.03550  0.79246  0.52010  Biso   1.000  N
  N70      1.0000 0.95599  0.13520  0.06369  Biso   1.000  N
  N71      1.0000 0.96111  0.21404  0.01948  Biso   1.000  N
  N72      1.0000 0.96450  0.29246  0.97990  Biso   1.000  N
  Cr1      1.0000 0.50000  0.50000  0.00000  Biso   1.000  Cr
  Cr2      1.0000 0.00000  0.50000  0.50000  Biso   1.000  Cr
  Cr3      1.0000 0.50000  0.00000  0.50000  Biso   1.000  Cr
  Cr4      1.0000 0.00000  0.00000  0.00000  Biso   1.000  Cr
  K1       1.0000 0.50000  0.50000  0.50000  Biso   1.000  K
  K2       1.0000 0.00000  0.50000  0.00000  Biso   1.000  K
  K3       1.0000 0.50000  0.00000  0.00000  Biso   1.000  K
  K4       1.0000 0.00000  0.00000  0.50000  Biso   1.000  K
