data_image0
_cell_length_a       19.0983
_cell_length_b       14.4221
_cell_length_c       30.556
_cell_angle_alpha    90
_cell_angle_beta     90
_cell_angle_gamma    90

_symmetry_space_group_name_H-M    "P 1"
_symmetry_int_tables_number       1

loop_
  _symmetry_equiv_pos_as_xyz
  'x, y, z'

loop_
  _atom_site_label
  _atom_site_occupancy
  _atom_site_fract_x
  _atom_site_fract_y
  _atom_site_fract_z
  _atom_site_thermal_displace_type
  _atom_site_B_iso_or_equiv
  _atom_site_type_symbol
  Er1      1.0000 0.14126  0.46220  0.74751  Biso   1.000  Er
  O1       1.0000 0.12024  0.34040  0.69900  Biso   1.000  O
  O2       1.0000 0.16780  0.61670  0.73385  Biso   1.000  O
  O3       1.0000 0.21660  0.34100  0.77101  Biso   1.000  O
  O4       1.0000 0.06940  0.35800  0.78526  Biso   1.000  O
  O5       1.0000 0.08212  0.55310  0.80315  Biso   1.000  O
  O6       1.0000 0.19060  0.50820  0.81640  Biso   1.000  O
  O7       1.0000 0.73660  0.02980  0.70156  Biso   1.000  O
  O8       1.0000 0.52714  0.00170  0.72169  Biso   1.000  O
  C1       1.0000 0.13550  0.31710  0.66020  Biso   1.000  C
  C2       1.0000 0.19360  0.67060  0.70770  Biso   1.000  C
  H1       1.0000 0.22890  0.30010  0.74890  Biso   1.000  H
  H2       1.0000 0.25820  0.36290  0.78200  Biso   1.000  H
  C3       1.0000 0.00800  0.36840  0.79450  Biso   1.000  C
  C4       1.0000 0.13510  0.55640  0.82700  Biso   1.000  C
  Er2      1.0000 0.18785  0.52419  0.62327  Biso   1.000  Er
  O9       1.0000 0.16590  0.36890  0.63210  Biso   1.000  O
  C5       1.0000 0.11650  0.21990  0.64580  Biso   1.000  C
  O10      1.0000 0.20850  0.65030  0.66744  Biso   1.000  O
  C6       1.0000 0.21190  0.76770  0.72300  Biso   1.000  C
  N1       1.0000 0.96320  0.30580  0.80493  Biso   1.000  N
  H3       1.0000 0.99140  0.42910  0.79400  Biso   1.000  H
  C7       1.0000 0.13850  0.61700  0.86590  Biso   1.000  C
  O11      1.0000 0.33900  0.96700  0.05599  Biso   1.000  O
  O12      1.0000 0.12620  0.64680  0.59038  Biso   1.000  O
  O13      1.0000 0.26830  0.59410  0.57810  Biso   1.000  O
  O14      1.0000 0.80270  0.02100  0.64316  Biso   1.000  O
  C8       1.0000 0.11840  0.19720  0.60210  Biso   1.000  C
  C9       1.0000 0.09540  0.15060  0.67620  Biso   1.000  C
  C10      1.0000 0.20350  0.78640  0.76640  Biso   1.000  C
  C11      1.0000 0.23290  0.83940  0.69270  Biso   1.000  C
  C12      1.0000 0.98120  0.20990  0.80490  Biso   1.000  C
  C13      1.0000 0.89240  0.32380  0.81580  Biso   1.000  C
  C14      1.0000 0.08180  0.67450  0.87380  Biso   1.000  C
  C15      1.0000 0.19900  0.62110  0.89420  Biso   1.000  C
  C16      1.0000 0.36230  0.99520  0.01910  Biso   1.000  C
  H4       1.0000 0.09120  0.66780  0.60740  Biso   1.000  H
  H5       1.0000 0.10670  0.62880  0.56510  Biso   1.000  H
  C17      1.0000 0.29420  0.66610  0.56890  Biso   1.000  C
  H6       1.0000 0.13020  0.24290  0.58200  Biso   1.000  H
  C18      1.0000 0.10340  0.11000  0.58720  Biso   1.000  C
  O15      1.0000 0.09040  0.16900  0.71935  Biso   1.000  O
  C19      1.0000 0.07970  0.06200  0.66190  Biso   1.000  C
  H7       1.0000 0.18870  0.73990  0.78540  Biso   1.000  H
  C20      1.0000 0.21750  0.87780  0.78300  Biso   1.000  C
  O16      1.0000 0.23910  0.82220  0.64908  Biso   1.000  O
  C21      1.0000 0.24750  0.92820  0.70740  Biso   1.000  C
  H8       1.0000 0.99010  0.18990  0.83430  Biso   1.000  H
  H9       1.0000 0.02250  0.20060  0.78750  Biso   1.000  H
  H10      1.0000 0.94320  0.17450  0.79280  Biso   1.000  H
  H11      1.0000 0.86310  0.27620  0.80360  Biso   1.000  H
  H12      1.0000 0.87880  0.38290  0.80410  Biso   1.000  H
  H13      1.0000 0.88720  0.32460  0.84710  Biso   1.000  H
  H14      1.0000 0.04380  0.67470  0.85490  Biso   1.000  H
  C22      1.0000 0.08230  0.73370  0.91160  Biso   1.000  C
  C23      1.0000 0.20360  0.68360  0.92810  Biso   1.000  C
  O17      1.0000 0.25220  0.56150  0.88661  Biso   1.000  O
  O18      1.0000 0.38890  0.07070  0.01329  Biso   1.000  O
  C24      1.0000 0.35240  0.92940  0.98100  Biso   1.000  C
  N2       1.0000 0.35340  0.67880  0.54820  Biso   1.000  N
  H15      1.0000 0.26990  0.71920  0.57720  Biso   1.000  H
  C25      1.0000 0.10720  0.08920  0.54180  Biso   1.000  C
  C26      1.0000 0.08570  0.03910  0.61770  Biso   1.000  C
  H16      1.0000 0.09750  0.22440  0.72360  Biso   1.000  H
  C27      1.0000 0.05930  0.99000  0.69690  Biso   1.000  C
  C28      1.0000 0.20780  0.89660  0.82700  Biso   1.000  C
  C29      1.0000 0.23770  0.94860  0.75340  Biso   1.000  C
  H17      1.0000 0.25060  0.76810  0.64530  Biso   1.000  H
  C30      1.0000 0.26650  0.00050  0.67390  Biso   1.000  C
  C31      1.0000 0.14390  0.73860  0.93780  Biso   1.000  C
  C32      1.0000 0.02380  0.78700  0.92200  Biso   1.000  C
  C33      1.0000 0.27040  0.69240  0.95480  Biso   1.000  C
  H18      1.0000 0.24170  0.52700  0.86630  Biso   1.000  H
  C34      1.0000 0.37910  0.95550  0.94130  Biso   1.000  C
  C35      1.0000 0.31870  0.84200  0.98520  Biso   1.000  C
  C36      1.0000 0.38760  0.77120  0.54140  Biso   1.000  C
  C37      1.0000 0.39050  0.59880  0.53360  Biso   1.000  C
  H19      1.0000 0.11720  0.13640  0.52200  Biso   1.000  H
  C38      1.0000 0.09670  0.00320  0.52700  Biso   1.000  C
  C39      1.0000 0.07570  0.94840  0.60040  Biso   1.000  C
  H20      1.0000 0.06020  0.92930  0.68320  Biso   1.000  H
  H21      1.0000 0.09530  0.99030  0.71930  Biso   1.000  H
  C40      1.0000 0.98930  0.00130  0.71920  Biso   1.000  C
  H22      1.0000 0.19530  0.84900  0.84600  Biso   1.000  H
  C41      1.0000 0.21640  0.98490  0.84270  Biso   1.000  C
  C42      1.0000 0.24520  0.03920  0.77130  Biso   1.000  C
  H23      1.0000 0.26570  0.06030  0.68840  Biso   1.000  H
  H24      1.0000 0.22970  0.00120  0.65210  Biso   1.000  H
  C43      1.0000 0.33650  0.99240  0.64970  Biso   1.000  C
  C44      1.0000 0.14100  0.79730  0.97510  Biso   1.000  C
  C45      1.0000 0.02400  0.84400  0.95770  Biso   1.000  C
  H25      1.0000 0.98410  0.78390  0.90440  Biso   1.000  H
  C46      1.0000 0.31090  0.78340  0.94880  Biso   1.000  C
  H26      1.0000 0.25860  0.68590  0.98550  Biso   1.000  H
  H27      1.0000 0.30120  0.64140  0.94720  Biso   1.000  H
  H28      1.0000 0.40100  0.01280  0.93870  Biso   1.000  H
  C47      1.0000 0.37410  0.89710  0.90400  Biso   1.000  C
  O19      1.0000 0.29260  0.81450  0.02424  Biso   1.000  O
  H29      1.0000 0.35250  0.81880  0.54100  Biso   1.000  H
  H30      1.0000 0.41240  0.77100  0.51410  Biso   1.000  H
  H31      1.0000 0.41990  0.78290  0.56490  Biso   1.000  H
  H32      1.0000 0.43170  0.59050  0.55110  Biso   1.000  H
  H33      1.0000 0.40370  0.60680  0.50350  Biso   1.000  H
  H34      1.0000 0.36100  0.54520  0.53630  Biso   1.000  H
  H35      1.0000 0.09860  0.99080  0.49710  Biso   1.000  H
  C48      1.0000 0.08240  0.93030  0.55750  Biso   1.000  C
  H36      1.0000 0.06420  0.90030  0.61930  Biso   1.000  H
  C49      1.0000 0.98110  0.99420  0.76510  Biso   1.000  C
  C50      1.0000 0.92910  0.00850  0.69250  Biso   1.000  C
  H37      1.0000 0.21050  0.99780  0.87230  Biso   1.000  H
  C51      1.0000 0.23430  0.05530  0.81320  Biso   1.000  C
  H38      1.0000 0.25800  0.08800  0.75310  Biso   1.000  H
  C52      1.0000 0.34210  0.99510  0.60420  Biso   1.000  C
  C53      1.0000 0.39810  0.99170  0.67400  Biso   1.000  C
  C54      1.0000 0.08070  0.84800  0.98430  Biso   1.000  C
  H39      1.0000 0.17970  0.80190  0.99340  Biso   1.000  H
  H40      1.0000 0.98490  0.88020  0.96390  Biso   1.000  H
  C55      1.0000 0.33970  0.81020  0.90870  Biso   1.000  C
  C56      1.0000 0.40290  0.92260  0.86310  Biso   1.000  C
  H41      1.0000 0.28380  0.86020  0.03920  Biso   1.000  H
  H42      1.0000 0.07770  0.86980  0.54760  Biso   1.000  H
  C57      1.0000 0.03810  0.98290  0.79390  Biso   1.000  C
  C58      1.0000 0.91290  0.99910  0.78340  Biso   1.000  C
  O20      1.0000 0.93610  0.00690  0.64921  Biso   1.000  O
  C59      1.0000 0.86050  0.01730  0.71230  Biso   1.000  C
  H43      1.0000 0.23870  0.11560  0.82360  Biso   1.000  H
  C60      1.0000 0.28310  0.99850  0.57490  Biso   1.000  C
  C61      1.0000 0.40880  0.99880  0.58330  Biso   1.000  C
  O21      1.0000 0.39151  0.99410  0.71860  Biso   1.000  O
  C62      1.0000 0.46450  0.99040  0.65430  Biso   1.000  C
  H44      1.0000 0.07940  0.88530  0.00910  Biso   1.000  H
  C63      1.0000 0.33990  0.75140  0.87100  Biso   1.000  C
  H45      1.0000 0.42510  0.97970  0.86040  Biso   1.000  H
  C64      1.0000 0.39900  0.86700  0.82820  Biso   1.000  C
  H46      1.0000 0.08350  0.98020  0.78310  Biso   1.000  H
  C65      1.0000 0.02640  0.97600  0.83800  Biso   1.000  C
  C66      1.0000 0.90500  0.99160  0.82990  Biso   1.000  C
  C67      1.0000 0.85410  0.01010  0.75570  Biso   1.000  C
  H47      1.0000 0.89740  0.01070  0.63770  Biso   1.000  H
  C68      1.0000 0.79800  0.02480  0.68490  Biso   1.000  C
  H48      1.0000 0.23830  0.99290  0.58660  Biso   1.000  H
  C69      1.0000 0.28990  0.00930  0.53170  Biso   1.000  C
  C70      1.0000 0.41440  0.00670  0.53820  Biso   1.000  C
  C71      1.0000 0.46850  0.99410  0.60970  Biso   1.000  C
  H49      1.0000 0.43040  0.99950  0.72970  Biso   1.000  H
  C72      1.0000 0.53030  0.99000  0.68100  Biso   1.000  C
  C73      1.0000 0.36830  0.78070  0.83290  Biso   1.000  C
  H50      1.0000 0.32040  0.69240  0.87270  Biso   1.000  H
  H51      1.0000 0.41660  0.88590  0.80120  Biso   1.000  H
  H52      1.0000 0.06470  0.96870  0.85640  Biso   1.000  H
  C74      1.0000 0.96020  0.97950  0.85630  Biso   1.000  C
  H53      1.0000 0.86040  0.99520  0.84200  Biso   1.000  H
  H54      1.0000 0.80960  0.01250  0.76810  Biso   1.000  H
  H55      1.0000 0.24970  0.01340  0.51460  Biso   1.000  H
  C75      1.0000 0.35610  0.01460  0.51090  Biso   1.000  C
  H56      1.0000 0.45870  0.00690  0.52560  Biso   1.000  H
  H57      1.0000 0.51230  0.99340  0.59650  Biso   1.000  H
  O22      1.0000 0.58852  0.97890  0.66244  Biso   1.000  O
  H58      1.0000 0.36710  0.74120  0.80880  Biso   1.000  H
  H59      1.0000 0.95420  0.97350  0.88640  Biso   1.000  H
  H60      1.0000 0.36040  0.02280  0.48080  Biso   1.000  H
  Er3      1.0000 0.85874  0.53780  0.24751  Biso   1.000  Er
  O23      1.0000 0.87976  0.65960  0.19900  Biso   1.000  O
  O24      1.0000 0.83220  0.38330  0.23385  Biso   1.000  O
  O25      1.0000 0.78340  0.65900  0.27101  Biso   1.000  O
  O26      1.0000 0.93060  0.64200  0.28526  Biso   1.000  O
  O27      1.0000 0.91788  0.44690  0.30315  Biso   1.000  O
  O28      1.0000 0.80940  0.49180  0.31640  Biso   1.000  O
  O29      1.0000 0.26340  0.97020  0.20156  Biso   1.000  O
  O30      1.0000 0.47286  0.99830  0.22169  Biso   1.000  O
  C76      1.0000 0.86450  0.68290  0.16020  Biso   1.000  C
  C77      1.0000 0.80640  0.32940  0.20770  Biso   1.000  C
  H61      1.0000 0.77110  0.69990  0.24890  Biso   1.000  H
  H62      1.0000 0.74180  0.63710  0.28200  Biso   1.000  H
  C78      1.0000 0.99200  0.63160  0.29450  Biso   1.000  C
  C79      1.0000 0.86490  0.44360  0.32700  Biso   1.000  C
  Er4      1.0000 0.81215  0.47581  0.12327  Biso   1.000  Er
  O31      1.0000 0.83410  0.63110  0.13210  Biso   1.000  O
  C80      1.0000 0.88350  0.78010  0.14580  Biso   1.000  C
  O32      1.0000 0.79150  0.34970  0.16744  Biso   1.000  O
  C81      1.0000 0.78810  0.23230  0.22300  Biso   1.000  C
  N3       1.0000 0.03680  0.69420  0.30493  Biso   1.000  N
  H63      1.0000 0.00860  0.57090  0.29400  Biso   1.000  H
  C82      1.0000 0.86150  0.38300  0.36590  Biso   1.000  C
  O33      1.0000 0.66100  0.03300  0.55599  Biso   1.000  O
  O34      1.0000 0.87380  0.35320  0.09038  Biso   1.000  O
  O35      1.0000 0.73170  0.40590  0.07810  Biso   1.000  O
  O36      1.0000 0.19730  0.97900  0.14316  Biso   1.000  O
  C83      1.0000 0.88160  0.80280  0.10210  Biso   1.000  C
  C84      1.0000 0.90460  0.84940  0.17620  Biso   1.000  C
  C85      1.0000 0.79650  0.21360  0.26640  Biso   1.000  C
  C86      1.0000 0.76710  0.16060  0.19270  Biso   1.000  C
  C87      1.0000 0.01880  0.79010  0.30490  Biso   1.000  C
  C88      1.0000 0.10760  0.67620  0.31580  Biso   1.000  C
  C89      1.0000 0.91820  0.32550  0.37380  Biso   1.000  C
  C90      1.0000 0.80100  0.37890  0.39420  Biso   1.000  C
  C91      1.0000 0.63770  0.00480  0.51910  Biso   1.000  C
  H64      1.0000 0.90880  0.33220  0.10740  Biso   1.000  H
  H65      1.0000 0.89330  0.37120  0.06510  Biso   1.000  H
  C92      1.0000 0.70580  0.33390  0.06890  Biso   1.000  C
  H66      1.0000 0.86980  0.75710  0.08200  Biso   1.000  H
  C93      1.0000 0.89660  0.89000  0.08720  Biso   1.000  C
  O37      1.0000 0.90960  0.83100  0.21935  Biso   1.000  O
  C94      1.0000 0.92030  0.93800  0.16190  Biso   1.000  C
  H67      1.0000 0.81130  0.26010  0.28540  Biso   1.000  H
  C95      1.0000 0.78250  0.12220  0.28300  Biso   1.000  C
  O38      1.0000 0.76090  0.17780  0.14908  Biso   1.000  O
  C96      1.0000 0.75250  0.07180  0.20740  Biso   1.000  C
  H68      1.0000 0.00990  0.81010  0.33430  Biso   1.000  H
  H69      1.0000 0.97750  0.79940  0.28750  Biso   1.000  H
  H70      1.0000 0.05680  0.82550  0.29280  Biso   1.000  H
  H71      1.0000 0.13690  0.72380  0.30360  Biso   1.000  H
  H72      1.0000 0.12120  0.61710  0.30410  Biso   1.000  H
  H73      1.0000 0.11280  0.67540  0.34710  Biso   1.000  H
  H74      1.0000 0.95620  0.32530  0.35490  Biso   1.000  H
  C97      1.0000 0.91770  0.26630  0.41160  Biso   1.000  C
  C98      1.0000 0.79640  0.31640  0.42810  Biso   1.000  C
  O39      1.0000 0.74780  0.43850  0.38661  Biso   1.000  O
  O40      1.0000 0.61110  0.92930  0.51329  Biso   1.000  O
  C99      1.0000 0.64760  0.07060  0.48100  Biso   1.000  C
  N4       1.0000 0.64660  0.32120  0.04820  Biso   1.000  N
  H75      1.0000 0.73010  0.28080  0.07720  Biso   1.000  H
  C100     1.0000 0.89280  0.91080  0.04180  Biso   1.000  C
  C101     1.0000 0.91430  0.96090  0.11770  Biso   1.000  C
  H76      1.0000 0.90250  0.77560  0.22360  Biso   1.000  H
  C102     1.0000 0.94070  0.01000  0.19690  Biso   1.000  C
  C103     1.0000 0.79220  0.10340  0.32700  Biso   1.000  C
  C104     1.0000 0.76230  0.05140  0.25340  Biso   1.000  C
  H77      1.0000 0.74940  0.23190  0.14530  Biso   1.000  H
  C105     1.0000 0.73350  0.99950  0.17390  Biso   1.000  C
  C106     1.0000 0.85610  0.26140  0.43780  Biso   1.000  C
  C107     1.0000 0.97620  0.21300  0.42200  Biso   1.000  C
  C108     1.0000 0.72960  0.30760  0.45480  Biso   1.000  C
  H78      1.0000 0.75830  0.47300  0.36630  Biso   1.000  H
  C109     1.0000 0.62090  0.04450  0.44130  Biso   1.000  C
  C110     1.0000 0.68130  0.15800  0.48520  Biso   1.000  C
  C111     1.0000 0.61240  0.22880  0.04140  Biso   1.000  C
  C112     1.0000 0.60950  0.40120  0.03360  Biso   1.000  C
  H79      1.0000 0.88280  0.86360  0.02200  Biso   1.000  H
  C113     1.0000 0.90330  0.99680  0.02700  Biso   1.000  C
  C114     1.0000 0.92430  0.05160  0.10040  Biso   1.000  C
  H80      1.0000 0.93980  0.07070  0.18320  Biso   1.000  H
  H81      1.0000 0.90470  0.00970  0.21930  Biso   1.000  H
  C115     1.0000 0.01070  0.99870  0.21920  Biso   1.000  C
  H82      1.0000 0.80470  0.15100  0.34600  Biso   1.000  H
  C116     1.0000 0.78360  0.01510  0.34270  Biso   1.000  C
  C117     1.0000 0.75480  0.96080  0.27130  Biso   1.000  C
  H83      1.0000 0.73430  0.93970  0.18840  Biso   1.000  H
  H84      1.0000 0.77030  0.99880  0.15210  Biso   1.000  H
  C118     1.0000 0.66350  0.00760  0.14970  Biso   1.000  C
  C119     1.0000 0.85900  0.20270  0.47510  Biso   1.000  C
  C120     1.0000 0.97600  0.15600  0.45770  Biso   1.000  C
  H85      1.0000 0.01590  0.21610  0.40440  Biso   1.000  H
  C121     1.0000 0.68910  0.21660  0.44880  Biso   1.000  C
  H86      1.0000 0.74140  0.31410  0.48550  Biso   1.000  H
  H87      1.0000 0.69880  0.35860  0.44720  Biso   1.000  H
  H88      1.0000 0.59900  0.98720  0.43870  Biso   1.000  H
  C122     1.0000 0.62590  0.10290  0.40400  Biso   1.000  C
  O41      1.0000 0.70740  0.18550  0.52424  Biso   1.000  O
  H89      1.0000 0.64750  0.18120  0.04100  Biso   1.000  H
  H90      1.0000 0.58760  0.22900  0.01410  Biso   1.000  H
  H91      1.0000 0.58010  0.21710  0.06490  Biso   1.000  H
  H92      1.0000 0.56830  0.40950  0.05110  Biso   1.000  H
  H93      1.0000 0.59630  0.39320  0.00350  Biso   1.000  H
  H94      1.0000 0.63900  0.45480  0.03630  Biso   1.000  H
  H95      1.0000 0.90140  0.00920  0.99710  Biso   1.000  H
  C123     1.0000 0.91760  0.06970  0.05750  Biso   1.000  C
  H96      1.0000 0.93580  0.09970  0.11930  Biso   1.000  H
  C124     1.0000 0.01890  0.00580  0.26510  Biso   1.000  C
  C125     1.0000 0.07090  0.99150  0.19250  Biso   1.000  C
  H97      1.0000 0.78950  0.00220  0.37230  Biso   1.000  H
  C126     1.0000 0.76570  0.94470  0.31320  Biso   1.000  C
  H98      1.0000 0.74200  0.91200  0.25310  Biso   1.000  H
  C127     1.0000 0.65790  0.00490  0.10420  Biso   1.000  C
  C128     1.0000 0.60190  0.00830  0.17400  Biso   1.000  C
  C129     1.0000 0.91930  0.15200  0.48430  Biso   1.000  C
  H99      1.0000 0.82030  0.19810  0.49340  Biso   1.000  H
  H100     1.0000 0.01510  0.11980  0.46390  Biso   1.000  H
  C130     1.0000 0.66030  0.18980  0.40870  Biso   1.000  C
  C131     1.0000 0.59710  0.07740  0.36310  Biso   1.000  C
  H101     1.0000 0.71620  0.13980  0.53920  Biso   1.000  H
  H102     1.0000 0.92230  0.13020  0.04760  Biso   1.000  H
  C132     1.0000 0.96190  0.01710  0.29390  Biso   1.000  C
  C133     1.0000 0.08710  0.00090  0.28340  Biso   1.000  C
  O42      1.0000 0.06390  0.99310  0.14921  Biso   1.000  O
  C134     1.0000 0.13950  0.98270  0.21230  Biso   1.000  C
  H103     1.0000 0.76130  0.88440  0.32360  Biso   1.000  H
  C135     1.0000 0.71690  0.00150  0.07490  Biso   1.000  C
  C136     1.0000 0.59120  0.00120  0.08330  Biso   1.000  C
  O43      1.0000 0.60849  0.00590  0.21860  Biso   1.000  O
  C137     1.0000 0.53550  0.00960  0.15430  Biso   1.000  C
  H104     1.0000 0.92060  0.11470  0.50910  Biso   1.000  H
  C138     1.0000 0.66010  0.24860  0.37100  Biso   1.000  C
  H105     1.0000 0.57490  0.02030  0.36040  Biso   1.000  H
  C139     1.0000 0.60100  0.13300  0.32820  Biso   1.000  C
  H106     1.0000 0.91650  0.01980  0.28310  Biso   1.000  H
  C140     1.0000 0.97360  0.02400  0.33800  Biso   1.000  C
  C141     1.0000 0.09500  0.00840  0.32990  Biso   1.000  C
  C142     1.0000 0.14590  0.98990  0.25570  Biso   1.000  C
  H107     1.0000 0.10260  0.98930  0.13770  Biso   1.000  H
  C143     1.0000 0.20200  0.97520  0.18490  Biso   1.000  C
  H108     1.0000 0.76170  0.00710  0.08660  Biso   1.000  H
  C144     1.0000 0.71010  0.99070  0.03170  Biso   1.000  C
  C145     1.0000 0.58560  0.99330  0.03820  Biso   1.000  C
  C146     1.0000 0.53150  0.00590  0.10970  Biso   1.000  C
  H109     1.0000 0.56960  0.00050  0.22970  Biso   1.000  H
  C147     1.0000 0.46970  0.01000  0.18100  Biso   1.000  C
  C148     1.0000 0.63170  0.21930  0.33290  Biso   1.000  C
  H110     1.0000 0.67960  0.30760  0.37270  Biso   1.000  H
  H111     1.0000 0.58340  0.11410  0.30120  Biso   1.000  H
  H112     1.0000 0.93530  0.03130  0.35640  Biso   1.000  H
  C149     1.0000 0.03980  0.02050  0.35630  Biso   1.000  C
  H113     1.0000 0.13960  0.00480  0.34200  Biso   1.000  H
  H114     1.0000 0.19040  0.98750  0.26810  Biso   1.000  H
  H115     1.0000 0.75030  0.98660  0.01460  Biso   1.000  H
  C150     1.0000 0.64390  0.98540  0.01090  Biso   1.000  C
  H116     1.0000 0.54130  0.99310  0.02560  Biso   1.000  H
  H117     1.0000 0.48770  0.00660  0.09650  Biso   1.000  H
  O44      1.0000 0.41148  0.02110  0.16244  Biso   1.000  O
  H118     1.0000 0.63290  0.25880  0.30880  Biso   1.000  H
  H119     1.0000 0.04580  0.02650  0.38640  Biso   1.000  H
  H120     1.0000 0.63960  0.97720  0.98080  Biso   1.000  H
  Er5      1.0000 0.64126  0.03780  0.74751  Biso   1.000  Er
  O45      1.0000 0.62024  0.15960  0.69900  Biso   1.000  O
  O46      1.0000 0.66780  0.88330  0.73385  Biso   1.000  O
  O47      1.0000 0.71660  0.15900  0.77101  Biso   1.000  O
  O48      1.0000 0.56940  0.14200  0.78526  Biso   1.000  O
  O49      1.0000 0.58212  0.94690  0.80315  Biso   1.000  O
  O50      1.0000 0.69060  0.99180  0.81640  Biso   1.000  O
  O51      1.0000 0.23660  0.47020  0.70156  Biso   1.000  O
  O52      1.0000 0.02714  0.49830  0.72169  Biso   1.000  O
  C151     1.0000 0.63550  0.18290  0.66020  Biso   1.000  C
  C152     1.0000 0.69360  0.82940  0.70770  Biso   1.000  C
  H121     1.0000 0.72890  0.19990  0.74890  Biso   1.000  H
  H122     1.0000 0.75820  0.13710  0.78200  Biso   1.000  H
  C153     1.0000 0.50800  0.13160  0.79450  Biso   1.000  C
  C154     1.0000 0.63510  0.94360  0.82700  Biso   1.000  C
  Er6      1.0000 0.68785  0.97581  0.62327  Biso   1.000  Er
  O53      1.0000 0.66590  0.13110  0.63210  Biso   1.000  O
  C155     1.0000 0.61650  0.28010  0.64580  Biso   1.000  C
  O54      1.0000 0.70850  0.84970  0.66744  Biso   1.000  O
  C156     1.0000 0.71190  0.73230  0.72300  Biso   1.000  C
  N5       1.0000 0.46320  0.19420  0.80493  Biso   1.000  N
  H123     1.0000 0.49140  0.07090  0.79400  Biso   1.000  H
  C157     1.0000 0.63850  0.88300  0.86590  Biso   1.000  C
  O55      1.0000 0.83900  0.53300  0.05599  Biso   1.000  O
  O56      1.0000 0.62620  0.85320  0.59038  Biso   1.000  O
  O57      1.0000 0.76830  0.90590  0.57810  Biso   1.000  O
  O58      1.0000 0.30270  0.47900  0.64316  Biso   1.000  O
  C158     1.0000 0.61840  0.30280  0.60210  Biso   1.000  C
  C159     1.0000 0.59540  0.34940  0.67620  Biso   1.000  C
  C160     1.0000 0.70350  0.71360  0.76640  Biso   1.000  C
  C161     1.0000 0.73290  0.66060  0.69270  Biso   1.000  C
  C162     1.0000 0.48120  0.29010  0.80490  Biso   1.000  C
  C163     1.0000 0.39240  0.17620  0.81580  Biso   1.000  C
  C164     1.0000 0.58180  0.82550  0.87380  Biso   1.000  C
  C165     1.0000 0.69900  0.87890  0.89420  Biso   1.000  C
  C166     1.0000 0.86230  0.50480  0.01910  Biso   1.000  C
  H124     1.0000 0.59120  0.83220  0.60740  Biso   1.000  H
  H125     1.0000 0.60670  0.87120  0.56510  Biso   1.000  H
  C167     1.0000 0.79420  0.83390  0.56890  Biso   1.000  C
  H126     1.0000 0.63020  0.25710  0.58200  Biso   1.000  H
  C168     1.0000 0.60340  0.39000  0.58720  Biso   1.000  C
  O59      1.0000 0.59040  0.33100  0.71935  Biso   1.000  O
  C169     1.0000 0.57970  0.43800  0.66190  Biso   1.000  C
  H127     1.0000 0.68870  0.76010  0.78540  Biso   1.000  H
  C170     1.0000 0.71750  0.62220  0.78300  Biso   1.000  C
  O60      1.0000 0.73910  0.67780  0.64908  Biso   1.000  O
  C171     1.0000 0.74750  0.57180  0.70740  Biso   1.000  C
  H128     1.0000 0.49010  0.31010  0.83430  Biso   1.000  H
  H129     1.0000 0.52250  0.29940  0.78750  Biso   1.000  H
  H130     1.0000 0.44320  0.32550  0.79280  Biso   1.000  H
  H131     1.0000 0.36310  0.22380  0.80360  Biso   1.000  H
  H132     1.0000 0.37880  0.11710  0.80410  Biso   1.000  H
  H133     1.0000 0.38720  0.17540  0.84710  Biso   1.000  H
  H134     1.0000 0.54380  0.82530  0.85490  Biso   1.000  H
  C172     1.0000 0.58230  0.76630  0.91160  Biso   1.000  C
  C173     1.0000 0.70360  0.81640  0.92810  Biso   1.000  C
  O61      1.0000 0.75220  0.93850  0.88661  Biso   1.000  O
  O62      1.0000 0.88890  0.42930  0.01329  Biso   1.000  O
  C174     1.0000 0.85240  0.57060  0.98100  Biso   1.000  C
  N6       1.0000 0.85340  0.82120  0.54820  Biso   1.000  N
  H135     1.0000 0.76990  0.78080  0.57720  Biso   1.000  H
  C175     1.0000 0.60720  0.41080  0.54180  Biso   1.000  C
  C176     1.0000 0.58570  0.46090  0.61770  Biso   1.000  C
  H136     1.0000 0.59750  0.27560  0.72360  Biso   1.000  H
  C177     1.0000 0.55930  0.51000  0.69690  Biso   1.000  C
  C178     1.0000 0.70780  0.60340  0.82700  Biso   1.000  C
  C179     1.0000 0.73770  0.55140  0.75340  Biso   1.000  C
  H137     1.0000 0.75060  0.73190  0.64530  Biso   1.000  H
  C180     1.0000 0.76650  0.49950  0.67390  Biso   1.000  C
  C181     1.0000 0.64390  0.76140  0.93780  Biso   1.000  C
  C182     1.0000 0.52380  0.71300  0.92200  Biso   1.000  C
  C183     1.0000 0.77040  0.80760  0.95480  Biso   1.000  C
  H138     1.0000 0.74170  0.97300  0.86630  Biso   1.000  H
  C184     1.0000 0.87910  0.54450  0.94130  Biso   1.000  C
  C185     1.0000 0.81870  0.65800  0.98520  Biso   1.000  C
  C186     1.0000 0.88760  0.72880  0.54140  Biso   1.000  C
  C187     1.0000 0.89050  0.90120  0.53360  Biso   1.000  C
  H139     1.0000 0.61720  0.36360  0.52200  Biso   1.000  H
  C188     1.0000 0.59670  0.49680  0.52700  Biso   1.000  C
  C189     1.0000 0.57570  0.55160  0.60040  Biso   1.000  C
  H140     1.0000 0.56020  0.57070  0.68320  Biso   1.000  H
  H141     1.0000 0.59530  0.50970  0.71930  Biso   1.000  H
  C190     1.0000 0.48930  0.49870  0.71920  Biso   1.000  C
  H142     1.0000 0.69530  0.65100  0.84600  Biso   1.000  H
  C191     1.0000 0.71640  0.51510  0.84270  Biso   1.000  C
  C192     1.0000 0.74520  0.46080  0.77130  Biso   1.000  C
  H143     1.0000 0.76570  0.43970  0.68840  Biso   1.000  H
  H144     1.0000 0.72970  0.49880  0.65210  Biso   1.000  H
  C193     1.0000 0.83650  0.50760  0.64970  Biso   1.000  C
  C194     1.0000 0.64100  0.70270  0.97510  Biso   1.000  C
  C195     1.0000 0.52400  0.65600  0.95770  Biso   1.000  C
  H145     1.0000 0.48410  0.71610  0.90440  Biso   1.000  H
  C196     1.0000 0.81090  0.71660  0.94880  Biso   1.000  C
  H146     1.0000 0.75860  0.81410  0.98550  Biso   1.000  H
  H147     1.0000 0.80120  0.85860  0.94720  Biso   1.000  H
  H148     1.0000 0.90100  0.48720  0.93870  Biso   1.000  H
  C197     1.0000 0.87410  0.60290  0.90400  Biso   1.000  C
  O63      1.0000 0.79260  0.68550  0.02424  Biso   1.000  O
  H149     1.0000 0.85250  0.68120  0.54100  Biso   1.000  H
  H150     1.0000 0.91240  0.72900  0.51410  Biso   1.000  H
  H151     1.0000 0.91990  0.71710  0.56490  Biso   1.000  H
  H152     1.0000 0.93170  0.90950  0.55110  Biso   1.000  H
  H153     1.0000 0.90370  0.89320  0.50350  Biso   1.000  H
  H154     1.0000 0.86100  0.95480  0.53630  Biso   1.000  H
  H155     1.0000 0.59860  0.50920  0.49710  Biso   1.000  H
  C198     1.0000 0.58240  0.56970  0.55750  Biso   1.000  C
  H156     1.0000 0.56420  0.59970  0.61930  Biso   1.000  H
  C199     1.0000 0.48110  0.50580  0.76510  Biso   1.000  C
  C200     1.0000 0.42910  0.49150  0.69250  Biso   1.000  C
  H157     1.0000 0.71050  0.50220  0.87230  Biso   1.000  H
  C201     1.0000 0.73430  0.44470  0.81320  Biso   1.000  C
  H158     1.0000 0.75800  0.41200  0.75310  Biso   1.000  H
  C202     1.0000 0.84210  0.50490  0.60420  Biso   1.000  C
  C203     1.0000 0.89810  0.50830  0.67400  Biso   1.000  C
  C204     1.0000 0.58070  0.65200  0.98430  Biso   1.000  C
  H159     1.0000 0.67970  0.69810  0.99340  Biso   1.000  H
  H160     1.0000 0.48490  0.61980  0.96390  Biso   1.000  H
  C205     1.0000 0.83970  0.68980  0.90870  Biso   1.000  C
  C206     1.0000 0.90290  0.57740  0.86310  Biso   1.000  C
  H161     1.0000 0.78380  0.63980  0.03920  Biso   1.000  H
  H162     1.0000 0.57770  0.63020  0.54760  Biso   1.000  H
  C207     1.0000 0.53810  0.51710  0.79390  Biso   1.000  C
  C208     1.0000 0.41290  0.50090  0.78340  Biso   1.000  C
  O64      1.0000 0.43610  0.49310  0.64921  Biso   1.000  O
  C209     1.0000 0.36050  0.48270  0.71230  Biso   1.000  C
  H163     1.0000 0.73870  0.38440  0.82360  Biso   1.000  H
  C210     1.0000 0.78310  0.50150  0.57490  Biso   1.000  C
  C211     1.0000 0.90880  0.50120  0.58330  Biso   1.000  C
  O65      1.0000 0.89151  0.50590  0.71860  Biso   1.000  O
  C212     1.0000 0.96450  0.50960  0.65430  Biso   1.000  C
  H164     1.0000 0.57940  0.61470  0.00910  Biso   1.000  H
  C213     1.0000 0.83990  0.74860  0.87100  Biso   1.000  C
  H165     1.0000 0.92510  0.52030  0.86040  Biso   1.000  H
  C214     1.0000 0.89900  0.63300  0.82820  Biso   1.000  C
  H166     1.0000 0.58350  0.51980  0.78310  Biso   1.000  H
  C215     1.0000 0.52640  0.52400  0.83800  Biso   1.000  C
  C216     1.0000 0.40500  0.50840  0.82990  Biso   1.000  C
  C217     1.0000 0.35410  0.48990  0.75570  Biso   1.000  C
  H167     1.0000 0.39740  0.48930  0.63770  Biso   1.000  H
  C218     1.0000 0.29800  0.47520  0.68490  Biso   1.000  C
  H168     1.0000 0.73830  0.50710  0.58660  Biso   1.000  H
  C219     1.0000 0.78990  0.49070  0.53170  Biso   1.000  C
  C220     1.0000 0.91440  0.49330  0.53820  Biso   1.000  C
  C221     1.0000 0.96850  0.50590  0.60970  Biso   1.000  C
  H169     1.0000 0.93040  0.50050  0.72970  Biso   1.000  H
  C222     1.0000 0.03030  0.51000  0.68100  Biso   1.000  C
  C223     1.0000 0.86830  0.71930  0.83290  Biso   1.000  C
  H170     1.0000 0.82040  0.80760  0.87270  Biso   1.000  H
  H171     1.0000 0.91660  0.61410  0.80120  Biso   1.000  H
  H172     1.0000 0.56470  0.53130  0.85640  Biso   1.000  H
  C224     1.0000 0.46020  0.52050  0.85630  Biso   1.000  C
  H173     1.0000 0.36040  0.50480  0.84200  Biso   1.000  H
  H174     1.0000 0.30960  0.48750  0.76810  Biso   1.000  H
  H175     1.0000 0.74970  0.48660  0.51460  Biso   1.000  H
  C225     1.0000 0.85610  0.48540  0.51090  Biso   1.000  C
  H176     1.0000 0.95870  0.49310  0.52560  Biso   1.000  H
  H177     1.0000 0.01230  0.50660  0.59650  Biso   1.000  H
  O66      1.0000 0.08852  0.52110  0.66244  Biso   1.000  O
  H178     1.0000 0.86710  0.75880  0.80880  Biso   1.000  H
  H179     1.0000 0.45420  0.52650  0.88640  Biso   1.000  H
  H180     1.0000 0.86040  0.47720  0.48080  Biso   1.000  H
  Er7      1.0000 0.35874  0.96220  0.24751  Biso   1.000  Er
  O67      1.0000 0.37976  0.84040  0.19900  Biso   1.000  O
  O68      1.0000 0.33220  0.11670  0.23385  Biso   1.000  O
  O69      1.0000 0.28340  0.84100  0.27101  Biso   1.000  O
  O70      1.0000 0.43060  0.85800  0.28526  Biso   1.000  O
  O71      1.0000 0.41788  0.05310  0.30315  Biso   1.000  O
  O72      1.0000 0.30940  0.00820  0.31640  Biso   1.000  O
  O73      1.0000 0.76340  0.52980  0.20156  Biso   1.000  O
  O74      1.0000 0.97286  0.50170  0.22169  Biso   1.000  O
  C226     1.0000 0.36450  0.81710  0.16020  Biso   1.000  C
  C227     1.0000 0.30640  0.17060  0.20770  Biso   1.000  C
  H181     1.0000 0.27110  0.80010  0.24890  Biso   1.000  H
  H182     1.0000 0.24180  0.86290  0.28200  Biso   1.000  H
  C228     1.0000 0.49200  0.86840  0.29450  Biso   1.000  C
  C229     1.0000 0.36490  0.05640  0.32700  Biso   1.000  C
  Er8      1.0000 0.31215  0.02419  0.12327  Biso   1.000  Er
  O75      1.0000 0.33410  0.86890  0.13210  Biso   1.000  O
  C230     1.0000 0.38350  0.71990  0.14580  Biso   1.000  C
  O76      1.0000 0.29150  0.15030  0.16744  Biso   1.000  O
  C231     1.0000 0.28810  0.26770  0.22300  Biso   1.000  C
  N7       1.0000 0.53680  0.80580  0.30493  Biso   1.000  N
  H183     1.0000 0.50860  0.92910  0.29400  Biso   1.000  H
  C232     1.0000 0.36150  0.11700  0.36590  Biso   1.000  C
  O77      1.0000 0.16100  0.46700  0.55599  Biso   1.000  O
  O78      1.0000 0.37380  0.14680  0.09038  Biso   1.000  O
  O79      1.0000 0.23170  0.09410  0.07810  Biso   1.000  O
  O80      1.0000 0.69730  0.52100  0.14316  Biso   1.000  O
  C233     1.0000 0.38160  0.69720  0.10210  Biso   1.000  C
  C234     1.0000 0.40460  0.65060  0.17620  Biso   1.000  C
  C235     1.0000 0.29650  0.28640  0.26640  Biso   1.000  C
  C236     1.0000 0.26710  0.33940  0.19270  Biso   1.000  C
  C237     1.0000 0.51880  0.70990  0.30490  Biso   1.000  C
  C238     1.0000 0.60760  0.82380  0.31580  Biso   1.000  C
  C239     1.0000 0.41820  0.17450  0.37380  Biso   1.000  C
  C240     1.0000 0.30100  0.12110  0.39420  Biso   1.000  C
  C241     1.0000 0.13770  0.49520  0.51910  Biso   1.000  C
  H184     1.0000 0.40880  0.16780  0.10740  Biso   1.000  H
  H185     1.0000 0.39330  0.12880  0.06510  Biso   1.000  H
  C242     1.0000 0.20580  0.16610  0.06890  Biso   1.000  C
  H186     1.0000 0.36980  0.74290  0.08200  Biso   1.000  H
  C243     1.0000 0.39660  0.61000  0.08720  Biso   1.000  C
  O81      1.0000 0.40960  0.66900  0.21935  Biso   1.000  O
  C244     1.0000 0.42030  0.56200  0.16190  Biso   1.000  C
  H187     1.0000 0.31130  0.23990  0.28540  Biso   1.000  H
  C245     1.0000 0.28250  0.37780  0.28300  Biso   1.000  C
  O82      1.0000 0.26090  0.32220  0.14908  Biso   1.000  O
  C246     1.0000 0.25250  0.42820  0.20740  Biso   1.000  C
  H188     1.0000 0.50990  0.68990  0.33430  Biso   1.000  H
  H189     1.0000 0.47750  0.70060  0.28750  Biso   1.000  H
  H190     1.0000 0.55680  0.67450  0.29280  Biso   1.000  H
  H191     1.0000 0.63690  0.77620  0.30360  Biso   1.000  H
  H192     1.0000 0.62120  0.88290  0.30410  Biso   1.000  H
  H193     1.0000 0.61280  0.82460  0.34710  Biso   1.000  H
  H194     1.0000 0.45620  0.17470  0.35490  Biso   1.000  H
  C247     1.0000 0.41770  0.23370  0.41160  Biso   1.000  C
  C248     1.0000 0.29640  0.18360  0.42810  Biso   1.000  C
  O83      1.0000 0.24780  0.06150  0.38661  Biso   1.000  O
  O84      1.0000 0.11110  0.57070  0.51329  Biso   1.000  O
  C249     1.0000 0.14760  0.42940  0.48100  Biso   1.000  C
  N8       1.0000 0.14660  0.17880  0.04820  Biso   1.000  N
  H195     1.0000 0.23010  0.21920  0.07720  Biso   1.000  H
  C250     1.0000 0.39280  0.58920  0.04180  Biso   1.000  C
  C251     1.0000 0.41430  0.53910  0.11770  Biso   1.000  C
  H196     1.0000 0.40250  0.72440  0.22360  Biso   1.000  H
  C252     1.0000 0.44070  0.49000  0.19690  Biso   1.000  C
  C253     1.0000 0.29220  0.39660  0.32700  Biso   1.000  C
  C254     1.0000 0.26230  0.44860  0.25340  Biso   1.000  C
  H197     1.0000 0.24940  0.26810  0.14530  Biso   1.000  H
  C255     1.0000 0.23350  0.50050  0.17390  Biso   1.000  C
  C256     1.0000 0.35610  0.23860  0.43780  Biso   1.000  C
  C257     1.0000 0.47620  0.28700  0.42200  Biso   1.000  C
  C258     1.0000 0.22960  0.19240  0.45480  Biso   1.000  C
  H198     1.0000 0.25830  0.02700  0.36630  Biso   1.000  H
  C259     1.0000 0.12090  0.45550  0.44130  Biso   1.000  C
  C260     1.0000 0.18130  0.34200  0.48520  Biso   1.000  C
  C261     1.0000 0.11240  0.27120  0.04140  Biso   1.000  C
  C262     1.0000 0.10950  0.09880  0.03360  Biso   1.000  C
  H199     1.0000 0.38280  0.63640  0.02200  Biso   1.000  H
  C263     1.0000 0.40330  0.50320  0.02700  Biso   1.000  C
  C264     1.0000 0.42430  0.44840  0.10040  Biso   1.000  C
  H200     1.0000 0.43980  0.42930  0.18320  Biso   1.000  H
  H201     1.0000 0.40470  0.49030  0.21930  Biso   1.000  H
  C265     1.0000 0.51070  0.50130  0.21920  Biso   1.000  C
  H202     1.0000 0.30470  0.34900  0.34600  Biso   1.000  H
  C266     1.0000 0.28360  0.48490  0.34270  Biso   1.000  C
  C267     1.0000 0.25480  0.53920  0.27130  Biso   1.000  C
  H203     1.0000 0.23430  0.56030  0.18840  Biso   1.000  H
  H204     1.0000 0.27030  0.50120  0.15210  Biso   1.000  H
  C268     1.0000 0.16350  0.49240  0.14970  Biso   1.000  C
  C269     1.0000 0.35900  0.29730  0.47510  Biso   1.000  C
  C270     1.0000 0.47600  0.34400  0.45770  Biso   1.000  C
  H205     1.0000 0.51590  0.28390  0.40440  Biso   1.000  H
  C271     1.0000 0.18910  0.28340  0.44880  Biso   1.000  C
  H206     1.0000 0.24140  0.18590  0.48550  Biso   1.000  H
  H207     1.0000 0.19880  0.14140  0.44720  Biso   1.000  H
  H208     1.0000 0.09900  0.51280  0.43870  Biso   1.000  H
  C272     1.0000 0.12590  0.39710  0.40400  Biso   1.000  C
  O85      1.0000 0.20740  0.31450  0.52424  Biso   1.000  O
  H209     1.0000 0.14750  0.31880  0.04100  Biso   1.000  H
  H210     1.0000 0.08760  0.27100  0.01410  Biso   1.000  H
  H211     1.0000 0.08010  0.28290  0.06490  Biso   1.000  H
  H212     1.0000 0.06830  0.09050  0.05110  Biso   1.000  H
  H213     1.0000 0.09630  0.10680  0.00350  Biso   1.000  H
  H214     1.0000 0.13900  0.04520  0.03630  Biso   1.000  H
  H215     1.0000 0.40140  0.49080  0.99710  Biso   1.000  H
  C273     1.0000 0.41760  0.43030  0.05750  Biso   1.000  C
  H216     1.0000 0.43580  0.40030  0.11930  Biso   1.000  H
  C274     1.0000 0.51890  0.49420  0.26510  Biso   1.000  C
  C275     1.0000 0.57090  0.50850  0.19250  Biso   1.000  C
  H217     1.0000 0.28950  0.49780  0.37230  Biso   1.000  H
  C276     1.0000 0.26570  0.55530  0.31320  Biso   1.000  C
  H218     1.0000 0.24200  0.58800  0.25310  Biso   1.000  H
  C277     1.0000 0.15790  0.49510  0.10420  Biso   1.000  C
  C278     1.0000 0.10190  0.49170  0.17400  Biso   1.000  C
  C279     1.0000 0.41930  0.34800  0.48430  Biso   1.000  C
  H219     1.0000 0.32030  0.30190  0.49340  Biso   1.000  H
  H220     1.0000 0.51510  0.38020  0.46390  Biso   1.000  H
  C280     1.0000 0.16030  0.31020  0.40870  Biso   1.000  C
  C281     1.0000 0.09710  0.42260  0.36310  Biso   1.000  C
  H221     1.0000 0.21620  0.36020  0.53920  Biso   1.000  H
  H222     1.0000 0.42230  0.36980  0.04760  Biso   1.000  H
  C282     1.0000 0.46190  0.48290  0.29390  Biso   1.000  C
  C283     1.0000 0.58710  0.49910  0.28340  Biso   1.000  C
  O86      1.0000 0.56390  0.50690  0.14921  Biso   1.000  O
  C284     1.0000 0.63950  0.51730  0.21230  Biso   1.000  C
  H223     1.0000 0.26130  0.61560  0.32360  Biso   1.000  H
  C285     1.0000 0.21690  0.49850  0.07490  Biso   1.000  C
  C286     1.0000 0.09120  0.49880  0.08330  Biso   1.000  C
  O87      1.0000 0.10849  0.49410  0.21860  Biso   1.000  O
  C287     1.0000 0.03550  0.49040  0.15430  Biso   1.000  C
  H224     1.0000 0.42060  0.38530  0.50910  Biso   1.000  H
  C288     1.0000 0.16010  0.25140  0.37100  Biso   1.000  C
  H225     1.0000 0.07490  0.47970  0.36040  Biso   1.000  H
  C289     1.0000 0.10100  0.36700  0.32820  Biso   1.000  C
  H226     1.0000 0.41650  0.48020  0.28310  Biso   1.000  H
  C290     1.0000 0.47360  0.47600  0.33800  Biso   1.000  C
  C291     1.0000 0.59500  0.49160  0.32990  Biso   1.000  C
  C292     1.0000 0.64590  0.51010  0.25570  Biso   1.000  C
  H227     1.0000 0.60260  0.51070  0.13770  Biso   1.000  H
  C293     1.0000 0.70200  0.52480  0.18490  Biso   1.000  C
  H228     1.0000 0.26170  0.49290  0.08660  Biso   1.000  H
  C294     1.0000 0.21010  0.50930  0.03170  Biso   1.000  C
  C295     1.0000 0.08560  0.50670  0.03820  Biso   1.000  C
  C296     1.0000 0.03150  0.49410  0.10970  Biso   1.000  C
  H229     1.0000 0.06960  0.49950  0.22970  Biso   1.000  H
  C297     1.0000 0.96970  0.49000  0.18100  Biso   1.000  C
  C298     1.0000 0.13170  0.28070  0.33290  Biso   1.000  C
  H230     1.0000 0.17960  0.19240  0.37270  Biso   1.000  H
  H231     1.0000 0.08340  0.38590  0.30120  Biso   1.000  H
  H232     1.0000 0.43530  0.46870  0.35640  Biso   1.000  H
  C299     1.0000 0.53980  0.47950  0.35630  Biso   1.000  C
  H233     1.0000 0.63960  0.49520  0.34200  Biso   1.000  H
  H234     1.0000 0.69040  0.51250  0.26810  Biso   1.000  H
  H235     1.0000 0.25030  0.51340  0.01460  Biso   1.000  H
  C300     1.0000 0.14390  0.51460  0.01090  Biso   1.000  C
  H236     1.0000 0.04130  0.50690  0.02560  Biso   1.000  H
  H237     1.0000 0.98770  0.49340  0.09650  Biso   1.000  H
  O88      1.0000 0.91148  0.47890  0.16244  Biso   1.000  O
  H238     1.0000 0.13290  0.24120  0.30880  Biso   1.000  H
  H239     1.0000 0.54580  0.47350  0.38640  Biso   1.000  H
  H240     1.0000 0.13960  0.52280  0.98080  Biso   1.000  H
