data_image0
_cell_length_a       9.099
_cell_length_b       9.6732
_cell_length_c       22.299
_cell_angle_alpha    90
_cell_angle_beta     90
_cell_angle_gamma    117.874

_symmetry_space_group_name_H-M    P 1
_symmetry_int_tables_number       1

loop_
  _symmetry_equiv_pos_as_xyz
  'x, y, z'

loop_
  _atom_site_label
  _atom_site_occupancy
  _atom_site_fract_x
  _atom_site_fract_y
  _atom_site_fract_z
  _atom_site_thermal_displace_type
  _atom_site_B_iso_or_equiv
  _atom_site_type_symbol
  Tb1      1.0000 0.35588  0.11751  0.00853  Biso   1.000  Tb
  Tb2      1.0000 0.64412  0.38249  0.50853  Biso   1.000  Tb
  Tb3      1.0000 0.64412  0.88249  0.99147  Biso   1.000  Tb
  Tb4      1.0000 0.35588  0.61751  0.49147  Biso   1.000  Tb
  Ag1      1.0000 0.32053  0.98093  0.35157  Biso   1.000  Ag
  Ag2      1.0000 0.67947  0.51907  0.85157  Biso   1.000  Ag
  Ag3      1.0000 0.67947  0.01907  0.64843  Biso   1.000  Ag
  Ag4      1.0000 0.32053  0.48093  0.14843  Biso   1.000  Ag
  H1       1.0000 0.59880  0.89530  0.33200  Biso   1.000  H
  H2       1.0000 0.74970  0.86840  0.25680  Biso   1.000  H
  H3       1.0000 0.69400  0.89910  0.15850  Biso   1.000  H
  H4       1.0000 0.35910  0.01230  0.21760  Biso   1.000  H
  H5       1.0000 0.81660  0.28560  0.83740  Biso   1.000  H
  H6       1.0000 0.03270  0.24830  0.86750  Biso   1.000  H
  H7       1.0000 0.22910  0.44440  0.92790  Biso   1.000  H
  H8       1.0000 0.96670  0.67750  0.93280  Biso   1.000  H
  H9       1.0000 0.40120  0.60470  0.83200  Biso   1.000  H
  H10      1.0000 0.25030  0.63160  0.75680  Biso   1.000  H
  H11      1.0000 0.30600  0.60090  0.65850  Biso   1.000  H
  H12      1.0000 0.64090  0.48770  0.71760  Biso   1.000  H
  H13      1.0000 0.18340  0.21440  0.33740  Biso   1.000  H
  H14      1.0000 0.96730  0.25170  0.36750  Biso   1.000  H
  H15      1.0000 0.77090  0.05560  0.42790  Biso   1.000  H
  H16      1.0000 0.03330  0.82250  0.43280  Biso   1.000  H
  H17      1.0000 0.40120  0.10470  0.66800  Biso   1.000  H
  H18      1.0000 0.25030  0.13160  0.74320  Biso   1.000  H
  H19      1.0000 0.30600  0.10090  0.84150  Biso   1.000  H
  H20      1.0000 0.64090  0.98770  0.78240  Biso   1.000  H
  H21      1.0000 0.18340  0.71440  0.16260  Biso   1.000  H
  H22      1.0000 0.96730  0.75170  0.13250  Biso   1.000  H
  H23      1.0000 0.77090  0.55560  0.07210  Biso   1.000  H
  H24      1.0000 0.03330  0.32250  0.06720  Biso   1.000  H
  H25      1.0000 0.59880  0.39530  0.16800  Biso   1.000  H
  H26      1.0000 0.74970  0.36840  0.24320  Biso   1.000  H
  H27      1.0000 0.69400  0.39910  0.34150  Biso   1.000  H
  H28      1.0000 0.35910  0.51230  0.28240  Biso   1.000  H
  H29      1.0000 0.81660  0.78560  0.66260  Biso   1.000  H
  H30      1.0000 0.03270  0.74830  0.63250  Biso   1.000  H
  H31      1.0000 0.22910  0.94440  0.57210  Biso   1.000  H
  H32      1.0000 0.96670  0.17750  0.56720  Biso   1.000  H
  C1       1.0000 0.57810  0.91320  0.29270  Biso   1.000  C
  C2       1.0000 0.66660  0.89540  0.24790  Biso   1.000  C
  C3       1.0000 0.63600  0.91660  0.18940  Biso   1.000  C
  C4       1.0000 0.52130  0.96300  0.17720  Biso   1.000  C
  C5       1.0000 0.43920  0.98030  0.22510  Biso   1.000  C
  C6       1.0000 0.48170  0.99220  0.11480  Biso   1.000  C
  C7       1.0000 0.89610  0.35790  0.86300  Biso   1.000  C
  C8       1.0000 0.02140  0.33500  0.87930  Biso   1.000  C
  C9       1.0000 0.13540  0.45200  0.91580  Biso   1.000  C
  C10      1.0000 0.11730  0.58480  0.93580  Biso   1.000  C
  C11      1.0000 0.98520  0.59600  0.91930  Biso   1.000  C
  C12      1.0000 0.24310  0.71970  0.97320  Biso   1.000  C
  C13      1.0000 0.48010  0.50330  0.03320  Biso   1.000  C
  C14      1.0000 0.99180  0.99220  0.03460  Biso   1.000  C
  C15      1.0000 0.42190  0.58680  0.79270  Biso   1.000  C
  C16      1.0000 0.33340  0.60460  0.74790  Biso   1.000  C
  C17      1.0000 0.36400  0.58340  0.68940  Biso   1.000  C
  C18      1.0000 0.47870  0.53700  0.67720  Biso   1.000  C
  C19      1.0000 0.56080  0.51970  0.72510  Biso   1.000  C
  C20      1.0000 0.51830  0.50780  0.61480  Biso   1.000  C
  C21      1.0000 0.10390  0.14210  0.36300  Biso   1.000  C
  C22      1.0000 0.97860  0.16500  0.37930  Biso   1.000  C
  C23      1.0000 0.86460  0.04800  0.41580  Biso   1.000  C
  C24      1.0000 0.88270  0.91520  0.43580  Biso   1.000  C
  C25      1.0000 0.01480  0.90400  0.41930  Biso   1.000  C
  C26      1.0000 0.75690  0.78030  0.47320  Biso   1.000  C
  C27      1.0000 0.51990  0.99670  0.53320  Biso   1.000  C
  C28      1.0000 0.00820  0.50780  0.53460  Biso   1.000  C
  C29      1.0000 0.42190  0.08680  0.70730  Biso   1.000  C
  C30      1.0000 0.33340  0.10460  0.75210  Biso   1.000  C
  C31      1.0000 0.36400  0.08340  0.81060  Biso   1.000  C
  C32      1.0000 0.47870  0.03700  0.82280  Biso   1.000  C
  C33      1.0000 0.56080  0.01970  0.77490  Biso   1.000  C
  C34      1.0000 0.51830  0.00780  0.88520  Biso   1.000  C
  C35      1.0000 0.10390  0.64210  0.13700  Biso   1.000  C
  C36      1.0000 0.97860  0.66500  0.12070  Biso   1.000  C
  C37      1.0000 0.86460  0.54800  0.08420  Biso   1.000  C
  C38      1.0000 0.88270  0.41520  0.06420  Biso   1.000  C
  C39      1.0000 0.01480  0.40400  0.08070  Biso   1.000  C
  C40      1.0000 0.75690  0.28030  0.02680  Biso   1.000  C
  C41      1.0000 0.51990  0.49670  0.96680  Biso   1.000  C
  C42      1.0000 0.00820  0.00780  0.96540  Biso   1.000  C
  C43      1.0000 0.57810  0.41320  0.20730  Biso   1.000  C
  C44      1.0000 0.66660  0.39540  0.25210  Biso   1.000  C
  C45      1.0000 0.63600  0.41660  0.31060  Biso   1.000  C
  C46      1.0000 0.52130  0.46300  0.32280  Biso   1.000  C
  C47      1.0000 0.43920  0.48030  0.27490  Biso   1.000  C
  C48      1.0000 0.48170  0.49220  0.38520  Biso   1.000  C
  C49      1.0000 0.89610  0.85790  0.63700  Biso   1.000  C
  C50      1.0000 0.02140  0.83500  0.62070  Biso   1.000  C
  C51      1.0000 0.13540  0.95200  0.58420  Biso   1.000  C
  C52      1.0000 0.11730  0.08480  0.56420  Biso   1.000  C
  C53      1.0000 0.98520  0.09600  0.58070  Biso   1.000  C
  C54      1.0000 0.24310  0.21970  0.52680  Biso   1.000  C
  C55      1.0000 0.48010  0.00330  0.46680  Biso   1.000  C
  C56      1.0000 0.99180  0.49220  0.46540  Biso   1.000  C
  N1       1.0000 0.46470  0.95480  0.28210  Biso   1.000  N
  N2       1.0000 0.87650  0.48500  0.88210  Biso   1.000  N
  N3       1.0000 0.53530  0.54520  0.78210  Biso   1.000  N
  N4       1.0000 0.12350  0.01500  0.38210  Biso   1.000  N
  N5       1.0000 0.53530  0.04520  0.71790  Biso   1.000  N
  N6       1.0000 0.12350  0.51500  0.11790  Biso   1.000  N
  N7       1.0000 0.46470  0.45480  0.21790  Biso   1.000  N
  N8       1.0000 0.87650  0.98500  0.61790  Biso   1.000  N
  O1       1.0000 0.54140  0.95490  0.07209  Biso   1.000  O
  O2       1.0000 0.39110  0.05440  0.10909  Biso   1.000  O
  O3       1.0000 0.21090  0.82320  0.99849  Biso   1.000  O
  O4       1.0000 0.37060  0.71780  0.97500  Biso   1.000  O
  O5       1.0000 0.38350  0.36570  0.05648  Biso   1.000  O
  O6       1.0000 0.54270  0.63900  0.05910  Biso   1.000  O
  O7       1.0000 0.11710  0.04840  0.06369  Biso   1.000  O
  O8       1.0000 0.85640  0.92360  0.05591  Biso   1.000  O
  O9       1.0000 0.45860  0.54510  0.57209  Biso   1.000  O
  O10      1.0000 0.60890  0.44560  0.60909  Biso   1.000  O
  O11      1.0000 0.78910  0.67680  0.49849  Biso   1.000  O
  O12      1.0000 0.62940  0.78220  0.47500  Biso   1.000  O
  O13      1.0000 0.61650  0.13430  0.55648  Biso   1.000  O
  O14      1.0000 0.45730  0.86100  0.55910  Biso   1.000  O
  O15      1.0000 0.88290  0.45160  0.56369  Biso   1.000  O
  O16      1.0000 0.14360  0.57640  0.55591  Biso   1.000  O
  O17      1.0000 0.45860  0.04510  0.92791  Biso   1.000  O
  O18      1.0000 0.60890  0.94560  0.89091  Biso   1.000  O
  O19      1.0000 0.78910  0.17680  0.00151  Biso   1.000  O
  O20      1.0000 0.62940  0.28220  0.02500  Biso   1.000  O
  O21      1.0000 0.61650  0.63430  0.94352  Biso   1.000  O
  O22      1.0000 0.45730  0.36100  0.94090  Biso   1.000  O
  O23      1.0000 0.88290  0.95160  0.93631  Biso   1.000  O
  O24      1.0000 0.14360  0.07640  0.94409  Biso   1.000  O
  O25      1.0000 0.54140  0.45490  0.42791  Biso   1.000  O
  O26      1.0000 0.39110  0.55440  0.39091  Biso   1.000  O
  O27      1.0000 0.21090  0.32320  0.50151  Biso   1.000  O
  O28      1.0000 0.37060  0.21780  0.52500  Biso   1.000  O
  O29      1.0000 0.38350  0.86570  0.44352  Biso   1.000  O
  O30      1.0000 0.54270  0.13900  0.44090  Biso   1.000  O
  O31      1.0000 0.11710  0.54840  0.43631  Biso   1.000  O
  O32      1.0000 0.85640  0.42360  0.44409  Biso   1.000  O
