data_image0
_cell_length_a       12.458
_cell_length_b       12.458
_cell_length_c       24.673
_cell_angle_alpha    90
_cell_angle_beta     90
_cell_angle_gamma    120

_symmetry_space_group_name_H-M    P 1
_symmetry_int_tables_number       1

loop_
  _symmetry_equiv_pos_as_xyz
  'x, y, z'

loop_
  _atom_site_label
  _atom_site_occupancy
  _atom_site_fract_x
  _atom_site_fract_y
  _atom_site_fract_z
  _atom_site_thermal_displace_type
  _atom_site_B_iso_or_equiv
  _atom_site_type_symbol
  Zn1      1.0000 0.00000  0.00000  0.66667  Biso   1.000  Zn
  Zn2      1.0000 0.00000  0.00000  0.33333  Biso   1.000  Zn
  Zn3      1.0000 0.00000  0.00000  0.00000  Biso   1.000  Zn
  H1       1.0000 0.35220  0.07710  0.75530  Biso   1.000  H
  H2       1.0000 0.32830  0.02510  0.69960  Biso   1.000  H
  H3       1.0000 0.23300  0.89130  0.79500  Biso   1.000  H
  H4       1.0000 0.13360  0.66570  0.79450  Biso   1.000  H
  H5       1.0000 0.11850  0.59090  0.73960  Biso   1.000  H
  H6       1.0000 0.03720  0.65600  0.74920  Biso   1.000  H
  H7       1.0000 0.20710  0.70570  0.65240  Biso   1.000  H
  H8       1.0000 0.27080  0.85350  0.65150  Biso   1.000  H
  H9       1.0000 0.12370  0.76960  0.65800  Biso   1.000  H
  H10      1.0000 0.72490  0.64780  0.42197  Biso   1.000  H
  H11      1.0000 0.69680  0.67170  0.36627  Biso   1.000  H
  H12      1.0000 0.65830  0.76700  0.46167  Biso   1.000  H
  H13      1.0000 0.53210  0.86640  0.46117  Biso   1.000  H
  H14      1.0000 0.47240  0.88150  0.40627  Biso   1.000  H
  H15      1.0000 0.61880  0.96280  0.41587  Biso   1.000  H
  H16      1.0000 0.49860  0.79290  0.31907  Biso   1.000  H
  H17      1.0000 0.58270  0.72920  0.31817  Biso   1.000  H
  H18      1.0000 0.64590  0.87630  0.32467  Biso   1.000  H
  H19      1.0000 0.92290  0.27510  0.08863  Biso   1.000  H
  H20      1.0000 0.97490  0.30320  0.03293  Biso   1.000  H
  H21      1.0000 0.10870  0.34170  0.12833  Biso   1.000  H
  H22      1.0000 0.33430  0.46790  0.12783  Biso   1.000  H
  H23      1.0000 0.40910  0.52760  0.07293  Biso   1.000  H
  H24      1.0000 0.34400  0.38120  0.08253  Biso   1.000  H
  H25      1.0000 0.29430  0.50140  0.98573  Biso   1.000  H
  H26      1.0000 0.14650  0.41730  0.98483  Biso   1.000  H
  H27      1.0000 0.23040  0.35410  0.99133  Biso   1.000  H
  H28      1.0000 0.64780  0.92290  0.75530  Biso   1.000  H
  H29      1.0000 0.67170  0.97490  0.69960  Biso   1.000  H
  H30      1.0000 0.76700  0.10870  0.79500  Biso   1.000  H
  H31      1.0000 0.86640  0.33430  0.79450  Biso   1.000  H
  H32      1.0000 0.88150  0.40910  0.73960  Biso   1.000  H
  H33      1.0000 0.96280  0.34400  0.74920  Biso   1.000  H
  H34      1.0000 0.79290  0.29430  0.65240  Biso   1.000  H
  H35      1.0000 0.72920  0.14650  0.65150  Biso   1.000  H
  H36      1.0000 0.87630  0.23040  0.65800  Biso   1.000  H
  H37      1.0000 0.27510  0.35220  0.42197  Biso   1.000  H
  H38      1.0000 0.30320  0.32830  0.36627  Biso   1.000  H
  H39      1.0000 0.34170  0.23300  0.46167  Biso   1.000  H
  H40      1.0000 0.46790  0.13360  0.46117  Biso   1.000  H
  H41      1.0000 0.52760  0.11850  0.40627  Biso   1.000  H
  H42      1.0000 0.38120  0.03720  0.41587  Biso   1.000  H
  H43      1.0000 0.50140  0.20710  0.31907  Biso   1.000  H
  H44      1.0000 0.41730  0.27080  0.31817  Biso   1.000  H
  H45      1.0000 0.35410  0.12370  0.32467  Biso   1.000  H
  H46      1.0000 0.07710  0.72490  0.08863  Biso   1.000  H
  H47      1.0000 0.02510  0.69680  0.03293  Biso   1.000  H
  H48      1.0000 0.89130  0.65830  0.12833  Biso   1.000  H
  H49      1.0000 0.66570  0.53210  0.12783  Biso   1.000  H
  H50      1.0000 0.59090  0.47240  0.07293  Biso   1.000  H
  H51      1.0000 0.65600  0.61880  0.08253  Biso   1.000  H
  H52      1.0000 0.70570  0.49860  0.98573  Biso   1.000  H
  H53      1.0000 0.85350  0.58270  0.98483  Biso   1.000  H
  H54      1.0000 0.76960  0.64590  0.99133  Biso   1.000  H
  H55      1.0000 0.27510  0.92290  0.91137  Biso   1.000  H
  H56      1.0000 0.30320  0.97490  0.96707  Biso   1.000  H
  H57      1.0000 0.34170  0.10870  0.87167  Biso   1.000  H
  H58      1.0000 0.46790  0.33430  0.87217  Biso   1.000  H
  H59      1.0000 0.52760  0.40910  0.92707  Biso   1.000  H
  H60      1.0000 0.38120  0.34400  0.91747  Biso   1.000  H
  H61      1.0000 0.50140  0.29430  0.01427  Biso   1.000  H
  H62      1.0000 0.41730  0.14650  0.01517  Biso   1.000  H
  H63      1.0000 0.35410  0.23040  0.00867  Biso   1.000  H
  H64      1.0000 0.07710  0.35220  0.24470  Biso   1.000  H
  H65      1.0000 0.02510  0.32830  0.30040  Biso   1.000  H
  H66      1.0000 0.89130  0.23300  0.20500  Biso   1.000  H
  H67      1.0000 0.66570  0.13360  0.20550  Biso   1.000  H
  H68      1.0000 0.59090  0.11850  0.26040  Biso   1.000  H
  H69      1.0000 0.65600  0.03720  0.25080  Biso   1.000  H
  H70      1.0000 0.70570  0.20710  0.34760  Biso   1.000  H
  H71      1.0000 0.85350  0.27080  0.34850  Biso   1.000  H
  H72      1.0000 0.76960  0.12370  0.34200  Biso   1.000  H
  H73      1.0000 0.64780  0.72490  0.57803  Biso   1.000  H
  H74      1.0000 0.67170  0.69680  0.63373  Biso   1.000  H
  H75      1.0000 0.76700  0.65830  0.53833  Biso   1.000  H
  H76      1.0000 0.86640  0.53210  0.53883  Biso   1.000  H
  H77      1.0000 0.88150  0.47240  0.59373  Biso   1.000  H
  H78      1.0000 0.96280  0.61880  0.58413  Biso   1.000  H
  H79      1.0000 0.79290  0.49860  0.68093  Biso   1.000  H
  H80      1.0000 0.72920  0.58270  0.68183  Biso   1.000  H
  H81      1.0000 0.87630  0.64590  0.67533  Biso   1.000  H
  H82      1.0000 0.72490  0.07710  0.91137  Biso   1.000  H
  H83      1.0000 0.69680  0.02510  0.96707  Biso   1.000  H
  H84      1.0000 0.65830  0.89130  0.87167  Biso   1.000  H
  H85      1.0000 0.53210  0.66570  0.87217  Biso   1.000  H
  H86      1.0000 0.47240  0.59090  0.92707  Biso   1.000  H
  H87      1.0000 0.61880  0.65600  0.91747  Biso   1.000  H
  H88      1.0000 0.49860  0.70570  0.01427  Biso   1.000  H
  H89      1.0000 0.58270  0.85350  0.01517  Biso   1.000  H
  H90      1.0000 0.64590  0.76960  0.00867  Biso   1.000  H
  H91      1.0000 0.92290  0.64780  0.24470  Biso   1.000  H
  H92      1.0000 0.97490  0.67170  0.30040  Biso   1.000  H
  H93      1.0000 0.10870  0.76700  0.20500  Biso   1.000  H
  H94      1.0000 0.33430  0.86640  0.20550  Biso   1.000  H
  H95      1.0000 0.40910  0.88150  0.26040  Biso   1.000  H
  H96      1.0000 0.34400  0.96280  0.25080  Biso   1.000  H
  H97      1.0000 0.29430  0.79290  0.34760  Biso   1.000  H
  H98      1.0000 0.14650  0.72920  0.34850  Biso   1.000  H
  H99      1.0000 0.23040  0.87630  0.34200  Biso   1.000  H
  H100     1.0000 0.35220  0.27510  0.57803  Biso   1.000  H
  H101     1.0000 0.32830  0.30320  0.63373  Biso   1.000  H
  H102     1.0000 0.23300  0.34170  0.53833  Biso   1.000  H
  H103     1.0000 0.13360  0.46790  0.53883  Biso   1.000  H
  H104     1.0000 0.11850  0.52760  0.59373  Biso   1.000  H
  H105     1.0000 0.03720  0.38120  0.58413  Biso   1.000  H
  H106     1.0000 0.20710  0.50140  0.68093  Biso   1.000  H
  H107     1.0000 0.27080  0.41730  0.68183  Biso   1.000  H
  H108     1.0000 0.12370  0.35410  0.67533  Biso   1.000  H
  Pt1      1.0000 0.50000  0.00000  0.73834  Biso   1.000  Pt
  Pt2      1.0000 0.50000  0.50000  0.40501  Biso   1.000  Pt
  Pt3      1.0000 1.00000  0.50000  0.07167  Biso   1.000  Pt
  Pt4      1.0000 0.50000  0.00000  0.92833  Biso   1.000  Pt
  Pt5      1.0000 1.00000  0.50000  0.26166  Biso   1.000  Pt
  Pt6      1.0000 0.50000  0.50000  0.59499  Biso   1.000  Pt
  Au1      1.0000 0.39311  0.78622  0.83333  Biso   1.000  Au
  Au2      1.0000 0.39311  0.60690  0.50000  Biso   1.000  Au
  Au3      1.0000 0.21379  0.60690  0.16667  Biso   1.000  Au
  Au4      1.0000 0.60689  0.21378  0.83333  Biso   1.000  Au
  Au5      1.0000 0.60689  0.39310  0.50000  Biso   1.000  Au
  Au6      1.0000 0.78621  0.39310  0.16667  Biso   1.000  Au
  C1       1.0000 0.21830  0.78010  0.72920  Biso   1.000  C
  C2       1.0000 0.22740  0.89640  0.75470  Biso   1.000  C
  C3       1.0000 0.11810  0.66290  0.75550  Biso   1.000  C
  C4       1.0000 0.20360  0.77690  0.66710  Biso   1.000  C
  C5       1.0000 0.11240  0.90640  0.74100  Biso   1.000  C
  C6       1.0000 0.56180  0.78170  0.39587  Biso   1.000  C
  C7       1.0000 0.66900  0.77260  0.42137  Biso   1.000  C
  C8       1.0000 0.54480  0.88190  0.42217  Biso   1.000  C
  C9       1.0000 0.57330  0.79640  0.33377  Biso   1.000  C
  C10      1.0000 0.79400  0.88760  0.40767  Biso   1.000  C
  C11      1.0000 0.21990  0.43820  0.06253  Biso   1.000  C
  C12      1.0000 0.10360  0.33100  0.08803  Biso   1.000  C
  C13      1.0000 0.33710  0.45520  0.08883  Biso   1.000  C
  C14      1.0000 0.22310  0.42670  0.00043  Biso   1.000  C
  C15      1.0000 0.09360  0.20600  0.07433  Biso   1.000  C
  C16      1.0000 0.78170  0.21990  0.72920  Biso   1.000  C
  C17      1.0000 0.77260  0.10360  0.75470  Biso   1.000  C
  C18      1.0000 0.88190  0.33710  0.75550  Biso   1.000  C
  C19      1.0000 0.79640  0.22310  0.66710  Biso   1.000  C
  C20      1.0000 0.88760  0.09360  0.74100  Biso   1.000  C
  C21      1.0000 0.43820  0.21830  0.39587  Biso   1.000  C
  C22      1.0000 0.33100  0.22740  0.42137  Biso   1.000  C
  C23      1.0000 0.45520  0.11810  0.42217  Biso   1.000  C
  C24      1.0000 0.42670  0.20360  0.33377  Biso   1.000  C
  C25      1.0000 0.20600  0.11240  0.40767  Biso   1.000  C
  C26      1.0000 0.78010  0.56180  0.06253  Biso   1.000  C
  C27      1.0000 0.89640  0.66900  0.08803  Biso   1.000  C
  C28      1.0000 0.66290  0.54480  0.08883  Biso   1.000  C
  C29      1.0000 0.77690  0.57330  0.00043  Biso   1.000  C
  C30      1.0000 0.90640  0.79400  0.07433  Biso   1.000  C
  C31      1.0000 0.43820  0.21990  0.93747  Biso   1.000  C
  C32      1.0000 0.33100  0.10360  0.91197  Biso   1.000  C
  C33      1.0000 0.45520  0.33710  0.91117  Biso   1.000  C
  C34      1.0000 0.42670  0.22310  0.99957  Biso   1.000  C
  C35      1.0000 0.20600  0.09360  0.92567  Biso   1.000  C
  C36      1.0000 0.78010  0.21830  0.27080  Biso   1.000  C
  C37      1.0000 0.89640  0.22740  0.24530  Biso   1.000  C
  C38      1.0000 0.66290  0.11810  0.24450  Biso   1.000  C
  C39      1.0000 0.77690  0.20360  0.33290  Biso   1.000  C
  C40      1.0000 0.90640  0.11240  0.25900  Biso   1.000  C
  C41      1.0000 0.78170  0.56180  0.60413  Biso   1.000  C
  C42      1.0000 0.77260  0.66900  0.57863  Biso   1.000  C
  C43      1.0000 0.88190  0.54480  0.57783  Biso   1.000  C
  C44      1.0000 0.79640  0.57330  0.66623  Biso   1.000  C
  C45      1.0000 0.88760  0.79400  0.59233  Biso   1.000  C
  C46      1.0000 0.56180  0.78010  0.93747  Biso   1.000  C
  C47      1.0000 0.66900  0.89640  0.91197  Biso   1.000  C
  C48      1.0000 0.54480  0.66290  0.91117  Biso   1.000  C
  C49      1.0000 0.57330  0.77690  0.99957  Biso   1.000  C
  C50      1.0000 0.79400  0.90640  0.92567  Biso   1.000  C
  C51      1.0000 0.21990  0.78170  0.27080  Biso   1.000  C
  C52      1.0000 0.10360  0.77260  0.24530  Biso   1.000  C
  C53      1.0000 0.33710  0.88190  0.24450  Biso   1.000  C
  C54      1.0000 0.22310  0.79640  0.33290  Biso   1.000  C
  C55      1.0000 0.09360  0.88760  0.25900  Biso   1.000  C
  C56      1.0000 0.21830  0.43820  0.60413  Biso   1.000  C
  C57      1.0000 0.22740  0.33100  0.57863  Biso   1.000  C
  C58      1.0000 0.11810  0.45520  0.57783  Biso   1.000  C
  C59      1.0000 0.20360  0.42670  0.66623  Biso   1.000  C
  C60      1.0000 0.11240  0.20600  0.59233  Biso   1.000  C
  S1       1.0000 0.37051  0.78842  0.74110  Biso   1.000  S
  S2       1.0000 0.41791  0.62949  0.40777  Biso   1.000  S
  S3       1.0000 0.21158  0.58209  0.07443  Biso   1.000  S
  S4       1.0000 0.62949  0.21158  0.74110  Biso   1.000  S
  S5       1.0000 0.58209  0.37051  0.40777  Biso   1.000  S
  S6       1.0000 0.78842  0.41791  0.07443  Biso   1.000  S
  S7       1.0000 0.58209  0.21158  0.92557  Biso   1.000  S
  S8       1.0000 0.78842  0.37051  0.25890  Biso   1.000  S
  S9       1.0000 0.62949  0.41791  0.59223  Biso   1.000  S
  S10      1.0000 0.41791  0.78842  0.92557  Biso   1.000  S
  S11      1.0000 0.21158  0.62949  0.25890  Biso   1.000  S
  S12      1.0000 0.37051  0.58209  0.59223  Biso   1.000  S
  N1       1.0000 0.34120  0.01060  0.73490  Biso   1.000  N
  N2       1.0000 0.66940  0.65880  0.40157  Biso   1.000  N
  N3       1.0000 0.98940  0.33060  0.06823  Biso   1.000  N
  N4       1.0000 0.65880  0.98940  0.73490  Biso   1.000  N
  N5       1.0000 0.33060  0.34120  0.40157  Biso   1.000  N
  N6       1.0000 0.01060  0.66940  0.06823  Biso   1.000  N
  N7       1.0000 0.33060  0.98940  0.93177  Biso   1.000  N
  N8       1.0000 0.01060  0.34120  0.26510  Biso   1.000  N
  N9       1.0000 0.65880  0.66940  0.59843  Biso   1.000  N
  N10      1.0000 0.66940  0.01060  0.93177  Biso   1.000  N
  N11      1.0000 0.98940  0.65880  0.26510  Biso   1.000  N
  N12      1.0000 0.34120  0.33060  0.59843  Biso   1.000  N
  O1       1.0000 0.12440  0.97200  0.69940  Biso   1.000  O
  O2       1.0000 0.01880  0.84940  0.76850  Biso   1.000  O
  O3       1.0000 0.84760  0.87560  0.36607  Biso   1.000  O
  O4       1.0000 0.83060  0.98120  0.43517  Biso   1.000  O
  O5       1.0000 0.02800  0.15240  0.03273  Biso   1.000  O
  O6       1.0000 0.15060  0.16940  0.10183  Biso   1.000  O
  O7       1.0000 0.87560  0.02800  0.69940  Biso   1.000  O
  O8       1.0000 0.98120  0.15060  0.76850  Biso   1.000  O
  O9       1.0000 0.15240  0.12440  0.36607  Biso   1.000  O
  O10      1.0000 0.16940  0.01880  0.43517  Biso   1.000  O
  O11      1.0000 0.97200  0.84760  0.03273  Biso   1.000  O
  O12      1.0000 0.84940  0.83060  0.10183  Biso   1.000  O
  O13      1.0000 0.15240  0.02800  0.96727  Biso   1.000  O
  O14      1.0000 0.16940  0.15060  0.89817  Biso   1.000  O
  O15      1.0000 0.97200  0.12440  0.30060  Biso   1.000  O
  O16      1.0000 0.84940  0.01880  0.23150  Biso   1.000  O
  O17      1.0000 0.87560  0.84760  0.63393  Biso   1.000  O
  O18      1.0000 0.98120  0.83060  0.56483  Biso   1.000  O
  O19      1.0000 0.84760  0.97200  0.96727  Biso   1.000  O
  O20      1.0000 0.83060  0.84940  0.89817  Biso   1.000  O
  O21      1.0000 0.02800  0.87560  0.30060  Biso   1.000  O
  O22      1.0000 0.15060  0.98120  0.23150  Biso   1.000  O
  O23      1.0000 0.12440  0.15240  0.63393  Biso   1.000  O
  O24      1.0000 0.01880  0.16940  0.56483  Biso   1.000  O
