data_image0
_cell_length_a       11.3407
_cell_length_b       11.3847
_cell_length_c       13.1908
_cell_angle_alpha    88.868
_cell_angle_beta     69.339
_cell_angle_gamma    85.726

_symmetry_space_group_name_H-M    "P 1"
_symmetry_int_tables_number       1

loop_
  _symmetry_equiv_pos_as_xyz
  'x, y, z'

loop_
  _atom_site_label
  _atom_site_occupancy
  _atom_site_fract_x
  _atom_site_fract_y
  _atom_site_fract_z
  _atom_site_thermal_displace_type
  _atom_site_B_iso_or_equiv
  _atom_site_type_symbol
  Co1      1.0000 0.99062  0.11658  0.25175  Biso   1.000  Co
  O1       1.0000 0.04550  0.97680  0.33300  Biso   1.000  O
  N1       1.0000 0.12310  0.88690  0.27700  Biso   1.000  N
  C1       1.0000 0.24780  0.88650  0.26120  Biso   1.000  C
  H1       1.0000 0.28030  0.94690  0.29020  Biso   1.000  H
  C2       1.0000 0.32600  0.79370  0.20070  Biso   1.000  C
  H2       1.0000 0.41400  0.79160  0.18790  Biso   1.000  H
  C3       1.0000 0.28170  0.70670  0.15970  Biso   1.000  C
  H3       1.0000 0.33750  0.64420  0.11910  Biso   1.000  H
  C4       1.0000 0.15290  0.70950  0.17740  Biso   1.000  C
  H4       1.0000 0.12040  0.64850  0.14920  Biso   1.000  H
  C5       1.0000 0.07160  0.80180  0.23660  Biso   1.000  C
  C6       1.0000 0.93190  0.80650  0.26410  Biso   1.000  C
  C7       1.0000 0.86270  0.71970  0.32270  Biso   1.000  C
  H5       1.0000 0.90100  0.65800  0.35270  Biso   1.000  H
  C8       1.0000 0.73460  0.72280  0.33810  Biso   1.000  C
  H6       1.0000 0.68430  0.66240  0.37750  Biso   1.000  H
  C9       1.0000 0.68290  0.81340  0.29600  Biso   1.000  C
  H7       1.0000 0.59530  0.81790  0.30660  Biso   1.000  H
  C10      1.0000 0.75840  0.89990  0.23720  Biso   1.000  C
  H8       1.0000 0.72270  0.96280  0.20640  Biso   1.000  H
  N2       1.0000 0.87840  0.89510  0.22420  Biso   1.000  N
  O2       1.0000 0.94850  0.98000  0.16780  Biso   1.000  O
  O3       1.0000 0.99870  0.81780  0.00110  Biso   1.000  O
  C11      1.0000 0.03330  0.74120  0.92800  Biso   1.000  C
  O4       1.0000 0.08460  0.75930  0.82770  Biso   1.000  O
  C12      1.0000 0.01780  0.61550  0.96430  Biso   1.000  C
  C13      1.0000 0.08490  0.52260  0.89750  Biso   1.000  C
  H9       1.0000 0.14340  0.53720  0.82720  Biso   1.000  H
  C14      1.0000 0.93420  0.59230  0.06560  Biso   1.000  C
  H10      1.0000 0.88840  0.65600  0.11150  Biso   1.000  H
  O5       1.0000 0.81650  0.00700  0.00960  Biso   1.000  O
  C15      1.0000 0.77130  0.95780  0.94930  Biso   1.000  C
  O6       1.0000 0.82860  0.89340  0.86840  Biso   1.000  O
  C16      1.0000 0.63060  0.97700  0.97730  Biso   1.000  C
  C17      1.0000 0.55870  0.05620  0.05970  Biso   1.000  C
  H11      1.0000 0.59880  0.09490  0.10050  Biso   1.000  H
  C18      1.0000 0.56900  0.92100  0.91750  Biso   1.000  C
  H12      1.0000 0.61610  0.86720  0.86110  Biso   1.000  H
  O7       1.0000 0.05100  0.24130  0.32550  Biso   1.000  O
  C19      1.0000 0.01390  0.25940  0.42810  Biso   1.000  C
  O8       1.0000 0.98490  0.18310  0.49950  Biso   1.000  O
  C20      1.0000 0.00650  0.38540  0.46390  Biso   1.000  C
  C21      1.0000 0.08470  0.46500  0.39850  Biso   1.000  C
  H13      1.0000 0.14160  0.44200  0.32840  Biso   1.000  H
  C22      1.0000 0.07970  0.57980  0.43610  Biso   1.000  C
  H14      1.0000 0.13570  0.63410  0.39270  Biso   1.000  H
  O9       1.0000 0.81410  0.00330  0.51510  Biso   1.000  O
  C23      1.0000 0.75880  0.05060  0.45410  Biso   1.000  C
  O10      1.0000 0.81210  0.11100  0.37050  Biso   1.000  O
  C24      1.0000 0.62310  0.02730  0.48030  Biso   1.000  C
  C25      1.0000 0.55490  0.08440  0.42460  Biso   1.000  C
  H15      1.0000 0.59230  0.14250  0.37300  Biso   1.000  H
  C26      1.0000 0.56930  0.94170  0.55700  Biso   1.000  C
  H16      1.0000 0.61650  0.90210  0.59600  Biso   1.000  H
  Co2      1.0000 0.00938  0.88342  0.74825  Biso   1.000  Co
  O11      1.0000 0.95450  0.02320  0.66700  Biso   1.000  O
  N3       1.0000 0.87690  0.11310  0.72300  Biso   1.000  N
  C27      1.0000 0.75220  0.11350  0.73880  Biso   1.000  C
  H17      1.0000 0.71970  0.05310  0.70980  Biso   1.000  H
  C28      1.0000 0.67400  0.20630  0.79930  Biso   1.000  C
  H18      1.0000 0.58600  0.20840  0.81210  Biso   1.000  H
  C29      1.0000 0.71830  0.29330  0.84030  Biso   1.000  C
  H19      1.0000 0.66250  0.35580  0.88090  Biso   1.000  H
  C30      1.0000 0.84710  0.29050  0.82260  Biso   1.000  C
  H20      1.0000 0.87960  0.35150  0.85080  Biso   1.000  H
  C31      1.0000 0.92840  0.19820  0.76340  Biso   1.000  C
  C32      1.0000 0.06810  0.19350  0.73590  Biso   1.000  C
  C33      1.0000 0.13730  0.28030  0.67730  Biso   1.000  C
  H21      1.0000 0.09900  0.34200  0.64730  Biso   1.000  H
  C34      1.0000 0.26540  0.27720  0.66190  Biso   1.000  C
  H22      1.0000 0.31570  0.33760  0.62250  Biso   1.000  H
  C35      1.0000 0.31710  0.18660  0.70400  Biso   1.000  C
  H23      1.0000 0.40470  0.18210  0.69340  Biso   1.000  H
  C36      1.0000 0.24160  0.10010  0.76280  Biso   1.000  C
  H24      1.0000 0.27730  0.03720  0.79360  Biso   1.000  H
  N4       1.0000 0.12160  0.10490  0.77580  Biso   1.000  N
  O12      1.0000 0.05150  0.02000  0.83220  Biso   1.000  O
  O13      1.0000 0.00130  0.18220  0.99890  Biso   1.000  O
  C37      1.0000 0.96670  0.25880  0.07200  Biso   1.000  C
  O14      1.0000 0.91540  0.24070  0.17230  Biso   1.000  O
  C38      1.0000 0.98220  0.38450  0.03570  Biso   1.000  C
  C39      1.0000 0.91510  0.47740  0.10250  Biso   1.000  C
  H25      1.0000 0.85660  0.46280  0.17280  Biso   1.000  H
  C40      1.0000 0.06580  0.40770  0.93440  Biso   1.000  C
  H26      1.0000 0.11160  0.34400  0.88850  Biso   1.000  H
  O15      1.0000 0.18350  0.99300  0.99040  Biso   1.000  O
  C41      1.0000 0.22870  0.04220  0.05070  Biso   1.000  C
  O16      1.0000 0.17140  0.10660  0.13160  Biso   1.000  O
  C42      1.0000 0.36940  0.02300  0.02270  Biso   1.000  C
  C43      1.0000 0.44130  0.94380  0.94030  Biso   1.000  C
  H27      1.0000 0.40120  0.90510  0.89950  Biso   1.000  H
  C44      1.0000 0.43100  0.07900  0.08250  Biso   1.000  C
  H28      1.0000 0.38390  0.13280  0.13890  Biso   1.000  H
  O17      1.0000 0.94900  0.75870  0.67450  Biso   1.000  O
  C45      1.0000 0.98610  0.74060  0.57190  Biso   1.000  C
  O18      1.0000 0.01510  0.81690  0.50050  Biso   1.000  O
  C46      1.0000 0.99350  0.61460  0.53610  Biso   1.000  C
  C47      1.0000 0.91530  0.53500  0.60150  Biso   1.000  C
  H29      1.0000 0.85840  0.55800  0.67160  Biso   1.000  H
  C48      1.0000 0.92030  0.42020  0.56390  Biso   1.000  C
  H30      1.0000 0.86430  0.36590  0.60730  Biso   1.000  H
  O19      1.0000 0.18590  0.99670  0.48490  Biso   1.000  O
  C49      1.0000 0.24120  0.94940  0.54590  Biso   1.000  C
  O20      1.0000 0.18790  0.88900  0.62950  Biso   1.000  O
  C50      1.0000 0.37690  0.97270  0.51970  Biso   1.000  C
  C51      1.0000 0.44510  0.91560  0.57540  Biso   1.000  C
  H31      1.0000 0.40770  0.85750  0.62700  Biso   1.000  H
  C52      1.0000 0.43070  0.05830  0.44300  Biso   1.000  C
  H32      1.0000 0.38350  0.09790  0.40400  Biso   1.000  H
  Co3      1.0000 0.00000  0.00000  0.50000  Biso   1.000  Co
  Co4      1.0000 0.00000  0.00000  0.00000  Biso   1.000  Co
