data_image0
_cell_length_a       14.3288
_cell_length_b       13.2643
_cell_length_c       14.3563
_cell_angle_alpha    90
_cell_angle_beta     91.296
_cell_angle_gamma    90

_symmetry_space_group_name_H-M    "P 1"
_symmetry_int_tables_number       1

loop_
  _symmetry_equiv_pos_as_xyz
  'x, y, z'

loop_
  _atom_site_label
  _atom_site_occupancy
  _atom_site_fract_x
  _atom_site_fract_y
  _atom_site_fract_z
  _atom_site_thermal_displace_type
  _atom_site_B_iso_or_equiv
  _atom_site_type_symbol
  O1       1.0000 0.58530  0.66590  0.31090  Biso   1.000  O
  O2       1.0000 0.23050  0.89880  0.32300  Biso   1.000  O
  O3       1.0000 0.20890  0.09430  0.19880  Biso   1.000  O
  O4       1.0000 0.36660  0.51190  0.54800  Biso   1.000  O
  O5       1.0000 0.36610  0.95070  0.26460  Biso   1.000  O
  O6       1.0000 0.13250  0.42020  0.92050  Biso   1.000  O
  O7       1.0000 0.97600  0.47010  0.21480  Biso   1.000  O
  C1       1.0000 0.31520  0.88820  0.30790  Biso   1.000  C
  C2       1.0000 0.45790  0.62910  0.41620  Biso   1.000  C
  H1       1.0000 0.48850  0.57030  0.43940  Biso   1.000  H
  C3       1.0000 0.17260  0.18250  0.16690  Biso   1.000  C
  C4       1.0000 0.19950  0.22240  0.08220  Biso   1.000  C
  H2       1.0000 0.24550  0.18890  0.04690  Biso   1.000  H
  C5       1.0000 0.50040  0.68620  0.34740  Biso   1.000  C
  O8       1.0000 0.96450  0.34050  0.31260  Biso   1.000  O
  O9       1.0000 0.26640  0.63630  0.57780  Biso   1.000  O
  C6       1.0000 0.10760  0.23560  0.22010  Biso   1.000  C
  H3       1.0000 0.08930  0.20950  0.27860  Biso   1.000  H
  O10      1.0000 0.25130  0.31200  0.91220  Biso   1.000  O
  C7       1.0000 0.36340  0.79600  0.34680  Biso   1.000  C
  C8       1.0000 0.09490  0.36350  0.10030  Biso   1.000  C
  H4       1.0000 0.06780  0.42410  0.07690  Biso   1.000  H
  C9       1.0000 0.45080  0.77150  0.31400  Biso   1.000  C
  H5       1.0000 0.47800  0.81290  0.26790  Biso   1.000  H
  C10      1.0000 0.32300  0.74010  0.41650  Biso   1.000  C
  H6       1.0000 0.26380  0.75810  0.43980  Biso   1.000  H
  C11      1.0000 0.15910  0.31210  0.04840  Biso   1.000  C
  C12      1.0000 0.06940  0.32680  0.18750  Biso   1.000  C
  C13      1.0000 0.18450  0.34940  0.95230  Biso   1.000  C
  C14      1.0000 0.99770  0.38010  0.24380  Biso   1.000  C
  C15      1.0000 0.33020  0.59960  0.53070  Biso   1.000  C
  C16      1.0000 0.37190  0.65610  0.45180  Biso   1.000  C
  Zn1      1.0000 0.33592  0.04960  0.16657  Biso   1.000  Zn
  Zn2      1.0000 0.15203  0.01798  0.29943  Biso   1.000  Zn
  O11      1.0000 0.41470  0.16590  0.18910  Biso   1.000  O
  O12      1.0000 0.76950  0.39880  0.17700  Biso   1.000  O
  O13      1.0000 0.79110  0.59430  0.30120  Biso   1.000  O
  O14      1.0000 0.63340  0.01190  0.95200  Biso   1.000  O
  O15      1.0000 0.63390  0.45070  0.23540  Biso   1.000  O
  O16      1.0000 0.86750  0.92020  0.57950  Biso   1.000  O
  O17      1.0000 0.02400  0.97010  0.28520  Biso   1.000  O
  C17      1.0000 0.68480  0.38820  0.19210  Biso   1.000  C
  C18      1.0000 0.54210  0.12910  0.08380  Biso   1.000  C
  H7       1.0000 0.51150  0.07030  0.06060  Biso   1.000  H
  C19      1.0000 0.82740  0.68250  0.33310  Biso   1.000  C
  C20      1.0000 0.80050  0.72240  0.41780  Biso   1.000  C
  H8       1.0000 0.75450  0.68890  0.45310  Biso   1.000  H
  C21      1.0000 0.49960  0.18620  0.15260  Biso   1.000  C
  O18      1.0000 0.03550  0.84050  0.18740  Biso   1.000  O
  O19      1.0000 0.73360  0.13630  0.92220  Biso   1.000  O
  C22      1.0000 0.89240  0.73560  0.27990  Biso   1.000  C
  H9       1.0000 0.91070  0.70950  0.22140  Biso   1.000  H
  O20      1.0000 0.74870  0.81200  0.58780  Biso   1.000  O
  C23      1.0000 0.63660  0.29600  0.15320  Biso   1.000  C
  C24      1.0000 0.90510  0.86350  0.39970  Biso   1.000  C
  H10      1.0000 0.93220  0.92410  0.42310  Biso   1.000  H
  C25      1.0000 0.54920  0.27150  0.18600  Biso   1.000  C
  H11      1.0000 0.52200  0.31290  0.23210  Biso   1.000  H
  C26      1.0000 0.67700  0.24010  0.08350  Biso   1.000  C
  H12      1.0000 0.73620  0.25810  0.06020  Biso   1.000  H
  C27      1.0000 0.84090  0.81210  0.45160  Biso   1.000  C
  C28      1.0000 0.93060  0.82680  0.31250  Biso   1.000  C
  C29      1.0000 0.81550  0.84940  0.54770  Biso   1.000  C
  C30      1.0000 0.00230  0.88010  0.25620  Biso   1.000  C
  C31      1.0000 0.66980  0.09960  0.96930  Biso   1.000  C
  C32      1.0000 0.62810  0.15610  0.04820  Biso   1.000  C
  Zn3      1.0000 0.66408  0.54960  0.33343  Biso   1.000  Zn
  Zn4      1.0000 0.84797  0.51798  0.20057  Biso   1.000  Zn
  O21      1.0000 0.41470  0.33410  0.68910  Biso   1.000  O
  O22      1.0000 0.76950  0.10120  0.67700  Biso   1.000  O
  O23      1.0000 0.79110  0.90570  0.80120  Biso   1.000  O
  O24      1.0000 0.63340  0.48810  0.45200  Biso   1.000  O
  O25      1.0000 0.63390  0.04930  0.73540  Biso   1.000  O
  O26      1.0000 0.86750  0.57980  0.07950  Biso   1.000  O
  O27      1.0000 0.02400  0.52990  0.78520  Biso   1.000  O
  C33      1.0000 0.68480  0.11180  0.69210  Biso   1.000  C
  C34      1.0000 0.54210  0.37090  0.58380  Biso   1.000  C
  H13      1.0000 0.51150  0.42970  0.56060  Biso   1.000  H
  C35      1.0000 0.82740  0.81750  0.83310  Biso   1.000  C
  C36      1.0000 0.80050  0.77760  0.91780  Biso   1.000  C
  H14      1.0000 0.75450  0.81110  0.95310  Biso   1.000  H
  C37      1.0000 0.49960  0.31380  0.65260  Biso   1.000  C
  O28      1.0000 0.03550  0.65950  0.68740  Biso   1.000  O
  O29      1.0000 0.73360  0.36370  0.42220  Biso   1.000  O
  C38      1.0000 0.89240  0.76440  0.77990  Biso   1.000  C
  H15      1.0000 0.91070  0.79050  0.72140  Biso   1.000  H
  O30      1.0000 0.74870  0.68800  0.08780  Biso   1.000  O
  C39      1.0000 0.63660  0.20400  0.65320  Biso   1.000  C
  C40      1.0000 0.90510  0.63650  0.89970  Biso   1.000  C
  H16      1.0000 0.93220  0.57590  0.92310  Biso   1.000  H
  C41      1.0000 0.54920  0.22850  0.68600  Biso   1.000  C
  H17      1.0000 0.52200  0.18710  0.73210  Biso   1.000  H
  C42      1.0000 0.67700  0.25990  0.58350  Biso   1.000  C
  H18      1.0000 0.73620  0.24190  0.56020  Biso   1.000  H
  C43      1.0000 0.84090  0.68790  0.95160  Biso   1.000  C
  C44      1.0000 0.93060  0.67320  0.81250  Biso   1.000  C
  C45      1.0000 0.81550  0.65060  0.04770  Biso   1.000  C
  C46      1.0000 0.00230  0.61990  0.75620  Biso   1.000  C
  C47      1.0000 0.66980  0.40040  0.46930  Biso   1.000  C
  C48      1.0000 0.62810  0.34390  0.54820  Biso   1.000  C
  Zn5      1.0000 0.66408  0.95040  0.83343  Biso   1.000  Zn
  Zn6      1.0000 0.84797  0.98202  0.70057  Biso   1.000  Zn
  O31      1.0000 0.58530  0.83410  0.81090  Biso   1.000  O
  O32      1.0000 0.23050  0.60120  0.82300  Biso   1.000  O
  O33      1.0000 0.20890  0.40570  0.69880  Biso   1.000  O
  O34      1.0000 0.36660  0.98810  0.04800  Biso   1.000  O
  O35      1.0000 0.36610  0.54930  0.76460  Biso   1.000  O
  O36      1.0000 0.13250  0.07980  0.42050  Biso   1.000  O
  O37      1.0000 0.97600  0.02990  0.71480  Biso   1.000  O
  C49      1.0000 0.31520  0.61180  0.80790  Biso   1.000  C
  C50      1.0000 0.45790  0.87090  0.91620  Biso   1.000  C
  H19      1.0000 0.48850  0.92970  0.93940  Biso   1.000  H
  C51      1.0000 0.17260  0.31750  0.66690  Biso   1.000  C
  C52      1.0000 0.19950  0.27760  0.58220  Biso   1.000  C
  H20      1.0000 0.24550  0.31110  0.54690  Biso   1.000  H
  C53      1.0000 0.50040  0.81380  0.84740  Biso   1.000  C
  O38      1.0000 0.96450  0.15950  0.81260  Biso   1.000  O
  O39      1.0000 0.26640  0.86370  0.07780  Biso   1.000  O
  C54      1.0000 0.10760  0.26440  0.72010  Biso   1.000  C
  H21      1.0000 0.08930  0.29050  0.77860  Biso   1.000  H
  O40      1.0000 0.25130  0.18800  0.41220  Biso   1.000  O
  C55      1.0000 0.36340  0.70400  0.84680  Biso   1.000  C
  C56      1.0000 0.09490  0.13650  0.60030  Biso   1.000  C
  H22      1.0000 0.06780  0.07590  0.57690  Biso   1.000  H
  C57      1.0000 0.45080  0.72850  0.81400  Biso   1.000  C
  H23      1.0000 0.47800  0.68710  0.76790  Biso   1.000  H
  C58      1.0000 0.32300  0.75990  0.91650  Biso   1.000  C
  H24      1.0000 0.26380  0.74190  0.93980  Biso   1.000  H
  C59      1.0000 0.15910  0.18790  0.54840  Biso   1.000  C
  C60      1.0000 0.06940  0.17320  0.68750  Biso   1.000  C
  C61      1.0000 0.18450  0.15060  0.45230  Biso   1.000  C
  C62      1.0000 0.99770  0.11990  0.74380  Biso   1.000  C
  C63      1.0000 0.33020  0.90040  0.03070  Biso   1.000  C
  C64      1.0000 0.37190  0.84390  0.95180  Biso   1.000  C
  Zn7      1.0000 0.33592  0.45040  0.66657  Biso   1.000  Zn
  Zn8      1.0000 0.15203  0.48202  0.79943  Biso   1.000  Zn
