data_image0
_cell_length_a       16.808
_cell_length_b       12.964
_cell_length_c       14.513
_cell_angle_alpha    90
_cell_angle_beta     108.46
_cell_angle_gamma    90

_symmetry_space_group_name_H-M    "P 1"
_symmetry_int_tables_number       1

loop_
  _symmetry_equiv_pos_as_xyz
  'x, y, z'

loop_
  _atom_site_label
  _atom_site_occupancy
  _atom_site_fract_x
  _atom_site_fract_y
  _atom_site_fract_z
  _atom_site_thermal_displace_type
  _atom_site_B_iso_or_equiv
  _atom_site_type_symbol
  Zn1      1.0000 0.31802  0.48702  0.81944  Biso   1.000  Zn
  O1       1.0000 0.23154  0.58640  0.75540  Biso   1.000  O
  O2       1.0000 0.35698  0.38470  0.74640  Biso   1.000  O
  O3       1.0000 0.27256  0.41494  0.91379  Biso   1.000  O
  O4       1.0000 0.42369  0.55880  0.88370  Biso   1.000  O
  C1       1.0000 0.15630  0.59880  0.75010  Biso   1.000  C
  Zn2      1.0000 0.15464  0.44689  0.90055  Biso   1.000  Zn
  C2       1.0000 0.32246  0.36600  0.99450  Biso   1.000  C
  O5       1.0000 0.11563  0.54270  0.78860  Biso   1.000  O
  C3       1.0000 0.11270  0.69090  0.69280  Biso   1.000  C
  O6       1.0000 0.08846  0.32230  0.85940  Biso   1.000  O
  O7       1.0000 0.12231  0.51140  0.00380  Biso   1.000  O
  C4       1.0000 0.40780  0.38970  0.03290  Biso   1.000  C
  C5       1.0000 0.28890  0.29070  0.04180  Biso   1.000  C
  C6       1.0000 0.15560  0.75460  0.64800  Biso   1.000  C
  C7       1.0000 0.03060  0.71360  0.68770  Biso   1.000  C
  C8       1.0000 0.45840  0.34210  0.11740  Biso   1.000  C
  H1       1.0000 0.43160  0.43910  0.00110  Biso   1.000  H
  C9       1.0000 0.33990  0.24190  0.12520  Biso   1.000  C
  H2       1.0000 0.23120  0.27310  0.01670  Biso   1.000  H
  C10      1.0000 0.11570  0.84270  0.59870  Biso   1.000  C
  H3       1.0000 0.21140  0.73860  0.65070  Biso   1.000  H
  C11      1.0000 0.99000  0.80250  0.64060  Biso   1.000  C
  H4       1.0000 0.00130  0.66780  0.71670  Biso   1.000  H
  C12      1.0000 0.54840  0.37560  0.16370  Biso   1.000  C
  C13      1.0000 0.42440  0.26830  0.16360  Biso   1.000  C
  C14      1.0000 0.30480  0.16190  0.17730  Biso   1.000  C
  C15      1.0000 0.16000  0.90670  0.54290  Biso   1.000  C
  C16      1.0000 0.03430  0.86720  0.59630  Biso   1.000  C
  O8       1.0000 0.58990  0.34180  0.24340  Biso   1.000  O
  H5       1.0000 0.45860  0.23610  0.22130  Biso   1.000  H
  O9       1.0000 0.22830  0.14480  0.15010  Biso   1.000  O
  O10      1.0000 0.22660  0.87880  0.53400  Biso   1.000  O
  H6       1.0000 0.00850  0.92840  0.56450  Biso   1.000  H
  Zn3      1.0000 0.68198  0.98702  0.68056  Biso   1.000  Zn
  O11      1.0000 0.76846  0.08640  0.74460  Biso   1.000  O
  O12      1.0000 0.64302  0.88470  0.75360  Biso   1.000  O
  O13      1.0000 0.72744  0.91494  0.58621  Biso   1.000  O
  O14      1.0000 0.57631  0.05880  0.61630  Biso   1.000  O
  C17      1.0000 0.84370  0.09880  0.74990  Biso   1.000  C
  Zn4      1.0000 0.84536  0.94689  0.59945  Biso   1.000  Zn
  C18      1.0000 0.67754  0.86600  0.50550  Biso   1.000  C
  O15      1.0000 0.88437  0.04270  0.71140  Biso   1.000  O
  C19      1.0000 0.88730  0.19090  0.80720  Biso   1.000  C
  O16      1.0000 0.91154  0.82230  0.64060  Biso   1.000  O
  O17      1.0000 0.87769  0.01140  0.49620  Biso   1.000  O
  C20      1.0000 0.59220  0.88970  0.46710  Biso   1.000  C
  C21      1.0000 0.71110  0.79070  0.45820  Biso   1.000  C
  C22      1.0000 0.84440  0.25460  0.85200  Biso   1.000  C
  C23      1.0000 0.96940  0.21360  0.81230  Biso   1.000  C
  C24      1.0000 0.54160  0.84210  0.38260  Biso   1.000  C
  H7       1.0000 0.56840  0.93910  0.49890  Biso   1.000  H
  C25      1.0000 0.66010  0.74190  0.37480  Biso   1.000  C
  H8       1.0000 0.76880  0.77310  0.48330  Biso   1.000  H
  C26      1.0000 0.88430  0.34270  0.90130  Biso   1.000  C
  H9       1.0000 0.78860  0.23860  0.84930  Biso   1.000  H
  C27      1.0000 0.01000  0.30250  0.85940  Biso   1.000  C
  H10      1.0000 0.99870  0.16780  0.78330  Biso   1.000  H
  C28      1.0000 0.45160  0.87560  0.33630  Biso   1.000  C
  C29      1.0000 0.57560  0.76830  0.33640  Biso   1.000  C
  C30      1.0000 0.69520  0.66190  0.32270  Biso   1.000  C
  C31      1.0000 0.84000  0.40670  0.95710  Biso   1.000  C
  C32      1.0000 0.96570  0.36720  0.90370  Biso   1.000  C
  O18      1.0000 0.41010  0.84180  0.25660  Biso   1.000  O
  H11      1.0000 0.54140  0.73610  0.27870  Biso   1.000  H
  O19      1.0000 0.77170  0.64480  0.34990  Biso   1.000  O
  O20      1.0000 0.77340  0.37880  0.96600  Biso   1.000  O
  H12      1.0000 0.99150  0.42840  0.93550  Biso   1.000  H
  Zn5      1.0000 0.68198  0.51298  0.18056  Biso   1.000  Zn
  O21      1.0000 0.76846  0.41360  0.24460  Biso   1.000  O
  O22      1.0000 0.64302  0.61530  0.25360  Biso   1.000  O
  O23      1.0000 0.72744  0.58506  0.08621  Biso   1.000  O
  O24      1.0000 0.57631  0.44120  0.11630  Biso   1.000  O
  C33      1.0000 0.84370  0.40120  0.24990  Biso   1.000  C
  Zn6      1.0000 0.84536  0.55311  0.09945  Biso   1.000  Zn
  C34      1.0000 0.67754  0.63400  0.00550  Biso   1.000  C
  O25      1.0000 0.88437  0.45730  0.21140  Biso   1.000  O
  C35      1.0000 0.88730  0.30910  0.30720  Biso   1.000  C
  O26      1.0000 0.91154  0.67770  0.14060  Biso   1.000  O
  O27      1.0000 0.87769  0.48860  0.99620  Biso   1.000  O
  C36      1.0000 0.59220  0.61030  0.96710  Biso   1.000  C
  C37      1.0000 0.71110  0.70930  0.95820  Biso   1.000  C
  C38      1.0000 0.84440  0.24540  0.35200  Biso   1.000  C
  C39      1.0000 0.96940  0.28640  0.31230  Biso   1.000  C
  C40      1.0000 0.54160  0.65790  0.88260  Biso   1.000  C
  H13      1.0000 0.56840  0.56090  0.99890  Biso   1.000  H
  C41      1.0000 0.66010  0.75810  0.87480  Biso   1.000  C
  H14      1.0000 0.76880  0.72690  0.98330  Biso   1.000  H
  C42      1.0000 0.88430  0.15730  0.40130  Biso   1.000  C
  H15      1.0000 0.78860  0.26140  0.34930  Biso   1.000  H
  C43      1.0000 0.01000  0.19750  0.35940  Biso   1.000  C
  H16      1.0000 0.99870  0.33220  0.28330  Biso   1.000  H
  C44      1.0000 0.45160  0.62440  0.83630  Biso   1.000  C
  C45      1.0000 0.57560  0.73170  0.83640  Biso   1.000  C
  C46      1.0000 0.69520  0.83810  0.82270  Biso   1.000  C
  C47      1.0000 0.84000  0.09330  0.45710  Biso   1.000  C
  C48      1.0000 0.96570  0.13280  0.40370  Biso   1.000  C
  O28      1.0000 0.41010  0.65820  0.75660  Biso   1.000  O
  H17      1.0000 0.54140  0.76390  0.77870  Biso   1.000  H
  O29      1.0000 0.77170  0.85520  0.84990  Biso   1.000  O
  O30      1.0000 0.77340  0.12120  0.46600  Biso   1.000  O
  H18      1.0000 0.99150  0.07160  0.43550  Biso   1.000  H
  Zn7      1.0000 0.31802  0.01298  0.31944  Biso   1.000  Zn
  O31      1.0000 0.23154  0.91360  0.25540  Biso   1.000  O
  O32      1.0000 0.35698  0.11530  0.24640  Biso   1.000  O
  O33      1.0000 0.27256  0.08506  0.41379  Biso   1.000  O
  O34      1.0000 0.42369  0.94120  0.38370  Biso   1.000  O
  C49      1.0000 0.15630  0.90120  0.25010  Biso   1.000  C
  Zn8      1.0000 0.15464  0.05311  0.40055  Biso   1.000  Zn
  C50      1.0000 0.32246  0.13400  0.49450  Biso   1.000  C
  O35      1.0000 0.11563  0.95730  0.28860  Biso   1.000  O
  C51      1.0000 0.11270  0.80910  0.19280  Biso   1.000  C
  O36      1.0000 0.08846  0.17770  0.35940  Biso   1.000  O
  O37      1.0000 0.12231  0.98860  0.50380  Biso   1.000  O
  C52      1.0000 0.40780  0.11030  0.53290  Biso   1.000  C
  C53      1.0000 0.28890  0.20930  0.54180  Biso   1.000  C
  C54      1.0000 0.15560  0.74540  0.14800  Biso   1.000  C
  C55      1.0000 0.03060  0.78640  0.18770  Biso   1.000  C
  C56      1.0000 0.45840  0.15790  0.61740  Biso   1.000  C
  H19      1.0000 0.43160  0.06090  0.50110  Biso   1.000  H
  C57      1.0000 0.33990  0.25810  0.62520  Biso   1.000  C
  H20      1.0000 0.23120  0.22690  0.51670  Biso   1.000  H
  C58      1.0000 0.11570  0.65730  0.09870  Biso   1.000  C
  H21      1.0000 0.21140  0.76140  0.15070  Biso   1.000  H
  C59      1.0000 0.99000  0.69750  0.14060  Biso   1.000  C
  H22      1.0000 0.00130  0.83220  0.21670  Biso   1.000  H
  C60      1.0000 0.54840  0.12440  0.66370  Biso   1.000  C
  C61      1.0000 0.42440  0.23170  0.66360  Biso   1.000  C
  C62      1.0000 0.30480  0.33810  0.67730  Biso   1.000  C
  C63      1.0000 0.16000  0.59330  0.04290  Biso   1.000  C
  C64      1.0000 0.03430  0.63280  0.09630  Biso   1.000  C
  O38      1.0000 0.58990  0.15820  0.74340  Biso   1.000  O
  H23      1.0000 0.45860  0.26390  0.72130  Biso   1.000  H
  O39      1.0000 0.22830  0.35520  0.65010  Biso   1.000  O
  O40      1.0000 0.22660  0.62120  0.03400  Biso   1.000  O
  H24      1.0000 0.00850  0.57160  0.06450  Biso   1.000  H
