data_RUHCED
_audit_creation_date              2015-05-14
_audit_creation_method            'Materials Studio'
_symmetry_space_group_name_H-M    'P1'
_symmetry_Int_Tables_number       1
_symmetry_cell_setting            triclinic
loop_
_symmetry_equiv_pos_as_xyz
  x,y,z
_cell_length_a                    6.7120
_cell_length_b                    11.2486
_cell_length_c                    17.9650
_cell_angle_alpha                 90.0000
_cell_angle_beta                  91.9750
_cell_angle_gamma                 90.0000
loop_
_atom_site_label
_atom_site_type_symbol
_atom_site_fract_x
_atom_site_fract_y
_atom_site_fract_z
_atom_site_U_iso_or_equiv
_atom_site_adp_type
_atom_site_occupancy
O1     O     0.39440   0.87850   0.42750   0.00000  Uiso   1.00
C2     C     0.23800   0.86920   0.39460   0.00000  Uiso   1.00
C3     C     0.24030   0.80300   0.31870   0.00000  Uiso   1.00
C4     C     0.07160   0.78340   0.27780   0.00000  Uiso   1.00
C5     C     0.08060   0.72860   0.20820   0.00000  Uiso   1.00
O6     O     0.43020   0.59800   0.08750   0.00000  Uiso   1.00
H7     H     0.55460   0.79000   0.32370   0.00000  Uiso   1.00
H8     H     0.56970   0.68900   0.20180   0.00000  Uiso   1.00
H9     H     0.25000   0.33420   0.00000   0.00000  Uiso   1.00
O10    O     0.89440   0.37850   0.92750   0.00000  Uiso   1.00
C11    C     0.73800   0.36920   0.89460   0.00000  Uiso   1.00
C12    C     0.74030   0.30300   0.81870   0.00000  Uiso   1.00
C13    C     0.57160   0.28340   0.77780   0.00000  Uiso   1.00
C14    C     0.58060   0.22860   0.70820   0.00000  Uiso   1.00
O15    O     0.93020   0.09800   0.58750   0.00000  Uiso   1.00
H16    H     0.05460   0.29000   0.82370   0.00000  Uiso   1.00
H17    H     0.06970   0.18900   0.70180   0.00000  Uiso   1.00
H18    H     0.75000   0.83420   0.50000   0.00000  Uiso   1.00
O19    O     0.10560   0.87850   0.57250   0.00000  Uiso   1.00
C20    C     0.26200   0.86920   0.60540   0.00000  Uiso   1.00
C21    C     0.25970   0.80300   0.68130   0.00000  Uiso   1.00
C22    C     0.42840   0.78340   0.72220   0.00000  Uiso   1.00
C23    C     0.41940   0.72860   0.79180   0.00000  Uiso   1.00
O24    O     0.06980   0.59800   0.91250   0.00000  Uiso   1.00
H25    H     0.94540   0.79000   0.67630   0.00000  Uiso   1.00
H26    H     0.93030   0.68900   0.79820   0.00000  Uiso   1.00
O27    O     0.60560   0.37850   0.07250   0.00000  Uiso   1.00
C28    C     0.76200   0.36920   0.10540   0.00000  Uiso   1.00
C29    C     0.75970   0.30300   0.18130   0.00000  Uiso   1.00
C30    C     0.92840   0.28340   0.22220   0.00000  Uiso   1.00
C31    C     0.91940   0.22860   0.29180   0.00000  Uiso   1.00
O32    O     0.56980   0.09800   0.41250   0.00000  Uiso   1.00
H33    H     0.44540   0.29000   0.17630   0.00000  Uiso   1.00
H34    H     0.43030   0.18900   0.29820   0.00000  Uiso   1.00
O36    O     0.60560   0.12150   0.57250   0.00000  Uiso   1.00
C37    C     0.76200   0.13080   0.60540   0.00000  Uiso   1.00
C38    C     0.75970   0.19700   0.68130   0.00000  Uiso   1.00
C39    C     0.92840   0.21660   0.72220   0.00000  Uiso   1.00
C40    C     0.91940   0.27140   0.79180   0.00000  Uiso   1.00
O41    O     0.56980   0.40200   0.91250   0.00000  Uiso   1.00
H42    H     0.44540   0.21000   0.67630   0.00000  Uiso   1.00
H43    H     0.43030   0.31100   0.79820   0.00000  Uiso   1.00
O44    O     0.10560   0.62150   0.07250   0.00000  Uiso   1.00
C45    C     0.26200   0.63080   0.10540   0.00000  Uiso   1.00
C46    C     0.25970   0.69700   0.18130   0.00000  Uiso   1.00
C47    C     0.42840   0.71660   0.22220   0.00000  Uiso   1.00
C48    C     0.41940   0.77140   0.29180   0.00000  Uiso   1.00
O49    O     0.06980   0.90200   0.41250   0.00000  Uiso   1.00
H50    H     0.94540   0.71000   0.17630   0.00000  Uiso   1.00
H51    H     0.93030   0.81100   0.29820   0.00000  Uiso   1.00
H52    H     0.25000   0.16580   0.50000   0.00000  Uiso   1.00
O53    O     0.89440   0.12150   0.42750   0.00000  Uiso   1.00
C54    C     0.73800   0.13080   0.39460   0.00000  Uiso   1.00
C55    C     0.74030   0.19700   0.31870   0.00000  Uiso   1.00
C56    C     0.57160   0.21660   0.27780   0.00000  Uiso   1.00
C57    C     0.58060   0.27140   0.20820   0.00000  Uiso   1.00
O58    O     0.93020   0.40200   0.08750   0.00000  Uiso   1.00
H59    H     0.05460   0.21000   0.32370   0.00000  Uiso   1.00
H60    H     0.06970   0.31100   0.20180   0.00000  Uiso   1.00
H61    H     0.75000   0.66580   0.00000   0.00000  Uiso   1.00
O62    O     0.39440   0.62150   0.92750   0.00000  Uiso   1.00
C63    C     0.23800   0.63080   0.89460   0.00000  Uiso   1.00
C64    C     0.24030   0.69700   0.81870   0.00000  Uiso   1.00
C65    C     0.07160   0.71660   0.77780   0.00000  Uiso   1.00
C66    C     0.08060   0.77140   0.70820   0.00000  Uiso   1.00
O67    O     0.43020   0.90200   0.58750   0.00000  Uiso   1.00
H68    H     0.55460   0.71000   0.82370   0.00000  Uiso   1.00
H69    H     0.56970   0.81100   0.70180   0.00000  Uiso   1.00
Ga71   Ga    0.50000  -0.00000   0.50000   0.00000  Uiso   1.00
Ga72   Ga    0.00000   0.50000   0.00000   0.00000  Uiso   1.00
Ga73   Ga    0.00000  -0.00000   0.50000   0.00000  Uiso   1.00
Ga74   Ga    0.50000   0.50000   0.00000   0.00000  Uiso   1.00
O75    O     0.25000   0.07690   0.50000   0.00000  Uiso   1.00
O76    O     0.75000   0.57690  -0.00000   0.00000  Uiso   1.00
O77    O     0.75000   0.92310   0.50000   0.00000  Uiso   1.00
O78    O     0.25000   0.42310   0.00000   0.00000  Uiso   1.00
