data_image0
_cell_length_a       10.3142
_cell_length_b       10.3142
_cell_length_c       11.418
_cell_angle_alpha    84.9945
_cell_angle_beta     84.9945
_cell_angle_gamma    65.656

_symmetry_space_group_name_H-M    P 1
_symmetry_int_tables_number       1

loop_
  _symmetry_equiv_pos_as_xyz
  'x, y, z'

loop_
  _atom_site_label
  _atom_site_occupancy
  _atom_site_fract_x
  _atom_site_fract_y
  _atom_site_fract_z
  _atom_site_thermal_displace_type
  _atom_site_B_iso_or_equiv
  _atom_site_type_symbol
  Mn1      1.0000 0.54089  0.63671  0.48511  Biso   1.000  Mn
  Mn2      1.0000 0.36329  0.45911  0.01489  Biso   1.000  Mn
  Mn3      1.0000 0.45911  0.36329  0.51489  Biso   1.000  Mn
  Mn4      1.0000 0.63671  0.54089  0.98511  Biso   1.000  Mn
  Mn5      1.0000 0.62974  0.37026  0.75000  Biso   1.000  Mn
  Mn6      1.0000 0.37026  0.62974  0.25000  Biso   1.000  Mn
  H1       1.0000 0.62100  0.29900  0.96100  Biso   1.000  H
  H2       1.0000 0.64030  0.90430  0.50800  Biso   1.000  H
  H3       1.0000 0.91240  0.53240  0.62500  Biso   1.000  H
  H4       1.0000 0.97040  0.63040  0.78700  Biso   1.000  H
  H5       1.0000 0.85220  0.88620  0.80000  Biso   1.000  H
  H6       1.0000 0.20800  0.55400  0.69000  Biso   1.000  H
  H7       1.0000 0.70100  0.37900  0.53900  Biso   1.000  H
  H8       1.0000 0.09570  0.35970  0.99200  Biso   1.000  H
  H9       1.0000 0.46760  0.08760  0.87500  Biso   1.000  H
  H10      1.0000 0.36960  0.02960  0.71300  Biso   1.000  H
  H11      1.0000 0.11380  0.14780  0.70000  Biso   1.000  H
  H12      1.0000 0.44600  0.79200  0.81000  Biso   1.000  H
  H13      1.0000 0.37900  0.70100  0.03900  Biso   1.000  H
  H14      1.0000 0.35970  0.09570  0.49200  Biso   1.000  H
  H15      1.0000 0.08760  0.46760  0.37500  Biso   1.000  H
  H16      1.0000 0.02960  0.36960  0.21300  Biso   1.000  H
  H17      1.0000 0.14780  0.11380  0.20000  Biso   1.000  H
  H18      1.0000 0.79200  0.44600  0.31000  Biso   1.000  H
  H19      1.0000 0.29900  0.62100  0.46100  Biso   1.000  H
  H20      1.0000 0.90430  0.64030  0.00800  Biso   1.000  H
  H21      1.0000 0.53240  0.91240  0.12500  Biso   1.000  H
  H22      1.0000 0.63040  0.97040  0.28700  Biso   1.000  H
  H23      1.0000 0.88620  0.85220  0.30000  Biso   1.000  H
  H24      1.0000 0.55400  0.20800  0.19000  Biso   1.000  H
  C1       1.0000 0.65964  0.08184  0.65790  Biso   1.000  C
  C2       1.0000 0.73564  0.92104  0.65650  Biso   1.000  C
  C3       1.0000 0.70798  0.85358  0.56820  Biso   1.000  C
  C4       1.0000 0.87150  0.63050  0.63970  Biso   1.000  C
  C5       1.0000 0.90000  0.69340  0.72910  Biso   1.000  C
  C6       1.0000 0.83250  0.83870  0.73850  Biso   1.000  C
  C7       1.0000 0.28770  0.50150  0.74540  Biso   1.000  C
  C8       1.0000 0.91816  0.34036  0.84210  Biso   1.000  C
  C9       1.0000 0.07896  0.26436  0.84350  Biso   1.000  C
  C10      1.0000 0.14642  0.29202  0.93180  Biso   1.000  C
  C11      1.0000 0.36950  0.12850  0.86030  Biso   1.000  C
  C12      1.0000 0.30660  0.10000  0.77090  Biso   1.000  C
  C13      1.0000 0.16130  0.16750  0.76150  Biso   1.000  C
  C14      1.0000 0.49850  0.71230  0.75460  Biso   1.000  C
  C15      1.0000 0.34036  0.91816  0.34210  Biso   1.000  C
  C16      1.0000 0.26436  0.07896  0.34350  Biso   1.000  C
  C17      1.0000 0.29202  0.14642  0.43180  Biso   1.000  C
  C18      1.0000 0.12850  0.36950  0.36030  Biso   1.000  C
  C19      1.0000 0.10000  0.30660  0.27090  Biso   1.000  C
  C20      1.0000 0.16750  0.16130  0.26150  Biso   1.000  C
  C21      1.0000 0.71230  0.49850  0.25460  Biso   1.000  C
  C22      1.0000 0.08184  0.65964  0.15790  Biso   1.000  C
  C23      1.0000 0.92104  0.73564  0.15650  Biso   1.000  C
  C24      1.0000 0.85358  0.70798  0.06820  Biso   1.000  C
  C25      1.0000 0.63050  0.87150  0.13970  Biso   1.000  C
  C26      1.0000 0.69340  0.90000  0.22910  Biso   1.000  C
  C27      1.0000 0.83870  0.83250  0.23850  Biso   1.000  C
  C28      1.0000 0.50150  0.28770  0.24540  Biso   1.000  C
  N1       1.0000 0.77496  0.71096  0.56120  Biso   1.000  N
  N2       1.0000 0.28904  0.22504  0.93880  Biso   1.000  N
  N3       1.0000 0.22504  0.28904  0.43880  Biso   1.000  N
  N4       1.0000 0.71096  0.77496  0.06120  Biso   1.000  N
  O1       1.0000 0.74678  0.64818  0.47510  Biso   1.000  O
  O2       1.0000 0.57182  0.14222  0.58004  Biso   1.000  O
  O3       1.0000 0.68967  0.14187  0.73638  Biso   1.000  O
  O4       1.0000 0.25695  0.53755  0.84929  Biso   1.000  O
  O5       1.0000 0.58077  0.36937  0.93965  Biso   1.000  O
  O6       1.0000 0.40580  0.42290  0.70331  Biso   1.000  O
  O7       1.0000 0.35182  0.25322  0.02490  Biso   1.000  O
  O8       1.0000 0.85778  0.42818  0.91996  Biso   1.000  O
  O9       1.0000 0.85813  0.31033  0.76362  Biso   1.000  O
  O10      1.0000 0.46245  0.74305  0.65071  Biso   1.000  O
  O11      1.0000 0.63063  0.41923  0.56035  Biso   1.000  O
  O12      1.0000 0.57710  0.59420  0.79669  Biso   1.000  O
  O13      1.0000 0.25322  0.35182  0.52490  Biso   1.000  O
  O14      1.0000 0.42818  0.85778  0.41996  Biso   1.000  O
  O15      1.0000 0.31033  0.85813  0.26362  Biso   1.000  O
  O16      1.0000 0.74305  0.46245  0.15071  Biso   1.000  O
  O17      1.0000 0.41923  0.63063  0.06035  Biso   1.000  O
  O18      1.0000 0.59420  0.57710  0.29669  Biso   1.000  O
  O19      1.0000 0.64818  0.74678  0.97510  Biso   1.000  O
  O20      1.0000 0.14222  0.57182  0.08004  Biso   1.000  O
  O21      1.0000 0.14187  0.68967  0.23638  Biso   1.000  O
  O22      1.0000 0.53755  0.25695  0.34929  Biso   1.000  O
  O23      1.0000 0.36937  0.58077  0.43965  Biso   1.000  O
  O24      1.0000 0.42290  0.40580  0.20331  Biso   1.000  O
