data_image0
_cell_length_a       13.5926
_cell_length_b       19.9573
_cell_length_c       19.8663
_cell_angle_alpha    90
_cell_angle_beta     90
_cell_angle_gamma    90

_symmetry_space_group_name_H-M    "P 1"
_symmetry_int_tables_number       1

loop_
  _symmetry_equiv_pos_as_xyz
  'x, y, z'

loop_
  _atom_site_label
  _atom_site_occupancy
  _atom_site_fract_x
  _atom_site_fract_y
  _atom_site_fract_z
  _atom_site_thermal_displace_type
  _atom_site_B_iso_or_equiv
  _atom_site_type_symbol
  F1       1.0000 0.91603  0.26182  0.24984  Biso   1.000  F
  N1       1.0000 0.75046  0.42716  0.07567  Biso   1.000  N
  N2       1.0000 0.74970  0.33138  0.17734  Biso   1.000  N
  C1       1.0000 0.67510  0.38431  0.08340  Biso   1.000  C
  H1       1.0000 0.62080  0.38690  0.05340  Biso   1.000  H
  C2       1.0000 0.67440  0.33646  0.13372  Biso   1.000  C
  H2       1.0000 0.62010  0.30680  0.13750  Biso   1.000  H
  C3       1.0000 0.82550  0.42118  0.11881  Biso   1.000  C
  H3       1.0000 0.88060  0.45020  0.11430  Biso   1.000  H
  C4       1.0000 0.82530  0.37388  0.16989  Biso   1.000  C
  H4       1.0000 0.87950  0.37150  0.20000  Biso   1.000  H
  N3       1.0000 0.75064  0.68837  0.17908  Biso   1.000  N
  N4       1.0000 0.75020  0.58580  0.08416  Biso   1.000  N
  C5       1.0000 0.82820  0.64708  0.17249  Biso   1.000  C
  H5       1.0000 0.88400  0.65260  0.20080  Biso   1.000  H
  C6       1.0000 0.82710  0.59659  0.12466  Biso   1.000  C
  H6       1.0000 0.88320  0.56850  0.12050  Biso   1.000  H
  C7       1.0000 0.67340  0.67849  0.13867  Biso   1.000  C
  H7       1.0000 0.61760  0.70700  0.14210  Biso   1.000  H
  C8       1.0000 0.67390  0.62711  0.09186  Biso   1.000  C
  H8       1.0000 0.61760  0.62100  0.06410  Biso   1.000  H
  H9       1.0000 0.92670  0.54090  0.00060  Biso   1.000  H
  F2       1.0000 0.41603  0.76182  0.24984  Biso   1.000  F
  N5       1.0000 0.25046  0.92716  0.07567  Biso   1.000  N
  N6       1.0000 0.24970  0.83138  0.17734  Biso   1.000  N
  C9       1.0000 0.17510  0.88431  0.08340  Biso   1.000  C
  H10      1.0000 0.12080  0.88690  0.05340  Biso   1.000  H
  C10      1.0000 0.17440  0.83646  0.13372  Biso   1.000  C
  H11      1.0000 0.12010  0.80680  0.13750  Biso   1.000  H
  C11      1.0000 0.32550  0.92118  0.11881  Biso   1.000  C
  H12      1.0000 0.38060  0.95020  0.11430  Biso   1.000  H
  C12      1.0000 0.32530  0.87388  0.16989  Biso   1.000  C
  H13      1.0000 0.37950  0.87150  0.20000  Biso   1.000  H
  N7       1.0000 0.25064  0.18837  0.17908  Biso   1.000  N
  N8       1.0000 0.25020  0.08580  0.08416  Biso   1.000  N
  C13      1.0000 0.32820  0.14708  0.17249  Biso   1.000  C
  H14      1.0000 0.38400  0.15260  0.20080  Biso   1.000  H
  C14      1.0000 0.32710  0.09659  0.12466  Biso   1.000  C
  H15      1.0000 0.38320  0.06850  0.12050  Biso   1.000  H
  C15      1.0000 0.17340  0.17849  0.13867  Biso   1.000  C
  H16      1.0000 0.11760  0.20700  0.14210  Biso   1.000  H
  C16      1.0000 0.17390  0.12711  0.09186  Biso   1.000  C
  H17      1.0000 0.11760  0.12100  0.06410  Biso   1.000  H
  H18      1.0000 0.42670  0.04090  0.00060  Biso   1.000  H
  F3       1.0000 0.08397  0.23818  0.74984  Biso   1.000  F
  N9       1.0000 0.24954  0.07284  0.57567  Biso   1.000  N
  N10      1.0000 0.25030  0.16862  0.67734  Biso   1.000  N
  C17      1.0000 0.32490  0.11569  0.58340  Biso   1.000  C
  H19      1.0000 0.37920  0.11310  0.55340  Biso   1.000  H
  C18      1.0000 0.32560  0.16354  0.63372  Biso   1.000  C
  H20      1.0000 0.37990  0.19320  0.63750  Biso   1.000  H
  C19      1.0000 0.17450  0.07882  0.61881  Biso   1.000  C
  H21      1.0000 0.11940  0.04980  0.61430  Biso   1.000  H
  C20      1.0000 0.17470  0.12612  0.66989  Biso   1.000  C
  H22      1.0000 0.12050  0.12850  0.70000  Biso   1.000  H
  N11      1.0000 0.24936  0.81163  0.67908  Biso   1.000  N
  N12      1.0000 0.24980  0.91420  0.58416  Biso   1.000  N
  C21      1.0000 0.17180  0.85292  0.67249  Biso   1.000  C
  H23      1.0000 0.11600  0.84740  0.70080  Biso   1.000  H
  C22      1.0000 0.17290  0.90341  0.62466  Biso   1.000  C
  H24      1.0000 0.11680  0.93150  0.62050  Biso   1.000  H
  C23      1.0000 0.32660  0.82151  0.63867  Biso   1.000  C
  H25      1.0000 0.38240  0.79300  0.64210  Biso   1.000  H
  C24      1.0000 0.32610  0.87289  0.59186  Biso   1.000  C
  H26      1.0000 0.38240  0.87900  0.56410  Biso   1.000  H
  H27      1.0000 0.07330  0.95910  0.50060  Biso   1.000  H
  F4       1.0000 0.58397  0.73818  0.74984  Biso   1.000  F
  N13      1.0000 0.74954  0.57284  0.57567  Biso   1.000  N
  N14      1.0000 0.75030  0.66862  0.67734  Biso   1.000  N
  C25      1.0000 0.82490  0.61569  0.58340  Biso   1.000  C
  H28      1.0000 0.87920  0.61310  0.55340  Biso   1.000  H
  C26      1.0000 0.82560  0.66354  0.63372  Biso   1.000  C
  H29      1.0000 0.87990  0.69320  0.63750  Biso   1.000  H
  C27      1.0000 0.67450  0.57882  0.61881  Biso   1.000  C
  H30      1.0000 0.61940  0.54980  0.61430  Biso   1.000  H
  C28      1.0000 0.67470  0.62612  0.66989  Biso   1.000  C
  H31      1.0000 0.62050  0.62850  0.70000  Biso   1.000  H
  N15      1.0000 0.74936  0.31163  0.67908  Biso   1.000  N
  N16      1.0000 0.74980  0.41420  0.58416  Biso   1.000  N
  C29      1.0000 0.67180  0.35292  0.67249  Biso   1.000  C
  H32      1.0000 0.61600  0.34740  0.70080  Biso   1.000  H
  C30      1.0000 0.67290  0.40341  0.62466  Biso   1.000  C
  H33      1.0000 0.61680  0.43150  0.62050  Biso   1.000  H
  C31      1.0000 0.82660  0.32151  0.63867  Biso   1.000  C
  H34      1.0000 0.88240  0.29300  0.64210  Biso   1.000  H
  C32      1.0000 0.82610  0.37289  0.59186  Biso   1.000  C
  H35      1.0000 0.88240  0.37900  0.56410  Biso   1.000  H
  H36      1.0000 0.57330  0.45910  0.50060  Biso   1.000  H
  F5       1.0000 0.08397  0.76182  0.25016  Biso   1.000  F
  N17      1.0000 0.24954  0.92716  0.42433  Biso   1.000  N
  N18      1.0000 0.25030  0.83138  0.32266  Biso   1.000  N
  C33      1.0000 0.32490  0.88431  0.41660  Biso   1.000  C
  H37      1.0000 0.37920  0.88690  0.44660  Biso   1.000  H
  C34      1.0000 0.32560  0.83646  0.36628  Biso   1.000  C
  H38      1.0000 0.37990  0.80680  0.36250  Biso   1.000  H
  C35      1.0000 0.17450  0.92118  0.38119  Biso   1.000  C
  H39      1.0000 0.11940  0.95020  0.38570  Biso   1.000  H
  C36      1.0000 0.17470  0.87388  0.33011  Biso   1.000  C
  H40      1.0000 0.12050  0.87150  0.30000  Biso   1.000  H
  N19      1.0000 0.24936  0.18837  0.32092  Biso   1.000  N
  N20      1.0000 0.24980  0.08580  0.41584  Biso   1.000  N
  C37      1.0000 0.17180  0.14708  0.32751  Biso   1.000  C
  H41      1.0000 0.11600  0.15260  0.29920  Biso   1.000  H
  C38      1.0000 0.17290  0.09659  0.37534  Biso   1.000  C
  H42      1.0000 0.11680  0.06850  0.37950  Biso   1.000  H
  C39      1.0000 0.32660  0.17849  0.36133  Biso   1.000  C
  H43      1.0000 0.38240  0.20700  0.35790  Biso   1.000  H
  C40      1.0000 0.32610  0.12711  0.40814  Biso   1.000  C
  H44      1.0000 0.38240  0.12100  0.43590  Biso   1.000  H
  H45      1.0000 0.07330  0.04090  0.49940  Biso   1.000  H
  F6       1.0000 0.58397  0.26182  0.25016  Biso   1.000  F
  N21      1.0000 0.74954  0.42716  0.42433  Biso   1.000  N
  N22      1.0000 0.75030  0.33138  0.32266  Biso   1.000  N
  C41      1.0000 0.82490  0.38431  0.41660  Biso   1.000  C
  H46      1.0000 0.87920  0.38690  0.44660  Biso   1.000  H
  C42      1.0000 0.82560  0.33646  0.36628  Biso   1.000  C
  H47      1.0000 0.87990  0.30680  0.36250  Biso   1.000  H
  C43      1.0000 0.67450  0.42118  0.38119  Biso   1.000  C
  H48      1.0000 0.61940  0.45020  0.38570  Biso   1.000  H
  C44      1.0000 0.67470  0.37388  0.33011  Biso   1.000  C
  H49      1.0000 0.62050  0.37150  0.30000  Biso   1.000  H
  N23      1.0000 0.74936  0.68837  0.32092  Biso   1.000  N
  N24      1.0000 0.74980  0.58580  0.41584  Biso   1.000  N
  C45      1.0000 0.67180  0.64708  0.32751  Biso   1.000  C
  H50      1.0000 0.61600  0.65260  0.29920  Biso   1.000  H
  C46      1.0000 0.67290  0.59659  0.37534  Biso   1.000  C
  H51      1.0000 0.61680  0.56850  0.37950  Biso   1.000  H
  C47      1.0000 0.82660  0.67849  0.36133  Biso   1.000  C
  H52      1.0000 0.88240  0.70700  0.35790  Biso   1.000  H
  C48      1.0000 0.82610  0.62711  0.40814  Biso   1.000  C
  H53      1.0000 0.88240  0.62100  0.43590  Biso   1.000  H
  H54      1.0000 0.57330  0.54090  0.49940  Biso   1.000  H
  F7       1.0000 0.91603  0.73818  0.75016  Biso   1.000  F
  N25      1.0000 0.75046  0.57284  0.92433  Biso   1.000  N
  N26      1.0000 0.74970  0.66862  0.82266  Biso   1.000  N
  C49      1.0000 0.67510  0.61569  0.91660  Biso   1.000  C
  H55      1.0000 0.62080  0.61310  0.94660  Biso   1.000  H
  C50      1.0000 0.67440  0.66354  0.86628  Biso   1.000  C
  H56      1.0000 0.62010  0.69320  0.86250  Biso   1.000  H
  C51      1.0000 0.82550  0.57882  0.88119  Biso   1.000  C
  H57      1.0000 0.88060  0.54980  0.88570  Biso   1.000  H
  C52      1.0000 0.82530  0.62612  0.83011  Biso   1.000  C
  H58      1.0000 0.87950  0.62850  0.80000  Biso   1.000  H
  N27      1.0000 0.75064  0.31163  0.82092  Biso   1.000  N
  N28      1.0000 0.75020  0.41420  0.91584  Biso   1.000  N
  C53      1.0000 0.82820  0.35292  0.82751  Biso   1.000  C
  H59      1.0000 0.88400  0.34740  0.79920  Biso   1.000  H
  C54      1.0000 0.82710  0.40341  0.87534  Biso   1.000  C
  H60      1.0000 0.88320  0.43150  0.87950  Biso   1.000  H
  C55      1.0000 0.67340  0.32151  0.86133  Biso   1.000  C
  H61      1.0000 0.61760  0.29300  0.85790  Biso   1.000  H
  C56      1.0000 0.67390  0.37289  0.90814  Biso   1.000  C
  H62      1.0000 0.61760  0.37900  0.93590  Biso   1.000  H
  H63      1.0000 0.92670  0.45910  0.99940  Biso   1.000  H
  F8       1.0000 0.41603  0.23818  0.75016  Biso   1.000  F
  N29      1.0000 0.25046  0.07284  0.92433  Biso   1.000  N
  N30      1.0000 0.24970  0.16862  0.82266  Biso   1.000  N
  C57      1.0000 0.17510  0.11569  0.91660  Biso   1.000  C
  H64      1.0000 0.12080  0.11310  0.94660  Biso   1.000  H
  C58      1.0000 0.17440  0.16354  0.86628  Biso   1.000  C
  H65      1.0000 0.12010  0.19320  0.86250  Biso   1.000  H
  C59      1.0000 0.32550  0.07882  0.88119  Biso   1.000  C
  H66      1.0000 0.38060  0.04980  0.88570  Biso   1.000  H
  C60      1.0000 0.32530  0.12612  0.83011  Biso   1.000  C
  H67      1.0000 0.37950  0.12850  0.80000  Biso   1.000  H
  N31      1.0000 0.25064  0.81163  0.82092  Biso   1.000  N
  N32      1.0000 0.25020  0.91420  0.91584  Biso   1.000  N
  C61      1.0000 0.32820  0.85292  0.82751  Biso   1.000  C
  H68      1.0000 0.38400  0.84740  0.79920  Biso   1.000  H
  C62      1.0000 0.32710  0.90341  0.87534  Biso   1.000  C
  H69      1.0000 0.38320  0.93150  0.87950  Biso   1.000  H
  C63      1.0000 0.17340  0.82151  0.86133  Biso   1.000  C
  H70      1.0000 0.11760  0.79300  0.85790  Biso   1.000  H
  C64      1.0000 0.17390  0.87289  0.90814  Biso   1.000  C
  H71      1.0000 0.11760  0.87900  0.93590  Biso   1.000  H
  H72      1.0000 0.42670  0.95910  0.99940  Biso   1.000  H
  F9       1.0000 0.08397  0.73818  0.75016  Biso   1.000  F
  N33      1.0000 0.24954  0.57284  0.92433  Biso   1.000  N
  N34      1.0000 0.25030  0.66862  0.82266  Biso   1.000  N
  C65      1.0000 0.32490  0.61569  0.91660  Biso   1.000  C
  H73      1.0000 0.37920  0.61310  0.94660  Biso   1.000  H
  C66      1.0000 0.32560  0.66354  0.86628  Biso   1.000  C
  H74      1.0000 0.37990  0.69320  0.86250  Biso   1.000  H
  C67      1.0000 0.17450  0.57882  0.88119  Biso   1.000  C
  H75      1.0000 0.11940  0.54980  0.88570  Biso   1.000  H
  C68      1.0000 0.17470  0.62612  0.83011  Biso   1.000  C
  H76      1.0000 0.12050  0.62850  0.80000  Biso   1.000  H
  N35      1.0000 0.24936  0.31163  0.82092  Biso   1.000  N
  N36      1.0000 0.24980  0.41420  0.91584  Biso   1.000  N
  C69      1.0000 0.17180  0.35292  0.82751  Biso   1.000  C
  H77      1.0000 0.11600  0.34740  0.79920  Biso   1.000  H
  C70      1.0000 0.17290  0.40341  0.87534  Biso   1.000  C
  H78      1.0000 0.11680  0.43150  0.87950  Biso   1.000  H
  C71      1.0000 0.32660  0.32151  0.86133  Biso   1.000  C
  H79      1.0000 0.38240  0.29300  0.85790  Biso   1.000  H
  C72      1.0000 0.32610  0.37289  0.90814  Biso   1.000  C
  H80      1.0000 0.38240  0.37900  0.93590  Biso   1.000  H
  H81      1.0000 0.07330  0.45910  0.99940  Biso   1.000  H
  F10      1.0000 0.58397  0.23818  0.75016  Biso   1.000  F
  N37      1.0000 0.74954  0.07284  0.92433  Biso   1.000  N
  N38      1.0000 0.75030  0.16862  0.82266  Biso   1.000  N
  C73      1.0000 0.82490  0.11569  0.91660  Biso   1.000  C
  H82      1.0000 0.87920  0.11310  0.94660  Biso   1.000  H
  C74      1.0000 0.82560  0.16354  0.86628  Biso   1.000  C
  H83      1.0000 0.87990  0.19320  0.86250  Biso   1.000  H
  C75      1.0000 0.67450  0.07882  0.88119  Biso   1.000  C
  H84      1.0000 0.61940  0.04980  0.88570  Biso   1.000  H
  C76      1.0000 0.67470  0.12612  0.83011  Biso   1.000  C
  H85      1.0000 0.62050  0.12850  0.80000  Biso   1.000  H
  N39      1.0000 0.74936  0.81163  0.82092  Biso   1.000  N
  N40      1.0000 0.74980  0.91420  0.91584  Biso   1.000  N
  C77      1.0000 0.67180  0.85292  0.82751  Biso   1.000  C
  H86      1.0000 0.61600  0.84740  0.79920  Biso   1.000  H
  C78      1.0000 0.67290  0.90341  0.87534  Biso   1.000  C
  H87      1.0000 0.61680  0.93150  0.87950  Biso   1.000  H
  C79      1.0000 0.82660  0.82151  0.86133  Biso   1.000  C
  H88      1.0000 0.88240  0.79300  0.85790  Biso   1.000  H
  C80      1.0000 0.82610  0.87289  0.90814  Biso   1.000  C
  H89      1.0000 0.88240  0.87900  0.93590  Biso   1.000  H
  H90      1.0000 0.57330  0.95910  0.99940  Biso   1.000  H
  F11      1.0000 0.91603  0.76182  0.25016  Biso   1.000  F
  N41      1.0000 0.75046  0.92716  0.42433  Biso   1.000  N
  N42      1.0000 0.74970  0.83138  0.32266  Biso   1.000  N
  C81      1.0000 0.67510  0.88431  0.41660  Biso   1.000  C
  H91      1.0000 0.62080  0.88690  0.44660  Biso   1.000  H
  C82      1.0000 0.67440  0.83646  0.36628  Biso   1.000  C
  H92      1.0000 0.62010  0.80680  0.36250  Biso   1.000  H
  C83      1.0000 0.82550  0.92118  0.38119  Biso   1.000  C
  H93      1.0000 0.88060  0.95020  0.38570  Biso   1.000  H
  C84      1.0000 0.82530  0.87388  0.33011  Biso   1.000  C
  H94      1.0000 0.87950  0.87150  0.30000  Biso   1.000  H
  N43      1.0000 0.75064  0.18837  0.32092  Biso   1.000  N
  N44      1.0000 0.75020  0.08580  0.41584  Biso   1.000  N
  C85      1.0000 0.82820  0.14708  0.32751  Biso   1.000  C
  H95      1.0000 0.88400  0.15260  0.29920  Biso   1.000  H
  C86      1.0000 0.82710  0.09659  0.37534  Biso   1.000  C
  H96      1.0000 0.88320  0.06850  0.37950  Biso   1.000  H
  C87      1.0000 0.67340  0.17849  0.36133  Biso   1.000  C
  H97      1.0000 0.61760  0.20700  0.35790  Biso   1.000  H
  C88      1.0000 0.67390  0.12711  0.40814  Biso   1.000  C
  H98      1.0000 0.61760  0.12100  0.43590  Biso   1.000  H
  H99      1.0000 0.92670  0.04090  0.49940  Biso   1.000  H
  F12      1.0000 0.41603  0.26182  0.25016  Biso   1.000  F
  N45      1.0000 0.25046  0.42716  0.42433  Biso   1.000  N
  N46      1.0000 0.24970  0.33138  0.32266  Biso   1.000  N
  C89      1.0000 0.17510  0.38431  0.41660  Biso   1.000  C
  H100     1.0000 0.12080  0.38690  0.44660  Biso   1.000  H
  C90      1.0000 0.17440  0.33646  0.36628  Biso   1.000  C
  H101     1.0000 0.12010  0.30680  0.36250  Biso   1.000  H
  C91      1.0000 0.32550  0.42118  0.38119  Biso   1.000  C
  H102     1.0000 0.38060  0.45020  0.38570  Biso   1.000  H
  C92      1.0000 0.32530  0.37388  0.33011  Biso   1.000  C
  H103     1.0000 0.37950  0.37150  0.30000  Biso   1.000  H
  N47      1.0000 0.25064  0.68837  0.32092  Biso   1.000  N
  N48      1.0000 0.25020  0.58580  0.41584  Biso   1.000  N
  C93      1.0000 0.32820  0.64708  0.32751  Biso   1.000  C
  H104     1.0000 0.38400  0.65260  0.29920  Biso   1.000  H
  C94      1.0000 0.32710  0.59659  0.37534  Biso   1.000  C
  H105     1.0000 0.38320  0.56850  0.37950  Biso   1.000  H
  C95      1.0000 0.17340  0.67849  0.36133  Biso   1.000  C
  H106     1.0000 0.11760  0.70700  0.35790  Biso   1.000  H
  C96      1.0000 0.17390  0.62711  0.40814  Biso   1.000  C
  H107     1.0000 0.11760  0.62100  0.43590  Biso   1.000  H
  H108     1.0000 0.42670  0.54090  0.49940  Biso   1.000  H
  F13      1.0000 0.91603  0.23818  0.74984  Biso   1.000  F
  N49      1.0000 0.75046  0.07284  0.57567  Biso   1.000  N
  N50      1.0000 0.74970  0.16862  0.67734  Biso   1.000  N
  C97      1.0000 0.67510  0.11569  0.58340  Biso   1.000  C
  H109     1.0000 0.62080  0.11310  0.55340  Biso   1.000  H
  C98      1.0000 0.67440  0.16354  0.63372  Biso   1.000  C
  H110     1.0000 0.62010  0.19320  0.63750  Biso   1.000  H
  C99      1.0000 0.82550  0.07882  0.61881  Biso   1.000  C
  H111     1.0000 0.88060  0.04980  0.61430  Biso   1.000  H
  C100     1.0000 0.82530  0.12612  0.66989  Biso   1.000  C
  H112     1.0000 0.87950  0.12850  0.70000  Biso   1.000  H
  N51      1.0000 0.75064  0.81163  0.67908  Biso   1.000  N
  N52      1.0000 0.75020  0.91420  0.58416  Biso   1.000  N
  C101     1.0000 0.82820  0.85292  0.67249  Biso   1.000  C
  H113     1.0000 0.88400  0.84740  0.70080  Biso   1.000  H
  C102     1.0000 0.82710  0.90341  0.62466  Biso   1.000  C
  H114     1.0000 0.88320  0.93150  0.62050  Biso   1.000  H
  C103     1.0000 0.67340  0.82151  0.63867  Biso   1.000  C
  H115     1.0000 0.61760  0.79300  0.64210  Biso   1.000  H
  C104     1.0000 0.67390  0.87289  0.59186  Biso   1.000  C
  H116     1.0000 0.61760  0.87900  0.56410  Biso   1.000  H
  H117     1.0000 0.92670  0.95910  0.50060  Biso   1.000  H
  F14      1.0000 0.41603  0.73818  0.74984  Biso   1.000  F
  N53      1.0000 0.25046  0.57284  0.57567  Biso   1.000  N
  N54      1.0000 0.24970  0.66862  0.67734  Biso   1.000  N
  C105     1.0000 0.17510  0.61569  0.58340  Biso   1.000  C
  H118     1.0000 0.12080  0.61310  0.55340  Biso   1.000  H
  C106     1.0000 0.17440  0.66354  0.63372  Biso   1.000  C
  H119     1.0000 0.12010  0.69320  0.63750  Biso   1.000  H
  C107     1.0000 0.32550  0.57882  0.61881  Biso   1.000  C
  H120     1.0000 0.38060  0.54980  0.61430  Biso   1.000  H
  C108     1.0000 0.32530  0.62612  0.66989  Biso   1.000  C
  H121     1.0000 0.37950  0.62850  0.70000  Biso   1.000  H
  N55      1.0000 0.25064  0.31163  0.67908  Biso   1.000  N
  N56      1.0000 0.25020  0.41420  0.58416  Biso   1.000  N
  C109     1.0000 0.32820  0.35292  0.67249  Biso   1.000  C
  H122     1.0000 0.38400  0.34740  0.70080  Biso   1.000  H
  C110     1.0000 0.32710  0.40341  0.62466  Biso   1.000  C
  H123     1.0000 0.38320  0.43150  0.62050  Biso   1.000  H
  C111     1.0000 0.17340  0.32151  0.63867  Biso   1.000  C
  H124     1.0000 0.11760  0.29300  0.64210  Biso   1.000  H
  C112     1.0000 0.17390  0.37289  0.59186  Biso   1.000  C
  H125     1.0000 0.11760  0.37900  0.56410  Biso   1.000  H
  H126     1.0000 0.42670  0.45910  0.50060  Biso   1.000  H
  F15      1.0000 0.08397  0.26182  0.24984  Biso   1.000  F
  N57      1.0000 0.24954  0.42716  0.07567  Biso   1.000  N
  N58      1.0000 0.25030  0.33138  0.17734  Biso   1.000  N
  C113     1.0000 0.32490  0.38431  0.08340  Biso   1.000  C
  H127     1.0000 0.37920  0.38690  0.05340  Biso   1.000  H
  C114     1.0000 0.32560  0.33646  0.13372  Biso   1.000  C
  H128     1.0000 0.37990  0.30680  0.13750  Biso   1.000  H
  C115     1.0000 0.17450  0.42118  0.11881  Biso   1.000  C
  H129     1.0000 0.11940  0.45020  0.11430  Biso   1.000  H
  C116     1.0000 0.17470  0.37388  0.16989  Biso   1.000  C
  H130     1.0000 0.12050  0.37150  0.20000  Biso   1.000  H
  N59      1.0000 0.24936  0.68837  0.17908  Biso   1.000  N
  N60      1.0000 0.24980  0.58580  0.08416  Biso   1.000  N
  C117     1.0000 0.17180  0.64708  0.17249  Biso   1.000  C
  H131     1.0000 0.11600  0.65260  0.20080  Biso   1.000  H
  C118     1.0000 0.17290  0.59659  0.12466  Biso   1.000  C
  H132     1.0000 0.11680  0.56850  0.12050  Biso   1.000  H
  C119     1.0000 0.32660  0.67849  0.13867  Biso   1.000  C
  H133     1.0000 0.38240  0.70700  0.14210  Biso   1.000  H
  C120     1.0000 0.32610  0.62711  0.09186  Biso   1.000  C
  H134     1.0000 0.38240  0.62100  0.06410  Biso   1.000  H
  H135     1.0000 0.07330  0.54090  0.00060  Biso   1.000  H
  F16      1.0000 0.58397  0.76182  0.24984  Biso   1.000  F
  N61      1.0000 0.74954  0.92716  0.07567  Biso   1.000  N
  N62      1.0000 0.75030  0.83138  0.17734  Biso   1.000  N
  C121     1.0000 0.82490  0.88431  0.08340  Biso   1.000  C
  H136     1.0000 0.87920  0.88690  0.05340  Biso   1.000  H
  C122     1.0000 0.82560  0.83646  0.13372  Biso   1.000  C
  H137     1.0000 0.87990  0.80680  0.13750  Biso   1.000  H
  C123     1.0000 0.67450  0.92118  0.11881  Biso   1.000  C
  H138     1.0000 0.61940  0.95020  0.11430  Biso   1.000  H
  C124     1.0000 0.67470  0.87388  0.16989  Biso   1.000  C
  H139     1.0000 0.62050  0.87150  0.20000  Biso   1.000  H
  N63      1.0000 0.74936  0.18837  0.17908  Biso   1.000  N
  N64      1.0000 0.74980  0.08580  0.08416  Biso   1.000  N
  C125     1.0000 0.67180  0.14708  0.17249  Biso   1.000  C
  H140     1.0000 0.61600  0.15260  0.20080  Biso   1.000  H
  C126     1.0000 0.67290  0.09659  0.12466  Biso   1.000  C
  H141     1.0000 0.61680  0.06850  0.12050  Biso   1.000  H
  C127     1.0000 0.82660  0.17849  0.13867  Biso   1.000  C
  H142     1.0000 0.88240  0.20700  0.14210  Biso   1.000  H
  C128     1.0000 0.82610  0.12711  0.09186  Biso   1.000  C
  H143     1.0000 0.88240  0.12100  0.06410  Biso   1.000  H
  H144     1.0000 0.57330  0.04090  0.00060  Biso   1.000  H
  Cu1      1.0000 0.75052  0.50000  0.00000  Biso   1.000  Cu
  F17      1.0000 0.61010  0.50000  0.00000  Biso   1.000  F
  F18      1.0000 0.89080  0.50000  0.00000  Biso   1.000  F
  Cu2      1.0000 0.25052  0.00000  0.00000  Biso   1.000  Cu
  F19      1.0000 0.11010  0.00000  0.00000  Biso   1.000  F
  F20      1.0000 0.39080  0.00000  0.00000  Biso   1.000  F
  Cu3      1.0000 0.24948  0.00000  0.50000  Biso   1.000  Cu
  F21      1.0000 0.38990  0.00000  0.50000  Biso   1.000  F
  F22      1.0000 0.10920  0.00000  0.50000  Biso   1.000  F
  Cu4      1.0000 0.74948  0.50000  0.50000  Biso   1.000  Cu
  F23      1.0000 0.88990  0.50000  0.50000  Biso   1.000  F
  F24      1.0000 0.60920  0.50000  0.50000  Biso   1.000  F
  Cu5      1.0000 0.24948  0.50000  0.00000  Biso   1.000  Cu
  F25      1.0000 0.38990  0.50000  0.00000  Biso   1.000  F
  F26      1.0000 0.10920  0.50000  0.00000  Biso   1.000  F
  Cu6      1.0000 0.74948  0.00000  0.00000  Biso   1.000  Cu
  F27      1.0000 0.88990  0.00000  0.00000  Biso   1.000  F
  F28      1.0000 0.60920  0.00000  0.00000  Biso   1.000  F
  Cu7      1.0000 0.75052  0.00000  0.50000  Biso   1.000  Cu
  F29      1.0000 0.61010  0.00000  0.50000  Biso   1.000  F
  F30      1.0000 0.89080  0.00000  0.50000  Biso   1.000  F
  Cu8      1.0000 0.25052  0.50000  0.50000  Biso   1.000  Cu
  F31      1.0000 0.11010  0.50000  0.50000  Biso   1.000  F
  F32      1.0000 0.39080  0.50000  0.50000  Biso   1.000  F
  Cu9      1.0000 0.75000  0.26032  0.25000  Biso   1.000  Cu
  Cu10     1.0000 0.25000  0.23968  0.75000  Biso   1.000  Cu
  Cu11     1.0000 0.25000  0.76032  0.25000  Biso   1.000  Cu
  Cu12     1.0000 0.75000  0.73968  0.75000  Biso   1.000  Cu
  Cu13     1.0000 0.25000  0.73968  0.75000  Biso   1.000  Cu
  Cu14     1.0000 0.75000  0.76032  0.25000  Biso   1.000  Cu
  Cu15     1.0000 0.75000  0.23968  0.75000  Biso   1.000  Cu
  Cu16     1.0000 0.25000  0.26032  0.25000  Biso   1.000  Cu
  H145     1.0000 0.00000  0.25900  0.25900  Biso   1.000  H
  H146     1.0000 0.50000  0.75900  0.25900  Biso   1.000  H
  H147     1.0000 0.00000  0.24100  0.75900  Biso   1.000  H
  H148     1.0000 0.50000  0.74100  0.75900  Biso   1.000  H
  H149     1.0000 0.00000  0.75900  0.24100  Biso   1.000  H
  H150     1.0000 0.50000  0.25900  0.24100  Biso   1.000  H
  H151     1.0000 0.00000  0.74100  0.74100  Biso   1.000  H
  H152     1.0000 0.50000  0.24100  0.74100  Biso   1.000  H
