data_image0
_cell_length_a       14.344
_cell_length_b       14.344
_cell_length_c       15.47
_cell_angle_alpha    90
_cell_angle_beta     90
_cell_angle_gamma    120

_symmetry_space_group_name_H-M    P 1
_symmetry_int_tables_number       1

loop_
  _symmetry_equiv_pos_as_xyz
  'x, y, z'

loop_
  _atom_site_label
  _atom_site_occupancy
  _atom_site_fract_x
  _atom_site_fract_y
  _atom_site_fract_z
  _atom_site_thermal_displace_type
  _atom_site_B_iso_or_equiv
  _atom_site_type_symbol
  Yb1      1.0000 0.33333  0.66666  0.75000  Biso   1.000  Yb
  Yb2      1.0000 0.66667  0.33334  0.75000  Biso   1.000  Yb
  Yb3      1.0000 0.66667  0.33334  0.25000  Biso   1.000  Yb
  Yb4      1.0000 0.33333  0.66666  0.25000  Biso   1.000  Yb
  Cu1      1.0000 0.50000  0.50000  0.50000  Biso   1.000  Cu
  Cu2      1.0000 0.00000  0.50000  0.50000  Biso   1.000  Cu
  Cu3      1.0000 0.50000  0.00000  0.50000  Biso   1.000  Cu
  Cu4      1.0000 0.00000  0.50000  0.00000  Biso   1.000  Cu
  Cu5      1.0000 0.50000  0.50000  0.00000  Biso   1.000  Cu
  Cu6      1.0000 0.50000  0.00000  0.00000  Biso   1.000  Cu
  C1       1.0000 0.26100  0.40900  0.69100  Biso   1.000  C
  C2       1.0000 0.35200  0.48700  0.63700  Biso   1.000  C
  C3       1.0000 0.14800  0.73900  0.69100  Biso   1.000  C
  C4       1.0000 0.13500  0.64800  0.63700  Biso   1.000  C
  C5       1.0000 0.59100  0.85200  0.69100  Biso   1.000  C
  C6       1.0000 0.51300  0.86500  0.63700  Biso   1.000  C
  C7       1.0000 0.73900  0.59100  0.69100  Biso   1.000  C
  C8       1.0000 0.64800  0.51300  0.63700  Biso   1.000  C
  C9       1.0000 0.85200  0.26100  0.69100  Biso   1.000  C
  C10      1.0000 0.86500  0.35200  0.63700  Biso   1.000  C
  C11      1.0000 0.40900  0.14800  0.69100  Biso   1.000  C
  C12      1.0000 0.48700  0.13500  0.63700  Biso   1.000  C
  C13      1.0000 0.85200  0.59100  0.80900  Biso   1.000  C
  C14      1.0000 0.86500  0.51300  0.86300  Biso   1.000  C
  C15      1.0000 0.40900  0.26100  0.80900  Biso   1.000  C
  C16      1.0000 0.48700  0.35200  0.86300  Biso   1.000  C
  C17      1.0000 0.73900  0.14800  0.80900  Biso   1.000  C
  C18      1.0000 0.64800  0.13500  0.86300  Biso   1.000  C
  C19      1.0000 0.14800  0.40900  0.80900  Biso   1.000  C
  C20      1.0000 0.13500  0.48700  0.86300  Biso   1.000  C
  C21      1.0000 0.59100  0.73900  0.80900  Biso   1.000  C
  C22      1.0000 0.51300  0.64800  0.86300  Biso   1.000  C
  C23      1.0000 0.26100  0.85200  0.80900  Biso   1.000  C
  C24      1.0000 0.35200  0.86500  0.86300  Biso   1.000  C
  C25      1.0000 0.73900  0.59100  0.30900  Biso   1.000  C
  C26      1.0000 0.64800  0.51300  0.36300  Biso   1.000  C
  C27      1.0000 0.85200  0.26100  0.30900  Biso   1.000  C
  C28      1.0000 0.86500  0.35200  0.36300  Biso   1.000  C
  C29      1.0000 0.40900  0.14800  0.30900  Biso   1.000  C
  C30      1.0000 0.48700  0.13500  0.36300  Biso   1.000  C
  C31      1.0000 0.26100  0.40900  0.30900  Biso   1.000  C
  C32      1.0000 0.35200  0.48700  0.36300  Biso   1.000  C
  C33      1.0000 0.14800  0.73900  0.30900  Biso   1.000  C
  C34      1.0000 0.13500  0.64800  0.36300  Biso   1.000  C
  C35      1.0000 0.59100  0.85200  0.30900  Biso   1.000  C
  C36      1.0000 0.51300  0.86500  0.36300  Biso   1.000  C
  C37      1.0000 0.14800  0.40900  0.19100  Biso   1.000  C
  C38      1.0000 0.13500  0.48700  0.13700  Biso   1.000  C
  C39      1.0000 0.59100  0.73900  0.19100  Biso   1.000  C
  C40      1.0000 0.51300  0.64800  0.13700  Biso   1.000  C
  C41      1.0000 0.26100  0.85200  0.19100  Biso   1.000  C
  C42      1.0000 0.35200  0.86500  0.13700  Biso   1.000  C
  C43      1.0000 0.85200  0.59100  0.19100  Biso   1.000  C
  C44      1.0000 0.86500  0.51300  0.13700  Biso   1.000  C
  C45      1.0000 0.40900  0.26100  0.19100  Biso   1.000  C
  C46      1.0000 0.48700  0.35200  0.13700  Biso   1.000  C
  C47      1.0000 0.73900  0.14800  0.19100  Biso   1.000  C
  C48      1.0000 0.64800  0.13500  0.13700  Biso   1.000  C
  O1       1.0000 0.38600  0.58230  0.64570  Biso   1.000  O
  O2       1.0000 0.38900  0.44340  0.58900  Biso   1.000  O
  O3       1.0000 0.19630  0.61400  0.64570  Biso   1.000  O
  O4       1.0000 0.05440  0.61100  0.58900  Biso   1.000  O
  O5       1.0000 0.41770  0.80370  0.64570  Biso   1.000  O
  O6       1.0000 0.55660  0.94560  0.58900  Biso   1.000  O
  O7       1.0000 0.61400  0.41770  0.64570  Biso   1.000  O
  O8       1.0000 0.61100  0.55660  0.58900  Biso   1.000  O
  O9       1.0000 0.80370  0.38600  0.64570  Biso   1.000  O
  O10      1.0000 0.94560  0.38900  0.58900  Biso   1.000  O
  O11      1.0000 0.58230  0.19630  0.64570  Biso   1.000  O
  O12      1.0000 0.44340  0.05440  0.58900  Biso   1.000  O
  O13      1.0000 0.80370  0.41770  0.85430  Biso   1.000  O
  O14      1.0000 0.94560  0.55660  0.91100  Biso   1.000  O
  O15      1.0000 0.58230  0.38600  0.85430  Biso   1.000  O
  O16      1.0000 0.44340  0.38900  0.91100  Biso   1.000  O
  O17      1.0000 0.61400  0.19630  0.85430  Biso   1.000  O
  O18      1.0000 0.61100  0.05440  0.91100  Biso   1.000  O
  O19      1.0000 0.19630  0.58230  0.85430  Biso   1.000  O
  O20      1.0000 0.05440  0.44340  0.91100  Biso   1.000  O
  O21      1.0000 0.41770  0.61400  0.85430  Biso   1.000  O
  O22      1.0000 0.55660  0.61100  0.91100  Biso   1.000  O
  O23      1.0000 0.38600  0.80370  0.85430  Biso   1.000  O
  O24      1.0000 0.38900  0.94560  0.91100  Biso   1.000  O
  O25      1.0000 0.61400  0.41770  0.35430  Biso   1.000  O
  O26      1.0000 0.61100  0.55660  0.41100  Biso   1.000  O
  O27      1.0000 0.80370  0.38600  0.35430  Biso   1.000  O
  O28      1.0000 0.94560  0.38900  0.41100  Biso   1.000  O
  O29      1.0000 0.58230  0.19630  0.35430  Biso   1.000  O
  O30      1.0000 0.44340  0.05440  0.41100  Biso   1.000  O
  O31      1.0000 0.38600  0.58230  0.35430  Biso   1.000  O
  O32      1.0000 0.38900  0.44340  0.41100  Biso   1.000  O
  O33      1.0000 0.19630  0.61400  0.35430  Biso   1.000  O
  O34      1.0000 0.05440  0.61100  0.41100  Biso   1.000  O
  O35      1.0000 0.41770  0.80370  0.35430  Biso   1.000  O
  O36      1.0000 0.55660  0.94560  0.41100  Biso   1.000  O
  O37      1.0000 0.19630  0.58230  0.14570  Biso   1.000  O
  O38      1.0000 0.05440  0.44340  0.08900  Biso   1.000  O
  O39      1.0000 0.41770  0.61400  0.14570  Biso   1.000  O
  O40      1.0000 0.55660  0.61100  0.08900  Biso   1.000  O
  O41      1.0000 0.38600  0.80370  0.14570  Biso   1.000  O
  O42      1.0000 0.38900  0.94560  0.08900  Biso   1.000  O
  O43      1.0000 0.80370  0.41770  0.14570  Biso   1.000  O
  O44      1.0000 0.94560  0.55660  0.08900  Biso   1.000  O
  O45      1.0000 0.58230  0.38600  0.14570  Biso   1.000  O
  O46      1.0000 0.44340  0.38900  0.08900  Biso   1.000  O
  O47      1.0000 0.61400  0.19630  0.14570  Biso   1.000  O
  O48      1.0000 0.61100  0.05440  0.08900  Biso   1.000  O
  O49      1.0000 0.23620  0.47240  0.75000  Biso   1.000  O
  O50      1.0000 0.23620  0.76380  0.75000  Biso   1.000  O
  O51      1.0000 0.52760  0.76380  0.75000  Biso   1.000  O
  O52      1.0000 0.76380  0.52760  0.75000  Biso   1.000  O
  O53      1.0000 0.76380  0.23620  0.75000  Biso   1.000  O
  O54      1.0000 0.47240  0.23620  0.75000  Biso   1.000  O
  O55      1.0000 0.76380  0.52760  0.25000  Biso   1.000  O
  O56      1.0000 0.76380  0.23620  0.25000  Biso   1.000  O
  O57      1.0000 0.47240  0.23620  0.25000  Biso   1.000  O
  O58      1.0000 0.23620  0.47240  0.25000  Biso   1.000  O
  O59      1.0000 0.23620  0.76380  0.25000  Biso   1.000  O
  O60      1.0000 0.52760  0.76380  0.25000  Biso   1.000  O
