data_image0
_cell_length_a       22.0611
_cell_length_b       22.0611
_cell_length_c       22.0611
_cell_angle_alpha    109.471
_cell_angle_beta     109.471
_cell_angle_gamma    109.471

_symmetry_space_group_name_H-M    P 1
_symmetry_int_tables_number       1

loop_
  _symmetry_equiv_pos_as_xyz
  'x, y, z'

loop_
  _atom_site_label
  _atom_site_occupancy
  _atom_site_fract_x
  _atom_site_fract_y
  _atom_site_fract_z
  _atom_site_thermal_displace_type
  _atom_site_B_iso_or_equiv
  _atom_site_type_symbol
  Fe1      1.0000 0.40922  0.50000  0.90922  Biso   1.000  Fe
  Fe2      1.0000 0.59078  0.50000  0.09078  Biso   1.000  Fe
  Fe3      1.0000 0.90922  0.40922  0.50000  Biso   1.000  Fe
  Fe4      1.0000 0.09078  0.59078  0.50000  Biso   1.000  Fe
  Fe5      1.0000 0.50000  0.09078  0.59078  Biso   1.000  Fe
  Fe6      1.0000 0.50000  0.90922  0.40922  Biso   1.000  Fe
  Fe7      1.0000 0.50000  0.59078  0.09078  Biso   1.000  Fe
  Fe8      1.0000 0.50000  0.40922  0.90922  Biso   1.000  Fe
  Fe9      1.0000 0.59078  0.09078  0.50000  Biso   1.000  Fe
  Fe10     1.0000 0.40922  0.90922  0.50000  Biso   1.000  Fe
  Fe11     1.0000 0.90922  0.50000  0.40922  Biso   1.000  Fe
  Fe12     1.0000 0.09078  0.50000  0.59078  Biso   1.000  Fe
  H1       1.0000 0.43980  0.68740  0.88700  Biso   1.000  H
  H2       1.0000 0.47010  0.79990  0.88840  Biso   1.000  H
  H3       1.0000 0.80040  0.55280  0.11300  Biso   1.000  H
  H4       1.0000 0.91150  0.58170  0.11160  Biso   1.000  H
  H5       1.0000 0.19960  0.31260  0.75240  Biso   1.000  H
  H6       1.0000 0.08850  0.20010  0.67020  Biso   1.000  H
  H7       1.0000 0.56020  0.44720  0.24760  Biso   1.000  H
  H8       1.0000 0.52990  0.41830  0.32980  Biso   1.000  H
  H9       1.0000 0.75240  0.19960  0.31260  Biso   1.000  H
  H10      1.0000 0.67020  0.08850  0.20010  Biso   1.000  H
  H11      1.0000 0.24760  0.56020  0.44720  Biso   1.000  H
  H12      1.0000 0.32980  0.52990  0.41830  Biso   1.000  H
  H13      1.0000 0.88700  0.43980  0.68740  Biso   1.000  H
  H14      1.0000 0.88840  0.47010  0.79990  Biso   1.000  H
  H15      1.0000 0.11300  0.80040  0.55280  Biso   1.000  H
  H16      1.0000 0.11160  0.91150  0.58170  Biso   1.000  H
  H17      1.0000 0.55280  0.11300  0.80040  Biso   1.000  H
  H18      1.0000 0.58170  0.11160  0.91150  Biso   1.000  H
  H19      1.0000 0.68740  0.88700  0.43980  Biso   1.000  H
  H20      1.0000 0.79990  0.88840  0.47010  Biso   1.000  H
  H21      1.0000 0.44720  0.24760  0.56020  Biso   1.000  H
  H22      1.0000 0.41830  0.32980  0.52990  Biso   1.000  H
  H23      1.0000 0.31260  0.75240  0.19960  Biso   1.000  H
  H24      1.0000 0.20010  0.67020  0.08850  Biso   1.000  H
  H25      1.0000 0.31260  0.56020  0.11300  Biso   1.000  H
  H26      1.0000 0.20010  0.52990  0.11160  Biso   1.000  H
  H27      1.0000 0.44720  0.19960  0.88700  Biso   1.000  H
  H28      1.0000 0.41830  0.08850  0.88840  Biso   1.000  H
  H29      1.0000 0.68740  0.80040  0.24760  Biso   1.000  H
  H30      1.0000 0.79990  0.91150  0.32980  Biso   1.000  H
  H31      1.0000 0.55280  0.43980  0.75240  Biso   1.000  H
  H32      1.0000 0.58170  0.47010  0.67020  Biso   1.000  H
  H33      1.0000 0.80040  0.24760  0.68740  Biso   1.000  H
  H34      1.0000 0.91150  0.32980  0.79990  Biso   1.000  H
  H35      1.0000 0.43980  0.75240  0.55280  Biso   1.000  H
  H36      1.0000 0.47010  0.67020  0.58170  Biso   1.000  H
  H37      1.0000 0.56020  0.11300  0.31260  Biso   1.000  H
  H38      1.0000 0.52990  0.11160  0.20010  Biso   1.000  H
  H39      1.0000 0.19960  0.88700  0.44720  Biso   1.000  H
  H40      1.0000 0.08850  0.88840  0.41830  Biso   1.000  H
  H41      1.0000 0.88700  0.44720  0.19960  Biso   1.000  H
  H42      1.0000 0.88840  0.41830  0.08850  Biso   1.000  H
  H43      1.0000 0.11300  0.31260  0.56020  Biso   1.000  H
  H44      1.0000 0.11160  0.20010  0.52990  Biso   1.000  H
  H45      1.0000 0.75240  0.55280  0.43980  Biso   1.000  H
  H46      1.0000 0.67020  0.58170  0.47010  Biso   1.000  H
  H47      1.0000 0.24760  0.68740  0.80040  Biso   1.000  H
  H48      1.0000 0.32980  0.79990  0.91150  Biso   1.000  H
  H49      1.0000 0.56020  0.31260  0.11300  Biso   1.000  H
  H50      1.0000 0.52990  0.20010  0.11160  Biso   1.000  H
  H51      1.0000 0.19960  0.44720  0.88700  Biso   1.000  H
  H52      1.0000 0.08850  0.41830  0.88840  Biso   1.000  H
  H53      1.0000 0.80040  0.68740  0.24760  Biso   1.000  H
  H54      1.0000 0.91150  0.79990  0.32980  Biso   1.000  H
  H55      1.0000 0.43980  0.55280  0.75240  Biso   1.000  H
  H56      1.0000 0.47010  0.58170  0.67020  Biso   1.000  H
  H57      1.0000 0.24760  0.80040  0.68740  Biso   1.000  H
  H58      1.0000 0.32980  0.91150  0.79990  Biso   1.000  H
  H59      1.0000 0.75240  0.43980  0.55280  Biso   1.000  H
  H60      1.0000 0.67020  0.47010  0.58170  Biso   1.000  H
  H61      1.0000 0.11300  0.56020  0.31260  Biso   1.000  H
  H62      1.0000 0.11160  0.52990  0.20010  Biso   1.000  H
  H63      1.0000 0.88700  0.19960  0.44720  Biso   1.000  H
  H64      1.0000 0.88840  0.08850  0.41830  Biso   1.000  H
  H65      1.0000 0.44720  0.88700  0.19960  Biso   1.000  H
  H66      1.0000 0.41830  0.88840  0.08850  Biso   1.000  H
  H67      1.0000 0.31260  0.11300  0.56020  Biso   1.000  H
  H68      1.0000 0.20010  0.11160  0.52990  Biso   1.000  H
  H69      1.0000 0.55280  0.75240  0.43980  Biso   1.000  H
  H70      1.0000 0.58170  0.67020  0.47010  Biso   1.000  H
  H71      1.0000 0.68740  0.24760  0.80040  Biso   1.000  H
  H72      1.0000 0.79990  0.32980  0.91150  Biso   1.000  H
  H73      1.0000 0.68740  0.43980  0.88700  Biso   1.000  H
  H74      1.0000 0.79990  0.47010  0.88840  Biso   1.000  H
  H75      1.0000 0.55280  0.80040  0.11300  Biso   1.000  H
  H76      1.0000 0.58170  0.91150  0.11160  Biso   1.000  H
  H77      1.0000 0.31260  0.19960  0.75240  Biso   1.000  H
  H78      1.0000 0.20010  0.08850  0.67020  Biso   1.000  H
  H79      1.0000 0.44720  0.56020  0.24760  Biso   1.000  H
  H80      1.0000 0.41830  0.52990  0.32980  Biso   1.000  H
  H81      1.0000 0.19960  0.75240  0.31260  Biso   1.000  H
  H82      1.0000 0.08850  0.67020  0.20010  Biso   1.000  H
  H83      1.0000 0.56020  0.24760  0.44720  Biso   1.000  H
  H84      1.0000 0.52990  0.32980  0.41830  Biso   1.000  H
  H85      1.0000 0.43980  0.88700  0.68740  Biso   1.000  H
  H86      1.0000 0.47010  0.88840  0.79990  Biso   1.000  H
  H87      1.0000 0.80040  0.11300  0.55280  Biso   1.000  H
  H88      1.0000 0.91150  0.11160  0.58170  Biso   1.000  H
  H89      1.0000 0.11300  0.55280  0.80040  Biso   1.000  H
  H90      1.0000 0.11160  0.58170  0.91150  Biso   1.000  H
  H91      1.0000 0.88700  0.68740  0.43980  Biso   1.000  H
  H92      1.0000 0.88840  0.79990  0.47010  Biso   1.000  H
  H93      1.0000 0.24760  0.44720  0.56020  Biso   1.000  H
  H94      1.0000 0.32980  0.41830  0.52990  Biso   1.000  H
  H95      1.0000 0.75240  0.31260  0.19960  Biso   1.000  H
  H96      1.0000 0.67020  0.20010  0.08850  Biso   1.000  H
  C1       1.0000 0.47060  0.73290  0.93290  Biso   1.000  C
  C2       1.0000 0.48970  0.80030  0.93400  Biso   1.000  C
  C3       1.0000 0.80000  0.53770  0.06710  Biso   1.000  C
  C4       1.0000 0.86630  0.55570  0.06600  Biso   1.000  C
  C5       1.0000 0.20000  0.26710  0.73770  Biso   1.000  C
  C6       1.0000 0.13370  0.19970  0.68940  Biso   1.000  C
  C7       1.0000 0.52940  0.46230  0.26230  Biso   1.000  C
  C8       1.0000 0.51030  0.44430  0.31060  Biso   1.000  C
  C9       1.0000 0.73770  0.20000  0.26710  Biso   1.000  C
  C10      1.0000 0.68940  0.13370  0.19970  Biso   1.000  C
  C11      1.0000 0.26230  0.52940  0.46230  Biso   1.000  C
  C12      1.0000 0.31060  0.51030  0.44430  Biso   1.000  C
  C13      1.0000 0.93290  0.47060  0.73290  Biso   1.000  C
  C14      1.0000 0.93400  0.48970  0.80030  Biso   1.000  C
  C15      1.0000 0.06710  0.80000  0.53770  Biso   1.000  C
  C16      1.0000 0.06600  0.86630  0.55570  Biso   1.000  C
  C17      1.0000 0.53770  0.06710  0.80000  Biso   1.000  C
  C18      1.0000 0.55570  0.06600  0.86630  Biso   1.000  C
  C19      1.0000 0.73290  0.93290  0.47060  Biso   1.000  C
  C20      1.0000 0.80030  0.93400  0.48970  Biso   1.000  C
  C21      1.0000 0.46230  0.26230  0.52940  Biso   1.000  C
  C22      1.0000 0.44430  0.31060  0.51030  Biso   1.000  C
  C23      1.0000 0.26710  0.73770  0.20000  Biso   1.000  C
  C24      1.0000 0.19970  0.68940  0.13370  Biso   1.000  C
  C25      1.0000 0.26710  0.52940  0.06710  Biso   1.000  C
  C26      1.0000 0.19970  0.51030  0.06600  Biso   1.000  C
  C27      1.0000 0.46230  0.20000  0.93290  Biso   1.000  C
  C28      1.0000 0.44430  0.13370  0.93400  Biso   1.000  C
  C29      1.0000 0.73290  0.80000  0.26230  Biso   1.000  C
  C30      1.0000 0.80030  0.86630  0.31060  Biso   1.000  C
  C31      1.0000 0.53770  0.47060  0.73770  Biso   1.000  C
  C32      1.0000 0.55570  0.48970  0.68940  Biso   1.000  C
  C33      1.0000 0.80000  0.26230  0.73290  Biso   1.000  C
  C34      1.0000 0.86630  0.31060  0.80030  Biso   1.000  C
  C35      1.0000 0.47060  0.73770  0.53770  Biso   1.000  C
  C36      1.0000 0.48970  0.68940  0.55570  Biso   1.000  C
  C37      1.0000 0.52940  0.06710  0.26710  Biso   1.000  C
  C38      1.0000 0.51030  0.06600  0.19970  Biso   1.000  C
  C39      1.0000 0.20000  0.93290  0.46230  Biso   1.000  C
  C40      1.0000 0.13370  0.93400  0.44430  Biso   1.000  C
  C41      1.0000 0.93290  0.46230  0.20000  Biso   1.000  C
  C42      1.0000 0.93400  0.44430  0.13370  Biso   1.000  C
  C43      1.0000 0.06710  0.26710  0.52940  Biso   1.000  C
  C44      1.0000 0.06600  0.19970  0.51030  Biso   1.000  C
  C45      1.0000 0.73770  0.53770  0.47060  Biso   1.000  C
  C46      1.0000 0.68940  0.55570  0.48970  Biso   1.000  C
  C47      1.0000 0.26230  0.73290  0.80000  Biso   1.000  C
  C48      1.0000 0.31060  0.80030  0.86630  Biso   1.000  C
  C49      1.0000 0.52940  0.26710  0.06710  Biso   1.000  C
  C50      1.0000 0.51030  0.19970  0.06600  Biso   1.000  C
  C51      1.0000 0.20000  0.46230  0.93290  Biso   1.000  C
  C52      1.0000 0.13370  0.44430  0.93400  Biso   1.000  C
  C53      1.0000 0.80000  0.73290  0.26230  Biso   1.000  C
  C54      1.0000 0.86630  0.80030  0.31060  Biso   1.000  C
  C55      1.0000 0.47060  0.53770  0.73770  Biso   1.000  C
  C56      1.0000 0.48970  0.55570  0.68940  Biso   1.000  C
  C57      1.0000 0.26230  0.80000  0.73290  Biso   1.000  C
  C58      1.0000 0.31060  0.86630  0.80030  Biso   1.000  C
  C59      1.0000 0.73770  0.47060  0.53770  Biso   1.000  C
  C60      1.0000 0.68940  0.48970  0.55570  Biso   1.000  C
  C61      1.0000 0.06710  0.52940  0.26710  Biso   1.000  C
  C62      1.0000 0.06600  0.51030  0.19970  Biso   1.000  C
  C63      1.0000 0.93290  0.20000  0.46230  Biso   1.000  C
  C64      1.0000 0.93400  0.13370  0.44430  Biso   1.000  C
  C65      1.0000 0.46230  0.93290  0.20000  Biso   1.000  C
  C66      1.0000 0.44430  0.93400  0.13370  Biso   1.000  C
  C67      1.0000 0.26710  0.06710  0.52940  Biso   1.000  C
  C68      1.0000 0.19970  0.06600  0.51030  Biso   1.000  C
  C69      1.0000 0.53770  0.73770  0.47060  Biso   1.000  C
  C70      1.0000 0.55570  0.68940  0.48970  Biso   1.000  C
  C71      1.0000 0.73290  0.26230  0.80000  Biso   1.000  C
  C72      1.0000 0.80030  0.31060  0.86630  Biso   1.000  C
  C73      1.0000 0.73290  0.47060  0.93290  Biso   1.000  C
  C74      1.0000 0.80030  0.48970  0.93400  Biso   1.000  C
  C75      1.0000 0.53770  0.80000  0.06710  Biso   1.000  C
  C76      1.0000 0.55570  0.86630  0.06600  Biso   1.000  C
  C77      1.0000 0.26710  0.20000  0.73770  Biso   1.000  C
  C78      1.0000 0.19970  0.13370  0.68940  Biso   1.000  C
  C79      1.0000 0.46230  0.52940  0.26230  Biso   1.000  C
  C80      1.0000 0.44430  0.51030  0.31060  Biso   1.000  C
  C81      1.0000 0.20000  0.73770  0.26710  Biso   1.000  C
  C82      1.0000 0.13370  0.68940  0.19970  Biso   1.000  C
  C83      1.0000 0.52940  0.26230  0.46230  Biso   1.000  C
  C84      1.0000 0.51030  0.31060  0.44430  Biso   1.000  C
  C85      1.0000 0.47060  0.93290  0.73290  Biso   1.000  C
  C86      1.0000 0.48970  0.93400  0.80030  Biso   1.000  C
  C87      1.0000 0.80000  0.06710  0.53770  Biso   1.000  C
  C88      1.0000 0.86630  0.06600  0.55570  Biso   1.000  C
  C89      1.0000 0.06710  0.53770  0.80000  Biso   1.000  C
  C90      1.0000 0.06600  0.55570  0.86630  Biso   1.000  C
  C91      1.0000 0.93290  0.73290  0.47060  Biso   1.000  C
  C92      1.0000 0.93400  0.80030  0.48970  Biso   1.000  C
  C93      1.0000 0.26230  0.46230  0.52940  Biso   1.000  C
  C94      1.0000 0.31060  0.44430  0.51030  Biso   1.000  C
  C95      1.0000 0.73770  0.26710  0.20000  Biso   1.000  C
  C96      1.0000 0.68940  0.19970  0.13370  Biso   1.000  C
  C97      1.0000 0.47670  0.66930  0.00000  Biso   1.000  C
  C98      1.0000 0.49710  0.73270  0.00000  Biso   1.000  C
  C99      1.0000 0.53669  0.86831  0.00000  Biso   1.000  C
  C100     1.0000 0.55710  0.93550  0.00000  Biso   1.000  C
  C101     1.0000 0.66930  0.47670  0.00000  Biso   1.000  C
  C102     1.0000 0.73270  0.49710  0.00000  Biso   1.000  C
  C103     1.0000 0.86831  0.53669  0.00000  Biso   1.000  C
  C104     1.0000 0.93550  0.55710  0.00000  Biso   1.000  C
  C105     1.0000 0.33070  0.33070  0.80740  Biso   1.000  C
  C106     1.0000 0.26730  0.26730  0.76440  Biso   1.000  C
  C107     1.0000 0.13169  0.13169  0.66838  Biso   1.000  C
  C108     1.0000 0.06450  0.06450  0.62160  Biso   1.000  C
  C109     1.0000 0.52330  0.52330  0.19260  Biso   1.000  C
  C110     1.0000 0.50290  0.50290  0.23560  Biso   1.000  C
  C111     1.0000 0.46331  0.46331  0.33162  Biso   1.000  C
  C112     1.0000 0.44290  0.44290  0.37840  Biso   1.000  C
  C113     1.0000 0.80740  0.33070  0.33070  Biso   1.000  C
  C114     1.0000 0.76440  0.26730  0.26730  Biso   1.000  C
  C115     1.0000 0.66838  0.13169  0.13169  Biso   1.000  C
  C116     1.0000 0.62160  0.06450  0.06450  Biso   1.000  C
  C117     1.0000 0.19260  0.52330  0.52330  Biso   1.000  C
  C118     1.0000 0.23560  0.50290  0.50290  Biso   1.000  C
  C119     1.0000 0.33162  0.46331  0.46331  Biso   1.000  C
  C120     1.0000 0.37840  0.44290  0.44290  Biso   1.000  C
  C121     1.0000 1.00000  0.47670  0.66930  Biso   1.000  C
  C122     1.0000 1.00000  0.49710  0.73270  Biso   1.000  C
  C123     1.0000 1.00000  0.53669  0.86831  Biso   1.000  C
  C124     1.0000 1.00000  0.55710  0.93550  Biso   1.000  C
  C125     1.0000 0.00000  0.66930  0.47670  Biso   1.000  C
  C126     1.0000 1.00000  0.73270  0.49710  Biso   1.000  C
  C127     1.0000 0.00000  0.86831  0.53669  Biso   1.000  C
  C128     1.0000 1.00000  0.93550  0.55710  Biso   1.000  C
  C129     1.0000 0.47670  0.00000  0.66930  Biso   1.000  C
  C130     1.0000 0.49710  0.00000  0.73270  Biso   1.000  C
  C131     1.0000 0.53669  0.00000  0.86831  Biso   1.000  C
  C132     1.0000 0.55710  1.00000  0.93550  Biso   1.000  C
  C133     1.0000 0.66930  0.00000  0.47670  Biso   1.000  C
  C134     1.0000 0.73270  0.00000  0.49710  Biso   1.000  C
  C135     1.0000 0.86831  0.00000  0.53669  Biso   1.000  C
  C136     1.0000 0.93550  0.00000  0.55710  Biso   1.000  C
  C137     1.0000 0.52330  0.19260  0.52330  Biso   1.000  C
  C138     1.0000 0.50290  0.23560  0.50290  Biso   1.000  C
  C139     1.0000 0.46331  0.33162  0.46331  Biso   1.000  C
  C140     1.0000 0.44290  0.37840  0.44290  Biso   1.000  C
  C141     1.0000 0.33070  0.80740  0.33070  Biso   1.000  C
  C142     1.0000 0.26730  0.76440  0.26730  Biso   1.000  C
  C143     1.0000 0.13169  0.66838  0.13169  Biso   1.000  C
  C144     1.0000 0.06450  0.62160  0.06450  Biso   1.000  C
  C145     1.0000 0.33070  0.52330  0.00000  Biso   1.000  C
  C146     1.0000 0.26730  0.50290  0.00000  Biso   1.000  C
  C147     1.0000 0.13169  0.46331  0.00000  Biso   1.000  C
  C148     1.0000 0.06450  0.44290  0.00000  Biso   1.000  C
  C149     1.0000 0.52330  0.33070  0.00000  Biso   1.000  C
  C150     1.0000 0.50290  0.26730  0.00000  Biso   1.000  C
  C151     1.0000 0.46331  0.13169  0.00000  Biso   1.000  C
  C152     1.0000 0.44290  0.06450  0.00000  Biso   1.000  C
  C153     1.0000 0.66930  0.66930  0.19260  Biso   1.000  C
  C154     1.0000 0.73270  0.73270  0.23560  Biso   1.000  C
  C155     1.0000 0.86831  0.86831  0.33162  Biso   1.000  C
  C156     1.0000 0.93550  0.93550  0.37840  Biso   1.000  C
  C157     1.0000 0.47670  0.47670  0.80740  Biso   1.000  C
  C158     1.0000 0.49710  0.49710  0.76440  Biso   1.000  C
  C159     1.0000 0.53669  0.53669  0.66838  Biso   1.000  C
  C160     1.0000 0.55710  0.55710  0.62160  Biso   1.000  C
  C161     1.0000 0.66930  0.19260  0.66930  Biso   1.000  C
  C162     1.0000 0.73270  0.23560  0.73270  Biso   1.000  C
  C163     1.0000 0.86831  0.33162  0.86831  Biso   1.000  C
  C164     1.0000 0.93550  0.37840  0.93550  Biso   1.000  C
  C165     1.0000 0.47670  0.80740  0.47670  Biso   1.000  C
  C166     1.0000 0.49710  0.76440  0.49710  Biso   1.000  C
  C167     1.0000 0.53669  0.66838  0.53669  Biso   1.000  C
  C168     1.0000 0.55710  0.62160  0.55710  Biso   1.000  C
  C169     1.0000 0.52330  0.00000  0.33070  Biso   1.000  C
  C170     1.0000 0.50290  0.00000  0.26730  Biso   1.000  C
  C171     1.0000 0.46331  0.00000  0.13169  Biso   1.000  C
  C172     1.0000 0.44290  0.00000  0.06450  Biso   1.000  C
  C173     1.0000 0.33070  0.00000  0.52330  Biso   1.000  C
  C174     1.0000 0.26730  0.00000  0.50290  Biso   1.000  C
  C175     1.0000 0.13169  0.00000  0.46331  Biso   1.000  C
  C176     1.0000 0.06450  0.00000  0.44290  Biso   1.000  C
  C177     1.0000 0.00000  0.52330  0.33070  Biso   1.000  C
  C178     1.0000 0.00000  0.50290  0.26730  Biso   1.000  C
  C179     1.0000 0.00000  0.46331  0.13169  Biso   1.000  C
  C180     1.0000 0.00000  0.44290  0.06450  Biso   1.000  C
  C181     1.0000 1.00000  0.33070  0.52330  Biso   1.000  C
  C182     1.0000 0.00000  0.26730  0.50290  Biso   1.000  C
  C183     1.0000 0.00000  0.13169  0.46331  Biso   1.000  C
  C184     1.0000 1.00000  0.06450  0.44290  Biso   1.000  C
  C185     1.0000 0.80740  0.47670  0.47670  Biso   1.000  C
  C186     1.0000 0.76440  0.49710  0.49710  Biso   1.000  C
  C187     1.0000 0.66838  0.53669  0.53669  Biso   1.000  C
  C188     1.0000 0.62160  0.55710  0.55710  Biso   1.000  C
  C189     1.0000 0.19260  0.66930  0.66930  Biso   1.000  C
  C190     1.0000 0.23560  0.73270  0.73270  Biso   1.000  C
  C191     1.0000 0.33162  0.86831  0.86831  Biso   1.000  C
  C192     1.0000 0.37840  0.93550  0.93550  Biso   1.000  C
  N1       1.0000 0.60350  0.00000  0.06870  Biso   1.000  N
  N2       1.0000 0.93130  0.53480  0.93130  Biso   1.000  N
  N3       1.0000 0.06870  1.00000  0.60350  Biso   1.000  N
  N4       1.0000 0.39650  0.46520  0.39650  Biso   1.000  N
  N5       1.0000 0.60350  0.06870  0.00000  Biso   1.000  N
  N6       1.0000 0.39650  0.39650  0.46520  Biso   1.000  N
  N7       1.0000 0.06870  0.60350  0.00000  Biso   1.000  N
  N8       1.0000 0.93130  0.93130  0.53480  Biso   1.000  N
  N9       1.0000 0.53480  0.93130  0.93130  Biso   1.000  N
  N10      1.0000 0.00000  0.06870  0.60350  Biso   1.000  N
  N11      1.0000 0.46520  0.39650  0.39650  Biso   1.000  N
  N12      1.0000 0.00000  0.60350  0.06870  Biso   1.000  N
  N13      1.0000 1.00000  0.39650  0.93130  Biso   1.000  N
  N14      1.0000 0.46520  0.06870  0.06870  Biso   1.000  N
  N15      1.0000 0.00000  0.93130  0.39650  Biso   1.000  N
  N16      1.0000 0.53480  0.60350  0.60350  Biso   1.000  N
  N17      1.0000 0.93130  0.39650  0.00000  Biso   1.000  N
  N18      1.0000 0.60350  0.60350  0.53480  Biso   1.000  N
  N19      1.0000 0.39650  0.93130  0.00000  Biso   1.000  N
  N20      1.0000 0.06870  0.06870  0.46520  Biso   1.000  N
  N21      1.0000 0.06870  0.46520  0.06870  Biso   1.000  N
  N22      1.0000 0.93130  0.00000  0.39650  Biso   1.000  N
  N23      1.0000 0.60350  0.53480  0.60350  Biso   1.000  N
  N24      1.0000 0.39650  0.00000  0.93130  Biso   1.000  N
  O1       1.0000 0.42730  0.60080  0.93170  Biso   1.000  O
  O2       1.0000 0.66910  0.49560  0.06830  Biso   1.000  O
  O3       1.0000 0.33090  0.39920  0.82650  Biso   1.000  O
  O4       1.0000 0.57270  0.50440  0.17350  Biso   1.000  O
  O5       1.0000 0.82650  0.33090  0.39920  Biso   1.000  O
  O6       1.0000 0.17350  0.57270  0.50440  Biso   1.000  O
  O7       1.0000 0.93170  0.42730  0.60080  Biso   1.000  O
  O8       1.0000 0.06830  0.66910  0.49560  Biso   1.000  O
  O9       1.0000 0.49560  0.06830  0.66910  Biso   1.000  O
  O10      1.0000 0.60080  0.93170  0.42730  Biso   1.000  O
  O11      1.0000 0.50440  0.17350  0.57270  Biso   1.000  O
  O12      1.0000 0.39920  0.82650  0.33090  Biso   1.000  O
  O13      1.0000 0.39920  0.57270  0.06830  Biso   1.000  O
  O14      1.0000 0.50440  0.33090  0.93170  Biso   1.000  O
  O15      1.0000 0.60080  0.66910  0.17350  Biso   1.000  O
  O16      1.0000 0.49560  0.42730  0.82650  Biso   1.000  O
  O17      1.0000 0.66910  0.17350  0.60080  Biso   1.000  O
  O18      1.0000 0.42730  0.82650  0.49560  Biso   1.000  O
  O19      1.0000 0.57270  0.06830  0.39920  Biso   1.000  O
  O20      1.0000 0.33090  0.93170  0.50440  Biso   1.000  O
  O21      1.0000 0.93170  0.50440  0.33090  Biso   1.000  O
  O22      1.0000 0.06830  0.39920  0.57270  Biso   1.000  O
  O23      1.0000 0.82650  0.49560  0.42730  Biso   1.000  O
  O24      1.0000 0.17350  0.60080  0.66910  Biso   1.000  O
  O25      1.0000 0.57270  0.39920  0.06830  Biso   1.000  O
  O26      1.0000 0.33090  0.50440  0.93170  Biso   1.000  O
  O27      1.0000 0.66910  0.60080  0.17350  Biso   1.000  O
  O28      1.0000 0.42730  0.49560  0.82650  Biso   1.000  O
  O29      1.0000 0.17350  0.66910  0.60080  Biso   1.000  O
  O30      1.0000 0.82650  0.42730  0.49560  Biso   1.000  O
  O31      1.0000 0.06830  0.57270  0.39920  Biso   1.000  O
  O32      1.0000 0.93170  0.33090  0.50440  Biso   1.000  O
  O33      1.0000 0.50440  0.93170  0.33090  Biso   1.000  O
  O34      1.0000 0.39920  0.06830  0.57270  Biso   1.000  O
  O35      1.0000 0.49560  0.82650  0.42730  Biso   1.000  O
  O36      1.0000 0.60080  0.17350  0.66910  Biso   1.000  O
  O37      1.0000 0.60080  0.42730  0.93170  Biso   1.000  O
  O38      1.0000 0.49560  0.66910  0.06830  Biso   1.000  O
  O39      1.0000 0.39920  0.33090  0.82650  Biso   1.000  O
  O40      1.0000 0.50440  0.57270  0.17350  Biso   1.000  O
  O41      1.0000 0.33090  0.82650  0.39920  Biso   1.000  O
  O42      1.0000 0.57270  0.17350  0.50440  Biso   1.000  O
  O43      1.0000 0.42730  0.93170  0.60080  Biso   1.000  O
  O44      1.0000 0.66910  0.06830  0.49560  Biso   1.000  O
  O45      1.0000 0.06830  0.49560  0.66910  Biso   1.000  O
  O46      1.0000 0.93170  0.60080  0.42730  Biso   1.000  O
  O47      1.0000 0.17350  0.50440  0.57270  Biso   1.000  O
  O48      1.0000 0.82650  0.39920  0.33090  Biso   1.000  O
