data_image0
_cell_length_a       18.3517
_cell_length_b       18.3517
_cell_length_c       17.772
_cell_angle_alpha    90
_cell_angle_beta     90
_cell_angle_gamma    90

_symmetry_space_group_name_H-M    "P 1"
_symmetry_int_tables_number       1

loop_
  _symmetry_equiv_pos_as_xyz
  'x, y, z'

loop_
  _atom_site_label
  _atom_site_occupancy
  _atom_site_fract_x
  _atom_site_fract_y
  _atom_site_fract_z
  _atom_site_thermal_displace_type
  _atom_site_B_iso_or_equiv
  _atom_site_type_symbol
  O1       1.0000 0.14248  0.22844  0.07969  Biso   1.000  O
  C1       1.0000 0.28636  0.18974  0.21580  Biso   1.000  C
  N1       1.0000 0.34055  0.13892  0.18266  Biso   1.000  N
  O2       1.0000 0.64248  0.72844  0.57969  Biso   1.000  O
  C2       1.0000 0.78636  0.68974  0.71580  Biso   1.000  C
  N2       1.0000 0.84055  0.63892  0.68266  Biso   1.000  N
  O3       1.0000 0.85752  0.77156  0.07969  Biso   1.000  O
  C3       1.0000 0.71364  0.81026  0.21580  Biso   1.000  C
  N3       1.0000 0.65945  0.86108  0.18266  Biso   1.000  N
  O4       1.0000 0.35752  0.27156  0.57969  Biso   1.000  O
  C4       1.0000 0.21364  0.31026  0.71580  Biso   1.000  C
  N4       1.0000 0.15945  0.36108  0.68266  Biso   1.000  N
  O5       1.0000 0.77156  0.14248  0.07969  Biso   1.000  O
  C5       1.0000 0.81026  0.28636  0.21580  Biso   1.000  C
  N5       1.0000 0.86108  0.34055  0.18266  Biso   1.000  N
  O6       1.0000 0.27156  0.64248  0.57969  Biso   1.000  O
  C6       1.0000 0.31026  0.78636  0.71580  Biso   1.000  C
  N6       1.0000 0.36108  0.84055  0.68266  Biso   1.000  N
  O7       1.0000 0.22844  0.85752  0.07969  Biso   1.000  O
  C7       1.0000 0.18974  0.71364  0.21580  Biso   1.000  C
  N7       1.0000 0.13892  0.65945  0.18266  Biso   1.000  N
  O8       1.0000 0.72844  0.35752  0.57969  Biso   1.000  O
  C8       1.0000 0.68974  0.21364  0.71580  Biso   1.000  C
  N8       1.0000 0.63892  0.15945  0.68266  Biso   1.000  N
  O9       1.0000 0.85752  0.22844  0.92031  Biso   1.000  O
  C9       1.0000 0.71364  0.18974  0.78420  Biso   1.000  C
  N9       1.0000 0.65945  0.13892  0.81734  Biso   1.000  N
  O10      1.0000 0.35752  0.72844  0.42031  Biso   1.000  O
  C10      1.0000 0.21364  0.68974  0.28420  Biso   1.000  C
  N10      1.0000 0.15945  0.63892  0.31734  Biso   1.000  N
  O11      1.0000 0.14248  0.77156  0.92031  Biso   1.000  O
  C11      1.0000 0.28636  0.81026  0.78420  Biso   1.000  C
  N11      1.0000 0.34055  0.86108  0.81734  Biso   1.000  N
  O12      1.0000 0.64248  0.27156  0.42031  Biso   1.000  O
  C12      1.0000 0.78636  0.31026  0.28420  Biso   1.000  C
  N12      1.0000 0.84055  0.36108  0.31734  Biso   1.000  N
  O13      1.0000 0.22844  0.14248  0.92031  Biso   1.000  O
  C13      1.0000 0.18974  0.28636  0.78420  Biso   1.000  C
  N13      1.0000 0.13892  0.34055  0.81734  Biso   1.000  N
  O14      1.0000 0.72844  0.64248  0.42031  Biso   1.000  O
  C14      1.0000 0.68974  0.78636  0.28420  Biso   1.000  C
  N14      1.0000 0.63892  0.84055  0.31734  Biso   1.000  N
  O15      1.0000 0.77156  0.85752  0.92031  Biso   1.000  O
  C15      1.0000 0.81026  0.71364  0.78420  Biso   1.000  C
  N15      1.0000 0.86108  0.65945  0.81734  Biso   1.000  N
  O16      1.0000 0.27156  0.35752  0.42031  Biso   1.000  O
  C16      1.0000 0.31026  0.21364  0.28420  Biso   1.000  C
  N16      1.0000 0.36108  0.15945  0.31734  Biso   1.000  N
  O17      1.0000 0.85752  0.77156  0.92031  Biso   1.000  O
  C17      1.0000 0.71364  0.81026  0.78420  Biso   1.000  C
  N17      1.0000 0.65945  0.86108  0.81734  Biso   1.000  N
  O18      1.0000 0.35752  0.27156  0.42031  Biso   1.000  O
  C18      1.0000 0.21364  0.31026  0.28420  Biso   1.000  C
  N18      1.0000 0.15945  0.36108  0.31734  Biso   1.000  N
  O19      1.0000 0.14248  0.22844  0.92031  Biso   1.000  O
  C19      1.0000 0.28636  0.18974  0.78420  Biso   1.000  C
  N19      1.0000 0.34055  0.13892  0.81734  Biso   1.000  N
  O20      1.0000 0.64248  0.72844  0.42031  Biso   1.000  O
  C20      1.0000 0.78636  0.68974  0.28420  Biso   1.000  C
  N20      1.0000 0.84055  0.63892  0.31734  Biso   1.000  N
  O21      1.0000 0.22844  0.85752  0.92031  Biso   1.000  O
  C21      1.0000 0.18974  0.71364  0.78420  Biso   1.000  C
  N21      1.0000 0.13892  0.65945  0.81734  Biso   1.000  N
  O22      1.0000 0.72844  0.35752  0.42031  Biso   1.000  O
  C22      1.0000 0.68974  0.21364  0.28420  Biso   1.000  C
  N22      1.0000 0.63892  0.15945  0.31734  Biso   1.000  N
  O23      1.0000 0.77156  0.14248  0.92031  Biso   1.000  O
  C23      1.0000 0.81026  0.28636  0.78420  Biso   1.000  C
  N23      1.0000 0.86108  0.34055  0.81734  Biso   1.000  N
  O24      1.0000 0.27156  0.64248  0.42031  Biso   1.000  O
  C24      1.0000 0.31026  0.78636  0.28420  Biso   1.000  C
  N24      1.0000 0.36108  0.84055  0.31734  Biso   1.000  N
  O25      1.0000 0.14248  0.77156  0.07969  Biso   1.000  O
  C25      1.0000 0.28636  0.81026  0.21580  Biso   1.000  C
  N25      1.0000 0.34055  0.86108  0.18266  Biso   1.000  N
  O26      1.0000 0.64248  0.27156  0.57969  Biso   1.000  O
  C26      1.0000 0.78636  0.31026  0.71580  Biso   1.000  C
  N26      1.0000 0.84055  0.36108  0.68266  Biso   1.000  N
  O27      1.0000 0.85752  0.22844  0.07969  Biso   1.000  O
  C27      1.0000 0.71364  0.18974  0.21580  Biso   1.000  C
  N27      1.0000 0.65945  0.13892  0.18266  Biso   1.000  N
  O28      1.0000 0.35752  0.72844  0.57969  Biso   1.000  O
  C28      1.0000 0.21364  0.68974  0.71580  Biso   1.000  C
  N28      1.0000 0.15945  0.63892  0.68266  Biso   1.000  N
  O29      1.0000 0.77156  0.85752  0.07969  Biso   1.000  O
  C29      1.0000 0.81026  0.71364  0.21580  Biso   1.000  C
  N29      1.0000 0.86108  0.65945  0.18266  Biso   1.000  N
  O30      1.0000 0.27156  0.35752  0.57969  Biso   1.000  O
  C30      1.0000 0.31026  0.21364  0.71580  Biso   1.000  C
  N30      1.0000 0.36108  0.15945  0.68266  Biso   1.000  N
  O31      1.0000 0.22844  0.14248  0.07969  Biso   1.000  O
  C31      1.0000 0.18974  0.28636  0.21580  Biso   1.000  C
  N31      1.0000 0.13892  0.34055  0.18266  Biso   1.000  N
  O32      1.0000 0.72844  0.64248  0.57969  Biso   1.000  O
  C32      1.0000 0.68974  0.78636  0.71580  Biso   1.000  C
  N32      1.0000 0.63892  0.84055  0.68266  Biso   1.000  N
  Al1      1.0000 0.07866  0.20660  0.00000  Biso   1.000  Al
  O33      1.0000 0.06052  0.31030  0.00000  Biso   1.000  O
  C33      1.0000 0.06769  0.46344  0.00000  Biso   1.000  C
  N33      1.0000 0.14358  0.43184  0.00000  Biso   1.000  N
  Al2      1.0000 0.57866  0.70660  0.50000  Biso   1.000  Al
  O34      1.0000 0.56052  0.81030  0.50000  Biso   1.000  O
  C34      1.0000 0.56769  0.96344  0.50000  Biso   1.000  C
  N34      1.0000 0.64358  0.93184  0.50000  Biso   1.000  N
  Al3      1.0000 0.92134  0.79340  0.00000  Biso   1.000  Al
  O35      1.0000 0.93948  0.68970  0.00000  Biso   1.000  O
  C35      1.0000 0.93231  0.53656  0.00000  Biso   1.000  C
  N35      1.0000 0.85642  0.56816  0.00000  Biso   1.000  N
  Al4      1.0000 0.42134  0.29340  0.50000  Biso   1.000  Al
  O36      1.0000 0.43948  0.18970  0.50000  Biso   1.000  O
  C36      1.0000 0.43231  0.03656  0.50000  Biso   1.000  C
  N36      1.0000 0.35642  0.06816  0.50000  Biso   1.000  N
  Al5      1.0000 0.79340  0.07866  0.00000  Biso   1.000  Al
  O37      1.0000 0.68970  0.06052  0.00000  Biso   1.000  O
  C37      1.0000 0.53656  0.06769  0.00000  Biso   1.000  C
  N37      1.0000 0.56816  0.14358  0.00000  Biso   1.000  N
  Al6      1.0000 0.29340  0.57866  0.50000  Biso   1.000  Al
  O38      1.0000 0.18970  0.56052  0.50000  Biso   1.000  O
  C38      1.0000 0.03656  0.56769  0.50000  Biso   1.000  C
  N38      1.0000 0.06816  0.64358  0.50000  Biso   1.000  N
  Al7      1.0000 0.20660  0.92134  0.00000  Biso   1.000  Al
  O39      1.0000 0.31030  0.93948  0.00000  Biso   1.000  O
  C39      1.0000 0.46344  0.93231  0.00000  Biso   1.000  C
  N39      1.0000 0.43184  0.85642  0.00000  Biso   1.000  N
  Al8      1.0000 0.70660  0.42134  0.50000  Biso   1.000  Al
  O40      1.0000 0.81030  0.43948  0.50000  Biso   1.000  O
  C40      1.0000 0.96344  0.43231  0.50000  Biso   1.000  C
  N40      1.0000 0.93184  0.35642  0.50000  Biso   1.000  N
  Al9      1.0000 0.92134  0.20660  0.00000  Biso   1.000  Al
  O41      1.0000 0.93948  0.31030  0.00000  Biso   1.000  O
  C41      1.0000 0.93231  0.46344  0.00000  Biso   1.000  C
  N41      1.0000 0.85642  0.43184  0.00000  Biso   1.000  N
  Al10     1.0000 0.42134  0.70660  0.50000  Biso   1.000  Al
  O42      1.0000 0.43948  0.81030  0.50000  Biso   1.000  O
  C42      1.0000 0.43231  0.96344  0.50000  Biso   1.000  C
  N42      1.0000 0.35642  0.93184  0.50000  Biso   1.000  N
  Al11     1.0000 0.07866  0.79340  0.00000  Biso   1.000  Al
  O43      1.0000 0.06052  0.68970  0.00000  Biso   1.000  O
  C43      1.0000 0.06769  0.53656  0.00000  Biso   1.000  C
  N43      1.0000 0.14358  0.56816  0.00000  Biso   1.000  N
  Al12     1.0000 0.57866  0.29340  0.50000  Biso   1.000  Al
  O44      1.0000 0.56052  0.18970  0.50000  Biso   1.000  O
  C44      1.0000 0.56769  0.03656  0.50000  Biso   1.000  C
  N44      1.0000 0.64358  0.06816  0.50000  Biso   1.000  N
  Al13     1.0000 0.20660  0.07866  0.00000  Biso   1.000  Al
  O45      1.0000 0.31030  0.06052  0.00000  Biso   1.000  O
  C45      1.0000 0.46344  0.06769  0.00000  Biso   1.000  C
  N45      1.0000 0.43184  0.14358  0.00000  Biso   1.000  N
  Al14     1.0000 0.70660  0.57866  0.50000  Biso   1.000  Al
  O46      1.0000 0.81030  0.56052  0.50000  Biso   1.000  O
  C46      1.0000 0.96344  0.56769  0.50000  Biso   1.000  C
  N46      1.0000 0.93184  0.64358  0.50000  Biso   1.000  N
  Al15     1.0000 0.79340  0.92134  0.00000  Biso   1.000  Al
  O47      1.0000 0.68970  0.93948  0.00000  Biso   1.000  O
  C47      1.0000 0.53656  0.93231  0.00000  Biso   1.000  C
  N47      1.0000 0.56816  0.85642  0.00000  Biso   1.000  N
  Al16     1.0000 0.29340  0.42134  0.50000  Biso   1.000  Al
  O48      1.0000 0.18970  0.43948  0.50000  Biso   1.000  O
  C48      1.0000 0.03656  0.43231  0.50000  Biso   1.000  C
  N48      1.0000 0.06816  0.35642  0.50000  Biso   1.000  N
  O49      1.0000 0.11024  0.11024  0.00000  Biso   1.000  O
  O50      1.0000 0.61024  0.61024  0.50000  Biso   1.000  O
  O51      1.0000 0.88976  0.88976  0.00000  Biso   1.000  O
  O52      1.0000 0.38976  0.38976  0.50000  Biso   1.000  O
  O53      1.0000 0.88976  0.11024  0.00000  Biso   1.000  O
  O54      1.0000 0.38976  0.61024  0.50000  Biso   1.000  O
  O55      1.0000 0.11024  0.88976  0.00000  Biso   1.000  O
  O56      1.0000 0.61024  0.38976  0.50000  Biso   1.000  O
  O57      1.0000 0.00000  0.19291  0.06616  Biso   1.000  O
  C49      1.0000 0.00000  0.18470  0.14796  Biso   1.000  C
  O58      1.0000 0.50000  0.69291  0.56616  Biso   1.000  O
  C50      1.0000 0.50000  0.68470  0.64796  Biso   1.000  C
  O59      1.0000 0.00000  0.80709  0.06616  Biso   1.000  O
  C51      1.0000 0.00000  0.81530  0.14796  Biso   1.000  C
  O60      1.0000 0.50000  0.30709  0.56616  Biso   1.000  O
  C52      1.0000 0.50000  0.31530  0.64796  Biso   1.000  C
  O61      1.0000 0.80709  0.00000  0.06616  Biso   1.000  O
  C53      1.0000 0.81530  0.00000  0.14796  Biso   1.000  C
  O62      1.0000 0.30709  0.50000  0.56616  Biso   1.000  O
  C54      1.0000 0.31530  0.50000  0.64796  Biso   1.000  C
  O63      1.0000 0.19291  0.00000  0.06616  Biso   1.000  O
  C55      1.0000 0.18470  0.00000  0.14796  Biso   1.000  C
  O64      1.0000 0.69291  0.50000  0.56616  Biso   1.000  O
  C56      1.0000 0.68470  0.50000  0.64796  Biso   1.000  C
  O65      1.0000 0.00000  0.19291  0.93384  Biso   1.000  O
  C57      1.0000 0.00000  0.18470  0.85204  Biso   1.000  C
  O66      1.0000 0.50000  0.69291  0.43384  Biso   1.000  O
  C58      1.0000 0.50000  0.68470  0.35204  Biso   1.000  C
  O67      1.0000 0.00000  0.80709  0.93384  Biso   1.000  O
  C59      1.0000 0.00000  0.81530  0.85204  Biso   1.000  C
  O68      1.0000 0.50000  0.30709  0.43384  Biso   1.000  O
  C60      1.0000 0.50000  0.31530  0.35204  Biso   1.000  C
  O69      1.0000 0.19291  0.00000  0.93384  Biso   1.000  O
  C61      1.0000 0.18470  0.00000  0.85204  Biso   1.000  C
  O70      1.0000 0.69291  0.50000  0.43384  Biso   1.000  O
  C62      1.0000 0.68470  0.50000  0.35204  Biso   1.000  C
  O71      1.0000 0.80709  0.00000  0.93384  Biso   1.000  O
  C63      1.0000 0.81530  0.00000  0.85204  Biso   1.000  C
  O72      1.0000 0.30709  0.50000  0.43384  Biso   1.000  O
  C64      1.0000 0.31530  0.50000  0.35204  Biso   1.000  C
  C65      1.0000 0.00000  0.34196  0.00000  Biso   1.000  C
  C66      1.0000 0.00000  0.42527  0.00000  Biso   1.000  C
  C67      1.0000 0.50000  0.84196  0.50000  Biso   1.000  C
  C68      1.0000 0.50000  0.92527  0.50000  Biso   1.000  C
  C69      1.0000 0.00000  0.65804  0.00000  Biso   1.000  C
  C70      1.0000 0.00000  0.57473  0.00000  Biso   1.000  C
  C71      1.0000 0.50000  0.15804  0.50000  Biso   1.000  C
  C72      1.0000 0.50000  0.07473  0.50000  Biso   1.000  C
  C73      1.0000 0.65804  0.00000  0.00000  Biso   1.000  C
  C74      1.0000 0.57473  0.00000  0.00000  Biso   1.000  C
  C75      1.0000 0.15804  0.50000  0.50000  Biso   1.000  C
  C76      1.0000 0.07473  0.50000  0.50000  Biso   1.000  C
  C77      1.0000 0.34196  0.00000  0.00000  Biso   1.000  C
  C78      1.0000 0.42527  0.00000  0.00000  Biso   1.000  C
  C79      1.0000 0.84196  0.50000  0.50000  Biso   1.000  C
  C80      1.0000 0.92527  0.50000  0.50000  Biso   1.000  C
  C81      1.0000 0.19687  0.19687  0.10774  Biso   1.000  C
  C82      1.0000 0.22431  0.22431  0.18267  Biso   1.000  C
  C83      1.0000 0.69687  0.69687  0.60774  Biso   1.000  C
  C84      1.0000 0.72431  0.72431  0.68267  Biso   1.000  C
  C85      1.0000 0.80313  0.80313  0.10774  Biso   1.000  C
  C86      1.0000 0.77569  0.77569  0.18267  Biso   1.000  C
  C87      1.0000 0.30313  0.30313  0.60774  Biso   1.000  C
  C88      1.0000 0.27569  0.27569  0.68267  Biso   1.000  C
  C89      1.0000 0.80313  0.19687  0.10774  Biso   1.000  C
  C90      1.0000 0.77569  0.22431  0.18267  Biso   1.000  C
  C91      1.0000 0.30313  0.69687  0.60774  Biso   1.000  C
  C92      1.0000 0.27569  0.72431  0.68267  Biso   1.000  C
  C93      1.0000 0.19687  0.80313  0.10774  Biso   1.000  C
  C94      1.0000 0.22431  0.77569  0.18267  Biso   1.000  C
  C95      1.0000 0.69687  0.30313  0.60774  Biso   1.000  C
  C96      1.0000 0.72431  0.27569  0.68267  Biso   1.000  C
  C97      1.0000 0.80313  0.19687  0.89226  Biso   1.000  C
  C98      1.0000 0.77569  0.22431  0.81733  Biso   1.000  C
  C99      1.0000 0.30313  0.69687  0.39226  Biso   1.000  C
  C100     1.0000 0.27569  0.72431  0.31733  Biso   1.000  C
  C101     1.0000 0.19687  0.80313  0.89226  Biso   1.000  C
  C102     1.0000 0.22431  0.77569  0.81733  Biso   1.000  C
  C103     1.0000 0.69687  0.30313  0.39226  Biso   1.000  C
  C104     1.0000 0.72431  0.27569  0.31733  Biso   1.000  C
  C105     1.0000 0.19687  0.19687  0.89226  Biso   1.000  C
  C106     1.0000 0.22431  0.22431  0.81733  Biso   1.000  C
  C107     1.0000 0.69687  0.69687  0.39226  Biso   1.000  C
  C108     1.0000 0.72431  0.72431  0.31733  Biso   1.000  C
  C109     1.0000 0.80313  0.80313  0.89226  Biso   1.000  C
  C110     1.0000 0.77569  0.77569  0.81733  Biso   1.000  C
  C111     1.0000 0.30313  0.30313  0.39226  Biso   1.000  C
  C112     1.0000 0.27569  0.27569  0.31733  Biso   1.000  C
