data_image0
_cell_length_a       7.6145
_cell_length_b       11.133
_cell_length_c       16.8688
_cell_angle_alpha    90
_cell_angle_beta     90
_cell_angle_gamma    90

_symmetry_space_group_name_H-M    P 1
_symmetry_int_tables_number       1

loop_
  _symmetry_equiv_pos_as_xyz
  'x, y, z'

loop_
  _atom_site_label
  _atom_site_occupancy
  _atom_site_fract_x
  _atom_site_fract_y
  _atom_site_fract_z
  _atom_site_thermal_displace_type
  _atom_site_B_iso_or_equiv
  _atom_site_type_symbol
  Zn1      1.0000 0.89771  0.85908  0.03842  Biso   1.000  Zn
  Zn2      1.0000 0.60229  0.14092  0.53842  Biso   1.000  Zn
  Zn3      1.0000 0.10229  0.35908  0.46158  Biso   1.000  Zn
  Zn4      1.0000 0.39771  0.64092  0.96158  Biso   1.000  Zn
  H1       1.0000 0.78340  0.79480  0.78410  Biso   1.000  H
  H2       1.0000 0.75510  0.60740  0.36790  Biso   1.000  H
  H3       1.0000 0.98420  0.40080  0.15490  Biso   1.000  H
  H4       1.0000 0.74070  0.82700  0.64950  Biso   1.000  H
  H5       1.0000 0.98740  0.31460  0.28000  Biso   1.000  H
  H6       1.0000 0.75460  0.69440  0.24270  Biso   1.000  H
  H7       1.0000 0.98700  0.12400  0.80560  Biso   1.000  H
  H8       1.0000 0.93900  0.17400  0.66900  Biso   1.000  H
  H9       1.0000 0.71660  0.20520  0.28410  Biso   1.000  H
  H10      1.0000 0.74490  0.39260  0.86790  Biso   1.000  H
  H11      1.0000 0.51580  0.59920  0.65490  Biso   1.000  H
  H12      1.0000 0.75930  0.17300  0.14950  Biso   1.000  H
  H13      1.0000 0.51260  0.68540  0.78000  Biso   1.000  H
  H14      1.0000 0.74540  0.30560  0.74270  Biso   1.000  H
  H15      1.0000 0.51300  0.87600  0.30560  Biso   1.000  H
  H16      1.0000 0.56100  0.82600  0.16900  Biso   1.000  H
  H17      1.0000 0.21660  0.29480  0.71590  Biso   1.000  H
  H18      1.0000 0.24490  0.10740  0.13210  Biso   1.000  H
  H19      1.0000 0.01580  0.90080  0.34510  Biso   1.000  H
  H20      1.0000 0.25930  0.32700  0.85050  Biso   1.000  H
  H21      1.0000 0.01260  0.81460  0.22000  Biso   1.000  H
  H22      1.0000 0.24540  0.19440  0.25730  Biso   1.000  H
  H23      1.0000 0.01300  0.62400  0.69440  Biso   1.000  H
  H24      1.0000 0.06100  0.67400  0.83100  Biso   1.000  H
  H25      1.0000 0.28340  0.70520  0.21590  Biso   1.000  H
  H26      1.0000 0.25510  0.89260  0.63210  Biso   1.000  H
  H27      1.0000 0.48420  0.09920  0.84510  Biso   1.000  H
  H28      1.0000 0.24070  0.67300  0.35050  Biso   1.000  H
  H29      1.0000 0.48740  0.18540  0.72000  Biso   1.000  H
  H30      1.0000 0.25460  0.80560  0.75730  Biso   1.000  H
  H31      1.0000 0.48700  0.37600  0.19440  Biso   1.000  H
  H32      1.0000 0.43900  0.32600  0.33100  Biso   1.000  H
  C1       1.0000 0.91440  0.08500  0.69350  Biso   1.000  C
  C2       1.0000 0.81570  0.86770  0.76160  Biso   1.000  C
  C3       1.0000 0.88930  0.95500  0.80820  Biso   1.000  C
  C4       1.0000 0.79960  0.56490  0.32480  Biso   1.000  C
  C5       1.0000 0.86890  0.55630  0.18550  Biso   1.000  C
  C6       1.0000 0.93740  0.44290  0.19760  Biso   1.000  C
  C7       1.0000 0.78890  0.88700  0.68100  Biso   1.000  C
  C8       1.0000 0.86460  0.45020  0.33580  Biso   1.000  C
  C9       1.0000 0.91280  0.93390  0.89350  Biso   1.000  C
  C10      1.0000 0.93780  0.39010  0.27270  Biso   1.000  C
  C11      1.0000 0.80040  0.61770  0.24960  Biso   1.000  C
  C12      1.0000 0.83520  0.99770  0.64830  Biso   1.000  C
  C13      1.0000 0.93800  0.06430  0.77400  Biso   1.000  C
  C14      1.0000 0.87270  0.61610  0.10550  Biso   1.000  C
  C15      1.0000 0.58560  0.91500  0.19350  Biso   1.000  C
  C16      1.0000 0.68430  0.13230  0.26160  Biso   1.000  C
  C17      1.0000 0.61070  0.04500  0.30820  Biso   1.000  C
  C18      1.0000 0.70040  0.43510  0.82480  Biso   1.000  C
  C19      1.0000 0.63110  0.44370  0.68550  Biso   1.000  C
  C20      1.0000 0.56260  0.55710  0.69760  Biso   1.000  C
  C21      1.0000 0.71110  0.11300  0.18100  Biso   1.000  C
  C22      1.0000 0.63540  0.54980  0.83580  Biso   1.000  C
  C23      1.0000 0.58720  0.06610  0.39350  Biso   1.000  C
  C24      1.0000 0.56220  0.60990  0.77270  Biso   1.000  C
  C25      1.0000 0.69960  0.38230  0.74960  Biso   1.000  C
  C26      1.0000 0.66480  0.00230  0.14830  Biso   1.000  C
  C27      1.0000 0.56200  0.93570  0.27400  Biso   1.000  C
  C28      1.0000 0.62730  0.38390  0.60550  Biso   1.000  C
  C29      1.0000 0.08560  0.58500  0.80650  Biso   1.000  C
  C30      1.0000 0.18430  0.36770  0.73840  Biso   1.000  C
  C31      1.0000 0.11070  0.45500  0.69180  Biso   1.000  C
  C32      1.0000 0.20040  0.06490  0.17520  Biso   1.000  C
  C33      1.0000 0.13110  0.05630  0.31450  Biso   1.000  C
  C34      1.0000 0.06260  0.94290  0.30240  Biso   1.000  C
  C35      1.0000 0.21110  0.38700  0.81900  Biso   1.000  C
  C36      1.0000 0.13540  0.95020  0.16420  Biso   1.000  C
  C37      1.0000 0.08720  0.43390  0.60650  Biso   1.000  C
  C38      1.0000 0.06220  0.89010  0.22730  Biso   1.000  C
  C39      1.0000 0.19960  0.11770  0.25040  Biso   1.000  C
  C40      1.0000 0.16480  0.49770  0.85170  Biso   1.000  C
  C41      1.0000 0.06200  0.56430  0.72600  Biso   1.000  C
  C42      1.0000 0.12730  0.11610  0.39450  Biso   1.000  C
  C43      1.0000 0.41440  0.41500  0.30650  Biso   1.000  C
  C44      1.0000 0.31570  0.63230  0.23840  Biso   1.000  C
  C45      1.0000 0.38930  0.54500  0.19180  Biso   1.000  C
  C46      1.0000 0.29960  0.93510  0.67520  Biso   1.000  C
  C47      1.0000 0.36890  0.94370  0.81450  Biso   1.000  C
  C48      1.0000 0.43740  0.05710  0.80240  Biso   1.000  C
  C49      1.0000 0.28890  0.61300  0.31900  Biso   1.000  C
  C50      1.0000 0.36460  0.04980  0.66420  Biso   1.000  C
  C51      1.0000 0.41280  0.56610  0.10650  Biso   1.000  C
  C52      1.0000 0.43780  0.10990  0.72730  Biso   1.000  C
  C53      1.0000 0.30040  0.88230  0.75040  Biso   1.000  C
  C54      1.0000 0.33520  0.50230  0.35170  Biso   1.000  C
  C55      1.0000 0.43800  0.43570  0.22600  Biso   1.000  C
  C56      1.0000 0.37270  0.88390  0.89450  Biso   1.000  C
  N1       1.0000 0.80120  0.01940  0.56440  Biso   1.000  N
  N2       1.0000 0.85640  0.39170  0.41260  Biso   1.000  N
  N3       1.0000 0.69880  0.98060  0.06440  Biso   1.000  N
  N4       1.0000 0.64360  0.60830  0.91260  Biso   1.000  N
  N5       1.0000 0.19880  0.51940  0.93560  Biso   1.000  N
  N6       1.0000 0.14360  0.89170  0.08740  Biso   1.000  N
  N7       1.0000 0.30120  0.48060  0.43560  Biso   1.000  N
  N8       1.0000 0.35640  0.10830  0.58740  Biso   1.000  N
  O1       1.0000 0.86640  0.83220  0.92330  Biso   1.000  O
  O2       1.0000 0.97720  0.01350  0.93810  Biso   1.000  O
  O3       1.0000 0.82270  0.72310  0.10210  Biso   1.000  O
  O4       1.0000 0.91750  0.55540  0.04640  Biso   1.000  O
  O5       1.0000 0.63360  0.16780  0.42330  Biso   1.000  O
  O6       1.0000 0.52280  0.98650  0.43810  Biso   1.000  O
  O7       1.0000 0.67730  0.27690  0.60210  Biso   1.000  O
  O8       1.0000 0.58250  0.44460  0.54640  Biso   1.000  O
  O9       1.0000 0.13360  0.33220  0.57670  Biso   1.000  O
  O10      1.0000 0.02280  0.51350  0.56190  Biso   1.000  O
  O11      1.0000 0.17730  0.22310  0.39790  Biso   1.000  O
  O12      1.0000 0.08250  0.05540  0.45360  Biso   1.000  O
  O13      1.0000 0.36640  0.66780  0.07670  Biso   1.000  O
  O14      1.0000 0.47720  0.48650  0.06190  Biso   1.000  O
  O15      1.0000 0.32270  0.77690  0.89790  Biso   1.000  O
  O16      1.0000 0.41750  0.94460  0.95360  Biso   1.000  O
