data_image0
_cell_length_a       7.281
_cell_length_b       7.441
_cell_length_c       7.46
_cell_angle_alpha    90
_cell_angle_beta     90
_cell_angle_gamma    95.814

_symmetry_space_group_name_H-M    P 1
_symmetry_int_tables_number       1

loop_
  _symmetry_equiv_pos_as_xyz
  'x, y, z'

loop_
  _atom_site_label
  _atom_site_occupancy
  _atom_site_fract_x
  _atom_site_fract_y
  _atom_site_fract_z
  _atom_site_thermal_displace_type
  _atom_site_B_iso_or_equiv
  _atom_site_type_symbol
  Fe1      1.0000 0.00000  0.50000  0.50000  Biso   1.000  Fe
  H1       1.0000 0.65840  0.49120  0.76120  Biso   1.000  H
  H2       1.0000 0.34160  0.50880  0.76120  Biso   1.000  H
  H3       1.0000 0.34160  0.50880  0.23880  Biso   1.000  H
  H4       1.0000 0.65840  0.49120  0.23880  Biso   1.000  H
  Pt1      1.0000 0.00000  0.00000  0.00000  Biso   1.000  Pt
  C1       1.0000 0.59600  0.49500  0.65300  Biso   1.000  C
  C2       1.0000 0.99140  0.18900  0.81100  Biso   1.000  C
  C3       1.0000 0.40400  0.50500  0.65300  Biso   1.000  C
  C4       1.0000 0.00860  0.81100  0.81100  Biso   1.000  C
  C5       1.0000 0.40400  0.50500  0.34700  Biso   1.000  C
  C6       1.0000 0.00860  0.81100  0.18900  Biso   1.000  C
  C7       1.0000 0.59600  0.49500  0.34700  Biso   1.000  C
  C8       1.0000 0.99140  0.18900  0.18900  Biso   1.000  C
  N1       1.0000 0.99050  0.30000  0.70470  Biso   1.000  N
  N2       1.0000 0.00950  0.70000  0.70470  Biso   1.000  N
  N3       1.0000 0.00950  0.70000  0.29530  Biso   1.000  N
  N4       1.0000 0.99050  0.30000  0.29530  Biso   1.000  N
  N5       1.0000 0.68970  0.48900  0.50000  Biso   1.000  N
  N6       1.0000 0.31030  0.51100  0.50000  Biso   1.000  N
