data_image0
_cell_length_a       6.958
_cell_length_b       11.152
_cell_length_c       26.118
_cell_angle_alpha    97.896
_cell_angle_beta     90
_cell_angle_gamma    90

_symmetry_space_group_name_H-M    P 1
_symmetry_int_tables_number       1

loop_
  _symmetry_equiv_pos_as_xyz
  'x, y, z'

loop_
  _atom_site_label
  _atom_site_occupancy
  _atom_site_fract_x
  _atom_site_fract_y
  _atom_site_fract_z
  _atom_site_thermal_displace_type
  _atom_site_B_iso_or_equiv
  _atom_site_type_symbol
  Cd1      1.0000 0.83239  0.62995  0.87361  Biso   1.000  Cd
  Cd2      1.0000 0.33239  0.37005  0.62639  Biso   1.000  Cd
  Cd3      1.0000 0.16761  0.37005  0.12639  Biso   1.000  Cd
  Cd4      1.0000 0.66761  0.62995  0.37361  Biso   1.000  Cd
  Co1      1.0000 0.08231  0.49576  0.75020  Biso   1.000  Co
  Co2      1.0000 0.58231  0.50424  0.74980  Biso   1.000  Co
  Co3      1.0000 0.91769  0.50424  0.24980  Biso   1.000  Co
  Co4      1.0000 0.41769  0.49576  0.25020  Biso   1.000  Co
  H1       1.0000 0.23980  0.53080  0.96470  Biso   1.000  H
  H2       1.0000 0.95110  0.05980  0.81680  Biso   1.000  H
  H3       1.0000 0.36470  0.77050  0.08880  Biso   1.000  H
  H4       1.0000 0.17990  0.31810  0.92150  Biso   1.000  H
  H5       1.0000 0.43780  0.85990  0.94660  Biso   1.000  H
  H6       1.0000 0.44880  0.91050  0.03500  Biso   1.000  H
  H7       1.0000 0.14500  0.62600  0.67770  Biso   1.000  H
  H8       1.0000 0.13500  0.71050  0.71920  Biso   1.000  H
  H9       1.0000 0.16490  0.18860  0.98340  Biso   1.000  H
  H10      1.0000 0.05320  0.99340  0.96070  Biso   1.000  H
  H11      1.0000 0.73980  0.46920  0.53530  Biso   1.000  H
  H12      1.0000 0.45110  0.94020  0.68320  Biso   1.000  H
  H13      1.0000 0.86470  0.22950  0.41120  Biso   1.000  H
  H14      1.0000 0.67990  0.68190  0.57850  Biso   1.000  H
  H15      1.0000 0.93780  0.14010  0.55340  Biso   1.000  H
  H16      1.0000 0.94880  0.08950  0.46500  Biso   1.000  H
  H17      1.0000 0.64500  0.37400  0.82230  Biso   1.000  H
  H18      1.0000 0.63500  0.28950  0.78080  Biso   1.000  H
  H19      1.0000 0.66490  0.81140  0.51660  Biso   1.000  H
  H20      1.0000 0.55320  0.00660  0.53930  Biso   1.000  H
  H21      1.0000 0.76020  0.46920  0.03530  Biso   1.000  H
  H22      1.0000 0.04890  0.94020  0.18320  Biso   1.000  H
  H23      1.0000 0.63530  0.22950  0.91120  Biso   1.000  H
  H24      1.0000 0.82010  0.68190  0.07850  Biso   1.000  H
  H25      1.0000 0.56220  0.14010  0.05340  Biso   1.000  H
  H26      1.0000 0.55120  0.08950  0.96500  Biso   1.000  H
  H27      1.0000 0.85500  0.37400  0.32230  Biso   1.000  H
  H28      1.0000 0.86500  0.28950  0.28080  Biso   1.000  H
  H29      1.0000 0.83510  0.81140  0.01660  Biso   1.000  H
  H30      1.0000 0.94680  0.00660  0.03930  Biso   1.000  H
  H31      1.0000 0.26020  0.53080  0.46470  Biso   1.000  H
  H32      1.0000 0.54890  0.05980  0.31680  Biso   1.000  H
  H33      1.0000 0.13530  0.77050  0.58880  Biso   1.000  H
  H34      1.0000 0.32010  0.31810  0.42150  Biso   1.000  H
  H35      1.0000 0.06220  0.85990  0.44660  Biso   1.000  H
  H36      1.0000 0.05120  0.91050  0.53500  Biso   1.000  H
  H37      1.0000 0.35500  0.62600  0.17770  Biso   1.000  H
  H38      1.0000 0.36500  0.71050  0.21920  Biso   1.000  H
  H39      1.0000 0.33510  0.18860  0.48340  Biso   1.000  H
  H40      1.0000 0.44680  0.99340  0.46070  Biso   1.000  H
  C1       1.0000 0.33350  0.65370  0.89028  Biso   1.000  C
  C2       1.0000 0.28340  0.60690  0.97893  Biso   1.000  C
  C3       1.0000 0.98910  0.00690  0.88683  Biso   1.000  C
  C4       1.0000 0.99490  0.08500  0.85015  Biso   1.000  C
  C5       1.0000 0.29470  0.63580  0.03203  Biso   1.000  C
  C6       1.0000 0.33660  0.69030  0.94668  Biso   1.000  C
  C7       1.0000 0.24210  0.54260  0.06577  Biso   1.000  C
  C8       1.0000 0.35720  0.75000  0.05316  Biso   1.000  C
  C9       1.0000 0.13150  0.24020  0.91302  Biso   1.000  C
  C10      1.0000 0.06660  0.20130  0.86345  Biso   1.000  C
  C11      1.0000 0.40050  0.80390  0.96800  Biso   1.000  C
  C12      1.0000 0.40850  0.83360  0.02081  Biso   1.000  C
  C13      1.0000 0.06920  0.28260  0.82503  Biso   1.000  C
  C14      1.0000 0.91150  0.88030  0.87382  Biso   1.000  C
  C15      1.0000 0.12410  0.16290  0.94977  Biso   1.000  C
  C16      1.0000 0.05510  0.04630  0.93609  Biso   1.000  C
  C17      1.0000 0.83350  0.34630  0.60972  Biso   1.000  C
  C18      1.0000 0.78340  0.39310  0.52107  Biso   1.000  C
  C19      1.0000 0.48910  0.99310  0.61317  Biso   1.000  C
  C20      1.0000 0.49490  0.91500  0.64985  Biso   1.000  C
  C21      1.0000 0.79470  0.36420  0.46797  Biso   1.000  C
  C22      1.0000 0.83660  0.30970  0.55332  Biso   1.000  C
  C23      1.0000 0.74210  0.45740  0.43423  Biso   1.000  C
  C24      1.0000 0.85720  0.25000  0.44684  Biso   1.000  C
  C25      1.0000 0.63150  0.75980  0.58698  Biso   1.000  C
  C26      1.0000 0.56660  0.79870  0.63655  Biso   1.000  C
  C27      1.0000 0.90050  0.19610  0.53200  Biso   1.000  C
  C28      1.0000 0.90850  0.16640  0.47919  Biso   1.000  C
  C29      1.0000 0.56920  0.71740  0.67497  Biso   1.000  C
  C30      1.0000 0.41150  0.11970  0.62618  Biso   1.000  C
  C31      1.0000 0.62410  0.83710  0.55023  Biso   1.000  C
  C32      1.0000 0.55510  0.95370  0.56391  Biso   1.000  C
  C33      1.0000 0.66650  0.34630  0.10972  Biso   1.000  C
  C34      1.0000 0.71660  0.39310  0.02107  Biso   1.000  C
  C35      1.0000 0.01090  0.99310  0.11317  Biso   1.000  C
  C36      1.0000 0.00510  0.91500  0.14985  Biso   1.000  C
  C37      1.0000 0.70530  0.36420  0.96797  Biso   1.000  C
  C38      1.0000 0.66340  0.30970  0.05332  Biso   1.000  C
  C39      1.0000 0.75790  0.45740  0.93423  Biso   1.000  C
  C40      1.0000 0.64280  0.25000  0.94684  Biso   1.000  C
  C41      1.0000 0.86850  0.75980  0.08698  Biso   1.000  C
  C42      1.0000 0.93340  0.79870  0.13655  Biso   1.000  C
  C43      1.0000 0.59950  0.19610  0.03200  Biso   1.000  C
  C44      1.0000 0.59150  0.16640  0.97919  Biso   1.000  C
  C45      1.0000 0.93080  0.71740  0.17497  Biso   1.000  C
  C46      1.0000 0.08850  0.11970  0.12618  Biso   1.000  C
  C47      1.0000 0.87590  0.83710  0.05023  Biso   1.000  C
  C48      1.0000 0.94490  0.95370  0.06391  Biso   1.000  C
  C49      1.0000 0.16650  0.65370  0.39028  Biso   1.000  C
  C50      1.0000 0.21660  0.60690  0.47893  Biso   1.000  C
  C51      1.0000 0.51090  0.00690  0.38683  Biso   1.000  C
  C52      1.0000 0.50510  0.08500  0.35015  Biso   1.000  C
  C53      1.0000 0.20530  0.63580  0.53203  Biso   1.000  C
  C54      1.0000 0.16340  0.69030  0.44668  Biso   1.000  C
  C55      1.0000 0.25790  0.54260  0.56577  Biso   1.000  C
  C56      1.0000 0.14280  0.75000  0.55316  Biso   1.000  C
  C57      1.0000 0.36850  0.24020  0.41302  Biso   1.000  C
  C58      1.0000 0.43340  0.20130  0.36345  Biso   1.000  C
  C59      1.0000 0.09950  0.80390  0.46800  Biso   1.000  C
  C60      1.0000 0.09150  0.83360  0.52081  Biso   1.000  C
  C61      1.0000 0.43080  0.28260  0.32503  Biso   1.000  C
  C62      1.0000 0.58850  0.88030  0.37382  Biso   1.000  C
  C63      1.0000 0.37590  0.16290  0.44977  Biso   1.000  C
  C64      1.0000 0.44490  0.04630  0.43609  Biso   1.000  C
  N1       1.0000 0.49010  0.64390  0.86052  Biso   1.000  N
  N2       1.0000 0.23920  0.58960  0.81401  Biso   1.000  N
  N3       1.0000 0.17580  0.62060  0.86236  Biso   1.000  N
  N4       1.0000 0.42490  0.60240  0.81274  Biso   1.000  N
  N5       1.0000 0.06960  0.34730  0.79484  Biso   1.000  N
  N6       1.0000 0.99010  0.35610  0.63948  Biso   1.000  N
  N7       1.0000 0.73920  0.41040  0.68599  Biso   1.000  N
  N8       1.0000 0.67580  0.37940  0.63764  Biso   1.000  N
  N9       1.0000 0.92490  0.39760  0.68726  Biso   1.000  N
  N10      1.0000 0.56960  0.65270  0.70516  Biso   1.000  N
  N11      1.0000 0.50990  0.35610  0.13948  Biso   1.000  N
  N12      1.0000 0.76080  0.41040  0.18599  Biso   1.000  N
  N13      1.0000 0.82420  0.37940  0.13764  Biso   1.000  N
  N14      1.0000 0.57510  0.39760  0.18726  Biso   1.000  N
  N15      1.0000 0.93040  0.65270  0.20516  Biso   1.000  N
  N16      1.0000 0.00990  0.64390  0.36052  Biso   1.000  N
  N17      1.0000 0.26080  0.58960  0.31401  Biso   1.000  N
  N18      1.0000 0.32420  0.62060  0.36236  Biso   1.000  N
  N19      1.0000 0.07510  0.60240  0.31274  Biso   1.000  N
  N20      1.0000 0.43040  0.34730  0.29484  Biso   1.000  N
  O1       1.0000 0.24240  0.57130  0.11430  Biso   1.000  O
  O2       1.0000 0.19790  0.43810  0.04587  Biso   1.000  O
  O3       1.0000 0.88620  0.83830  0.82703  Biso   1.000  O
  O4       1.0000 0.87850  0.82160  0.91049  Biso   1.000  O
  O5       1.0000 0.83410  0.57413  0.78440  Biso   1.000  O
  O6       1.0000 0.08980  0.64210  0.70683  Biso   1.000  O
  O7       1.0000 0.74240  0.42870  0.38570  Biso   1.000  O
  O8       1.0000 0.69790  0.56190  0.45413  Biso   1.000  O
  O9       1.0000 0.38620  0.16170  0.67297  Biso   1.000  O
  O10      1.0000 0.37850  0.17840  0.58951  Biso   1.000  O
  O11      1.0000 0.33410  0.42587  0.71560  Biso   1.000  O
  O12      1.0000 0.58980  0.35790  0.79317  Biso   1.000  O
  O13      1.0000 0.75760  0.42870  0.88570  Biso   1.000  O
  O14      1.0000 0.80210  0.56190  0.95413  Biso   1.000  O
  O15      1.0000 0.11380  0.16170  0.17297  Biso   1.000  O
  O16      1.0000 0.12150  0.17840  0.08951  Biso   1.000  O
  O17      1.0000 0.16590  0.42587  0.21560  Biso   1.000  O
  O18      1.0000 0.91020  0.35790  0.29317  Biso   1.000  O
  O19      1.0000 0.25760  0.57130  0.61430  Biso   1.000  O
  O20      1.0000 0.30210  0.43810  0.54587  Biso   1.000  O
  O21      1.0000 0.61380  0.83830  0.32703  Biso   1.000  O
  O22      1.0000 0.62150  0.82160  0.41049  Biso   1.000  O
  O23      1.0000 0.66590  0.57413  0.28440  Biso   1.000  O
  O24      1.0000 0.41020  0.64210  0.20683  Biso   1.000  O
