data_image0
_cell_length_a       12.946
_cell_length_b       17.321
_cell_length_c       22.153
_cell_angle_alpha    70.13
_cell_angle_beta     76.08
_cell_angle_gamma    73.31

_symmetry_space_group_name_H-M    "P 1"
_symmetry_int_tables_number       1

loop_
  _symmetry_equiv_pos_as_xyz
  'x, y, z'

loop_
  _atom_site_label
  _atom_site_occupancy
  _atom_site_fract_x
  _atom_site_fract_y
  _atom_site_fract_z
  _atom_site_thermal_displace_type
  _atom_site_B_iso_or_equiv
  _atom_site_type_symbol
  Cd1      1.0000 0.16515  0.54865  0.01310  Biso   1.000  Cd
  Cd2      1.0000 0.17809  0.73405  0.09075  Biso   1.000  Cd
  Cd3      1.0000 0.17465  0.77685  0.24808  Biso   1.000  Cd
  Cd4      1.0000 0.17631  0.81187  0.40831  Biso   1.000  Cd
  Cd5      1.0000 0.16746  0.00526  0.48319  Biso   1.000  Cd
  Cl1      1.0000 0.29231  0.62030  0.03149  Biso   1.000  Cl
  Cl2      1.0000 0.05532  0.83723  0.15491  Biso   1.000  Cl
  Cl3      1.0000 0.27952  0.70458  0.34725  Biso   1.000  Cl
  Cl4      1.0000 0.05536  0.91954  0.46810  Biso   1.000  Cl
  N1       1.0000 0.13990  0.63600  0.52520  Biso   1.000  N
  N2       1.0000 0.16310  0.71300  0.51100  Biso   1.000  N
  N3       1.0000 0.16280  0.65360  0.61430  Biso   1.000  N
  N4       1.0000 0.01680  0.62630  0.06500  Biso   1.000  N
  N5       1.0000 0.01590  0.68980  0.08880  Biso   1.000  N
  N6       1.0000 0.84740  0.68190  0.09780  Biso   1.000  N
  N7       1.0000 0.18740  0.62420  0.19030  Biso   1.000  N
  N8       1.0000 0.17370  0.64280  0.24740  Biso   1.000  N
  N9       1.0000 0.17300  0.51040  0.27020  Biso   1.000  N
  N10      1.0000 0.18090  0.90940  0.25050  Biso   1.000  N
  N11      1.0000 0.17910  0.92530  0.30730  Biso   1.000  N
  N12      1.0000 0.17950  0.04240  0.22800  Biso   1.000  N
  N13      1.0000 0.01120  0.80280  0.38150  Biso   1.000  N
  N14      1.0000 0.01170  0.79230  0.32220  Biso   1.000  N
  N15      1.0000 0.84270  0.81810  0.37190  Biso   1.000  N
  N16      1.0000 0.14090  0.91930  0.97950  Biso   1.000  N
  N17      1.0000 0.15910  0.83250  0.99190  Biso   1.000  N
  N18      1.0000 0.15830  0.89020  0.88820  Biso   1.000  N
  C1       1.0000 0.14200  0.60320  0.58630  Biso   1.000  C
  H1       1.0000 0.13030  0.54960  0.60910  Biso   1.000  H
  C2       1.0000 0.17610  0.72220  0.56310  Biso   1.000  C
  H2       1.0000 0.19260  0.76970  0.56570  Biso   1.000  H
  C3       1.0000 0.16730  0.63880  0.68210  Biso   1.000  C
  C4       1.0000 0.12520  0.70380  0.70970  Biso   1.000  C
  H3       1.0000 0.09600  0.75730  0.68420  Biso   1.000  H
  C5       1.0000 0.12580  0.69050  0.77440  Biso   1.000  C
  H4       1.0000 0.09610  0.73440  0.79300  Biso   1.000  H
  C6       1.0000 0.17140  0.61030  0.81180  Biso   1.000  C
  C7       1.0000 0.21380  0.54520  0.78320  Biso   1.000  C
  H5       1.0000 0.24390  0.49160  0.80800  Biso   1.000  H
  C8       1.0000 0.21140  0.55980  0.71810  Biso   1.000  C
  H6       1.0000 0.23960  0.51630  0.69900  Biso   1.000  H
  C9       1.0000 0.17260  0.59430  0.88300  Biso   1.000  C
  C10      1.0000 0.91520  0.62160  0.07120  Biso   1.000  C
  H7       1.0000 0.89300  0.58300  0.05920  Biso   1.000  H
  C11      1.0000 0.91450  0.72180  0.10820  Biso   1.000  C
  H8       1.0000 0.89120  0.76590  0.12680  Biso   1.000  H
  C12      1.0000 0.72990  0.70080  0.10780  Biso   1.000  C
  C13      1.0000 0.67220  0.70510  0.16680  Biso   1.000  C
  H9       1.0000 0.70780  0.69500  0.20140  Biso   1.000  H
  C14      1.0000 0.55920  0.72470  0.17470  Biso   1.000  C
  H10      1.0000 0.51850  0.72890  0.21460  Biso   1.000  H
  C15      1.0000 0.50650  0.73790  0.12360  Biso   1.000  C
  C16      1.0000 0.56830  0.72420  0.06760  Biso   1.000  C
  H11      1.0000 0.53370  0.72460  0.03520  Biso   1.000  H
  C17      1.0000 0.68030  0.70980  0.05740  Biso   1.000  C
  H12      1.0000 0.72100  0.70630  0.01730  Biso   1.000  H
  C18      1.0000 0.38230  0.75760  0.13360  Biso   1.000  C
  C19      1.0000 0.18720  0.54520  0.20400  Biso   1.000  C
  H13      1.0000 0.19540  0.51670  0.17380  Biso   1.000  H
  C20      1.0000 0.16560  0.57390  0.29470  Biso   1.000  C
  H14      1.0000 0.15620  0.56910  0.33870  Biso   1.000  H
  C21      1.0000 0.16680  0.42470  0.30600  Biso   1.000  C
  C22      1.0000 0.19840  0.39040  0.36580  Biso   1.000  C
  H15      1.0000 0.22030  0.42260  0.38440  Biso   1.000  H
  C23      1.0000 0.19710  0.30590  0.39870  Biso   1.000  C
  H16      1.0000 0.21990  0.28140  0.43910  Biso   1.000  H
  C24      1.0000 0.16280  0.25920  0.37230  Biso   1.000  C
  C25      1.0000 0.12740  0.29580  0.31260  Biso   1.000  C
  H17      1.0000 0.10320  0.26420  0.29440  Biso   1.000  H
  C26      1.0000 0.12800  0.37930  0.28010  Biso   1.000  C
  H18      1.0000 0.10220  0.40470  0.24060  Biso   1.000  H
  C27      1.0000 0.16430  0.16770  0.40720  Biso   1.000  C
  C28      1.0000 0.17870  0.00530  0.29300  Biso   1.000  C
  H19      1.0000 0.17790  0.03260  0.32280  Biso   1.000  H
  C29      1.0000 0.18010  0.98020  0.20350  Biso   1.000  C
  H20      1.0000 0.18000  0.98680  0.16010  Biso   1.000  H
  C30      1.0000 0.17590  0.12970  0.19300  Biso   1.000  C
  C31      1.0000 0.11030  0.16880  0.14650  Biso   1.000  C
  H21      1.0000 0.06840  0.13940  0.13780  Biso   1.000  H
  C32      1.0000 0.10670  0.25310  0.11240  Biso   1.000  C
  H22      1.0000 0.06250  0.28010  0.08040  Biso   1.000  H
  C33      1.0000 0.16800  0.29710  0.12540  Biso   1.000  C
  C34      1.0000 0.23520  0.25500  0.17240  Biso   1.000  C
  H23      1.0000 0.27740  0.28380  0.18150  Biso   1.000  H
  C35      1.0000 0.24030  0.17080  0.20600  Biso   1.000  C
  H24      1.0000 0.28650  0.14270  0.23690  Biso   1.000  H
  C36      1.0000 0.15980  0.39050  0.09040  Biso   1.000  C
  C37      1.0000 0.90740  0.80330  0.31780  Biso   1.000  C
  H25      1.0000 0.88290  0.80100  0.28250  Biso   1.000  H
  C38      1.0000 0.91180  0.81750  0.40980  Biso   1.000  C
  H26      1.0000 0.88990  0.82650  0.45050  Biso   1.000  H
  C39      1.0000 0.72500  0.83250  0.38650  Biso   1.000  C
  C40      1.0000 0.66910  0.88980  0.41920  Biso   1.000  C
  H27      1.0000 0.70680  0.91780  0.43250  Biso   1.000  H
  C41      1.0000 0.55650  0.90620  0.43240  Biso   1.000  C
  H28      1.0000 0.51810  0.94510  0.45470  Biso   1.000  H
  C42      1.0000 0.50070  0.86400  0.41200  Biso   1.000  C
  C43      1.0000 0.55840  0.80740  0.37770  Biso   1.000  C
  H29      1.0000 0.52090  0.78070  0.36290  Biso   1.000  H
  C44      1.0000 0.67210  0.78980  0.36490  Biso   1.000  C
  H30      1.0000 0.71130  0.75080  0.34270  Biso   1.000  H
  C45      1.0000 0.37730  0.88360  0.42440  Biso   1.000  C
  C46      1.0000 0.14020  0.95040  0.91860  Biso   1.000  C
  H31      1.0000 0.12870  0.00780  0.89720  Biso   1.000  H
  C47      1.0000 0.16760  0.81780  0.93780  Biso   1.000  C
  H32      1.0000 0.17870  0.76450  0.93330  Biso   1.000  H
  C48      1.0000 0.16970  0.89850  0.82070  Biso   1.000  C
  C49      1.0000 0.10500  0.96660  0.78180  Biso   1.000  C
  H33      1.0000 0.05340  0.00630  0.79950  Biso   1.000  H
  C50      1.0000 0.11910  0.97440  0.71600  Biso   1.000  C
  H34      1.0000 0.07880  0.02100  0.68880  Biso   1.000  H
  C51      1.0000 0.19200  0.91360  0.69080  Biso   1.000  C
  C52      1.0000 0.25510  0.84490  0.73090  Biso   1.000  C
  H35      1.0000 0.30410  0.80370  0.71370  Biso   1.000  H
  C53      1.0000 0.24520  0.83760  0.79580  Biso   1.000  C
  H36      1.0000 0.28850  0.79260  0.82240  Biso   1.000  H
  C54      1.0000 0.20580  0.91990  0.61950  Biso   1.000  C
  O1       1.0000 0.20250  0.51960  0.91680  Biso   1.000  O
  O2       1.0000 0.14360  0.65480  0.90630  Biso   1.000  O
  O3       1.0000 0.34140  0.75600  0.08880  Biso   1.000  O
  O4       1.0000 0.33600  0.77290  0.18380  Biso   1.000  O
  O5       1.0000 0.19730  0.13740  0.46150  Biso   1.000  O
  O6       1.0000 0.13570  0.12480  0.38170  Biso   1.000  O
  O7       1.0000 0.21420  0.42830  0.10360  Biso   1.000  O
  O8       1.0000 0.09800  0.42470  0.04920  Biso   1.000  O
  O9       1.0000 0.33330  0.82970  0.42310  Biso   1.000  O
  O10      1.0000 0.33100  0.95350  0.43410  Biso   1.000  O
  O11      1.0000 0.24420  0.85700  0.60020  Biso   1.000  O
  O12      1.0000 0.17160  0.99370  0.58370  Biso   1.000  O
  Cd6      1.0000 0.83485  0.45135  0.98690  Biso   1.000  Cd
  Cd7      1.0000 0.82191  0.26595  0.90925  Biso   1.000  Cd
  Cd8      1.0000 0.82535  0.22315  0.75192  Biso   1.000  Cd
  Cd9      1.0000 0.82369  0.18813  0.59169  Biso   1.000  Cd
  Cd10     1.0000 0.83254  0.99474  0.51681  Biso   1.000  Cd
  Cl5      1.0000 0.70769  0.37970  0.96851  Biso   1.000  Cl
  Cl6      1.0000 0.94468  0.16277  0.84509  Biso   1.000  Cl
  Cl7      1.0000 0.72048  0.29542  0.65275  Biso   1.000  Cl
  Cl8      1.0000 0.94464  0.08046  0.53190  Biso   1.000  Cl
  N19      1.0000 0.86010  0.36400  0.47480  Biso   1.000  N
  N20      1.0000 0.83690  0.28700  0.48900  Biso   1.000  N
  N21      1.0000 0.83720  0.34640  0.38570  Biso   1.000  N
  N22      1.0000 0.98320  0.37370  0.93500  Biso   1.000  N
  N23      1.0000 0.98410  0.31020  0.91120  Biso   1.000  N
  N24      1.0000 0.15260  0.31810  0.90220  Biso   1.000  N
  N25      1.0000 0.81260  0.37580  0.80970  Biso   1.000  N
  N26      1.0000 0.82630  0.35720  0.75260  Biso   1.000  N
  N27      1.0000 0.82700  0.48960  0.72980  Biso   1.000  N
  N28      1.0000 0.81910  0.09060  0.74950  Biso   1.000  N
  N29      1.0000 0.82090  0.07470  0.69270  Biso   1.000  N
  N30      1.0000 0.82050  0.95760  0.77200  Biso   1.000  N
  N31      1.0000 0.98880  0.19720  0.61850  Biso   1.000  N
  N32      1.0000 0.98830  0.20770  0.67780  Biso   1.000  N
  N33      1.0000 0.15730  0.18190  0.62810  Biso   1.000  N
  N34      1.0000 0.85910  0.08070  0.02050  Biso   1.000  N
  N35      1.0000 0.84090  0.16750  0.00810  Biso   1.000  N
  N36      1.0000 0.84170  0.10980  0.11180  Biso   1.000  N
  C55      1.0000 0.85800  0.39680  0.41370  Biso   1.000  C
  H37      1.0000 0.86970  0.45040  0.39090  Biso   1.000  H
  C56      1.0000 0.82390  0.27780  0.43690  Biso   1.000  C
  H38      1.0000 0.80740  0.23030  0.43430  Biso   1.000  H
  C57      1.0000 0.83270  0.36120  0.31790  Biso   1.000  C
  C58      1.0000 0.87480  0.29620  0.29030  Biso   1.000  C
  H39      1.0000 0.90400  0.24270  0.31580  Biso   1.000  H
  C59      1.0000 0.87420  0.30950  0.22560  Biso   1.000  C
  H40      1.0000 0.90390  0.26560  0.20700  Biso   1.000  H
  C60      1.0000 0.82860  0.38970  0.18820  Biso   1.000  C
  C61      1.0000 0.78620  0.45480  0.21680  Biso   1.000  C
  H41      1.0000 0.75610  0.50840  0.19200  Biso   1.000  H
  C62      1.0000 0.78860  0.44020  0.28190  Biso   1.000  C
  H42      1.0000 0.76040  0.48370  0.30100  Biso   1.000  H
  C63      1.0000 0.82740  0.40570  0.11700  Biso   1.000  C
  C64      1.0000 0.08480  0.37840  0.92880  Biso   1.000  C
  H43      1.0000 0.10700  0.41700  0.94080  Biso   1.000  H
  C65      1.0000 0.08550  0.27820  0.89180  Biso   1.000  C
  H44      1.0000 0.10880  0.23410  0.87320  Biso   1.000  H
  C66      1.0000 0.27010  0.29920  0.89220  Biso   1.000  C
  C67      1.0000 0.32780  0.29490  0.83320  Biso   1.000  C
  H45      1.0000 0.29220  0.30500  0.79860  Biso   1.000  H
  C68      1.0000 0.44080  0.27530  0.82530  Biso   1.000  C
  H46      1.0000 0.48150  0.27110  0.78540  Biso   1.000  H
  C69      1.0000 0.49350  0.26210  0.87640  Biso   1.000  C
  C70      1.0000 0.43170  0.27580  0.93240  Biso   1.000  C
  H47      1.0000 0.46630  0.27540  0.96480  Biso   1.000  H
  C71      1.0000 0.31970  0.29020  0.94260  Biso   1.000  C
  H48      1.0000 0.27900  0.29370  0.98270  Biso   1.000  H
  C72      1.0000 0.61770  0.24240  0.86640  Biso   1.000  C
  C73      1.0000 0.81280  0.45480  0.79600  Biso   1.000  C
  H49      1.0000 0.80460  0.48330  0.82620  Biso   1.000  H
  C74      1.0000 0.83440  0.42610  0.70530  Biso   1.000  C
  H50      1.0000 0.84380  0.43090  0.66130  Biso   1.000  H
  C75      1.0000 0.83320  0.57530  0.69400  Biso   1.000  C
  C76      1.0000 0.80160  0.60960  0.63420  Biso   1.000  C
  H51      1.0000 0.77970  0.57740  0.61560  Biso   1.000  H
  C77      1.0000 0.80290  0.69410  0.60130  Biso   1.000  C
  H52      1.0000 0.78010  0.71860  0.56090  Biso   1.000  H
  C78      1.0000 0.83720  0.74080  0.62770  Biso   1.000  C
  C79      1.0000 0.87260  0.70420  0.68740  Biso   1.000  C
  H53      1.0000 0.89680  0.73580  0.70560  Biso   1.000  H
  C80      1.0000 0.87200  0.62070  0.71990  Biso   1.000  C
  H54      1.0000 0.89780  0.59530  0.75940  Biso   1.000  H
  C81      1.0000 0.83570  0.83230  0.59280  Biso   1.000  C
  C82      1.0000 0.82130  0.99470  0.70700  Biso   1.000  C
  H55      1.0000 0.82210  0.96740  0.67720  Biso   1.000  H
  C83      1.0000 0.81990  0.01980  0.79650  Biso   1.000  C
  H56      1.0000 0.82000  0.01320  0.83990  Biso   1.000  H
  C84      1.0000 0.82410  0.87030  0.80700  Biso   1.000  C
  C85      1.0000 0.88970  0.83120  0.85350  Biso   1.000  C
  H57      1.0000 0.93160  0.86060  0.86220  Biso   1.000  H
  C86      1.0000 0.89330  0.74690  0.88760  Biso   1.000  C
  H58      1.0000 0.93750  0.71990  0.91960  Biso   1.000  H
  C87      1.0000 0.83200  0.70290  0.87460  Biso   1.000  C
  C88      1.0000 0.76480  0.74500  0.82760  Biso   1.000  C
  H59      1.0000 0.72260  0.71620  0.81850  Biso   1.000  H
  C89      1.0000 0.75970  0.82920  0.79400  Biso   1.000  C
  H60      1.0000 0.71350  0.85730  0.76310  Biso   1.000  H
  C90      1.0000 0.84020  0.60950  0.90960  Biso   1.000  C
  C91      1.0000 0.09260  0.19670  0.68220  Biso   1.000  C
  H61      1.0000 0.11710  0.19900  0.71750  Biso   1.000  H
  C92      1.0000 0.08820  0.18250  0.59020  Biso   1.000  C
  H62      1.0000 0.11010  0.17350  0.54950  Biso   1.000  H
  C93      1.0000 0.27500  0.16750  0.61350  Biso   1.000  C
  C94      1.0000 0.33090  0.11020  0.58080  Biso   1.000  C
  H63      1.0000 0.29320  0.08220  0.56750  Biso   1.000  H
  C95      1.0000 0.44350  0.09380  0.56760  Biso   1.000  C
  H64      1.0000 0.48190  0.05490  0.54530  Biso   1.000  H
  C96      1.0000 0.49930  0.13600  0.58800  Biso   1.000  C
  C97      1.0000 0.44160  0.19260  0.62230  Biso   1.000  C
  H65      1.0000 0.47910  0.21930  0.63710  Biso   1.000  H
  C98      1.0000 0.32790  0.21020  0.63510  Biso   1.000  C
  H66      1.0000 0.28870  0.24920  0.65730  Biso   1.000  H
  C99      1.0000 0.62270  0.11640  0.57560  Biso   1.000  C
  C100     1.0000 0.85980  0.04960  0.08140  Biso   1.000  C
  H67      1.0000 0.87130  0.99220  0.10280  Biso   1.000  H
  C101     1.0000 0.83240  0.18220  0.06220  Biso   1.000  C
  H68      1.0000 0.82130  0.23550  0.06670  Biso   1.000  H
  C102     1.0000 0.83030  0.10150  0.17930  Biso   1.000  C
  C103     1.0000 0.89500  0.03340  0.21820  Biso   1.000  C
  H69      1.0000 0.94660  0.99370  0.20050  Biso   1.000  H
  C104     1.0000 0.88090  0.02560  0.28400  Biso   1.000  C
  H70      1.0000 0.92120  0.97900  0.31120  Biso   1.000  H
  C105     1.0000 0.80800  0.08640  0.30920  Biso   1.000  C
  C106     1.0000 0.74490  0.15510  0.26910  Biso   1.000  C
  H71      1.0000 0.69590  0.19630  0.28630  Biso   1.000  H
  C107     1.0000 0.75480  0.16240  0.20420  Biso   1.000  C
  H72      1.0000 0.71150  0.20740  0.17760  Biso   1.000  H
  C108     1.0000 0.79420  0.08010  0.38050  Biso   1.000  C
  O13      1.0000 0.79750  0.48040  0.08320  Biso   1.000  O
  O14      1.0000 0.85640  0.34520  0.09370  Biso   1.000  O
  O15      1.0000 0.65860  0.24400  0.91120  Biso   1.000  O
  O16      1.0000 0.66400  0.22710  0.81620  Biso   1.000  O
  O17      1.0000 0.80270  0.86260  0.53850  Biso   1.000  O
  O18      1.0000 0.86430  0.87520  0.61830  Biso   1.000  O
  O19      1.0000 0.78580  0.57170  0.89640  Biso   1.000  O
  O20      1.0000 0.90200  0.57530  0.95080  Biso   1.000  O
  O21      1.0000 0.66670  0.17030  0.57690  Biso   1.000  O
  O22      1.0000 0.66900  0.04650  0.56590  Biso   1.000  O
  O23      1.0000 0.75580  0.14300  0.39980  Biso   1.000  O
  O24      1.0000 0.82840  0.00630  0.41630  Biso   1.000  O
