data_image0
_cell_length_a       17.3884
_cell_length_b       17.3884
_cell_length_c       17.3884
_cell_angle_alpha    65.3544
_cell_angle_beta     65.3544
_cell_angle_gamma    65.3544

_symmetry_space_group_name_H-M    P 1
_symmetry_int_tables_number       1

loop_
  _symmetry_equiv_pos_as_xyz
  'x, y, z'

loop_
  _atom_site_label
  _atom_site_occupancy
  _atom_site_fract_x
  _atom_site_fract_y
  _atom_site_fract_z
  _atom_site_thermal_displace_type
  _atom_site_B_iso_or_equiv
  _atom_site_type_symbol
  Cu1      1.0000 0.57302  0.00388  0.00388  Biso   1.000  Cu
  Cu2      1.0000 0.00388  0.57302  0.00388  Biso   1.000  Cu
  Cu3      1.0000 0.00388  0.00388  0.57302  Biso   1.000  Cu
  Cu4      1.0000 0.99612  0.42698  0.99612  Biso   1.000  Cu
  Cu5      1.0000 0.42698  0.99612  0.99612  Biso   1.000  Cu
  Cu6      1.0000 0.99612  0.99612  0.42698  Biso   1.000  Cu
  H1       1.0000 0.50640  0.72100  0.02020  Biso   1.000  H
  H2       1.0000 0.02020  0.50640  0.72100  Biso   1.000  H
  H3       1.0000 0.72100  0.02020  0.50640  Biso   1.000  H
  H4       1.0000 0.27900  0.49360  0.97980  Biso   1.000  H
  H5       1.0000 0.49360  0.97980  0.27900  Biso   1.000  H
  H6       1.0000 0.97980  0.27900  0.49360  Biso   1.000  H
  H7       1.0000 0.49360  0.27900  0.97980  Biso   1.000  H
  H8       1.0000 0.97980  0.49360  0.27900  Biso   1.000  H
  H9       1.0000 0.27900  0.97980  0.49360  Biso   1.000  H
  H10      1.0000 0.72100  0.50640  0.02020  Biso   1.000  H
  H11      1.0000 0.50640  0.02020  0.72100  Biso   1.000  H
  H12      1.0000 0.02020  0.72100  0.50640  Biso   1.000  H
  H13      1.0000 0.73050  0.73050  0.02780  Biso   1.000  H
  H14      1.0000 0.02780  0.73050  0.73050  Biso   1.000  H
  H15      1.0000 0.73050  0.02780  0.73050  Biso   1.000  H
  H16      1.0000 0.26950  0.26950  0.97220  Biso   1.000  H
  H17      1.0000 0.26950  0.97220  0.26950  Biso   1.000  H
  H18      1.0000 0.97220  0.26950  0.26950  Biso   1.000  H
  C1       1.0000 0.61175  0.74055  0.02475  Biso   1.000  C
  C2       1.0000 0.56483  0.69393  0.02133  Biso   1.000  C
  C3       1.0000 0.56902  0.83642  0.02102  Biso   1.000  C
  C4       1.0000 0.02475  0.61175  0.74055  Biso   1.000  C
  C5       1.0000 0.02133  0.56483  0.69393  Biso   1.000  C
  C6       1.0000 0.02102  0.56902  0.83642  Biso   1.000  C
  C7       1.0000 0.74055  0.02475  0.61175  Biso   1.000  C
  C8       1.0000 0.69393  0.02133  0.56483  Biso   1.000  C
  C9       1.0000 0.83642  0.02102  0.56902  Biso   1.000  C
  C10      1.0000 0.25945  0.38825  0.97525  Biso   1.000  C
  C11      1.0000 0.30607  0.43517  0.97867  Biso   1.000  C
  C12      1.0000 0.16358  0.43098  0.97898  Biso   1.000  C
  C13      1.0000 0.38825  0.97525  0.25945  Biso   1.000  C
  C14      1.0000 0.43517  0.97867  0.30607  Biso   1.000  C
  C15      1.0000 0.43098  0.97898  0.16358  Biso   1.000  C
  C16      1.0000 0.97525  0.25945  0.38825  Biso   1.000  C
  C17      1.0000 0.97867  0.30607  0.43517  Biso   1.000  C
  C18      1.0000 0.97898  0.16358  0.43098  Biso   1.000  C
  C19      1.0000 0.38825  0.25945  0.97525  Biso   1.000  C
  C20      1.0000 0.43517  0.30607  0.97867  Biso   1.000  C
  C21      1.0000 0.43098  0.16358  0.97898  Biso   1.000  C
  C22      1.0000 0.97525  0.38825  0.25945  Biso   1.000  C
  C23      1.0000 0.97867  0.43517  0.30607  Biso   1.000  C
  C24      1.0000 0.97898  0.43098  0.16358  Biso   1.000  C
  C25      1.0000 0.25945  0.97525  0.38825  Biso   1.000  C
  C26      1.0000 0.30607  0.97867  0.43517  Biso   1.000  C
  C27      1.0000 0.16358  0.97898  0.43098  Biso   1.000  C
  C28      1.0000 0.74055  0.61175  0.02475  Biso   1.000  C
  C29      1.0000 0.69393  0.56483  0.02133  Biso   1.000  C
  C30      1.0000 0.83642  0.56902  0.02102  Biso   1.000  C
  C31      1.0000 0.61175  0.02475  0.74055  Biso   1.000  C
  C32      1.0000 0.56483  0.02133  0.69393  Biso   1.000  C
  C33      1.0000 0.56902  0.02102  0.83642  Biso   1.000  C
  C34      1.0000 0.02475  0.74055  0.61175  Biso   1.000  C
  C35      1.0000 0.02133  0.69393  0.56483  Biso   1.000  C
  C36      1.0000 0.02102  0.83642  0.56902  Biso   1.000  C
  C37      1.0000 0.56020  0.56020  0.01410  Biso   1.000  C
  C38      1.0000 0.52260  0.52260  0.00470  Biso   1.000  C
  C39      1.0000 0.69922  0.69922  0.02607  Biso   1.000  C
  C40      1.0000 0.60640  0.60640  0.01965  Biso   1.000  C
  C41      1.0000 0.01410  0.56020  0.56020  Biso   1.000  C
  C42      1.0000 0.00470  0.52260  0.52260  Biso   1.000  C
  C43      1.0000 0.02607  0.69922  0.69922  Biso   1.000  C
  C44      1.0000 0.01965  0.60640  0.60640  Biso   1.000  C
  C45      1.0000 0.56020  0.01410  0.56020  Biso   1.000  C
  C46      1.0000 0.52260  0.00470  0.52260  Biso   1.000  C
  C47      1.0000 0.69922  0.02607  0.69922  Biso   1.000  C
  C48      1.0000 0.60640  0.01965  0.60640  Biso   1.000  C
  C49      1.0000 0.43980  0.43980  0.98590  Biso   1.000  C
  C50      1.0000 0.47740  0.47740  0.99530  Biso   1.000  C
  C51      1.0000 0.30078  0.30078  0.97393  Biso   1.000  C
  C52      1.0000 0.39360  0.39360  0.98035  Biso   1.000  C
  C53      1.0000 0.43980  0.98590  0.43980  Biso   1.000  C
  C54      1.0000 0.47740  0.99530  0.47740  Biso   1.000  C
  C55      1.0000 0.30078  0.97393  0.30078  Biso   1.000  C
  C56      1.0000 0.39360  0.98035  0.39360  Biso   1.000  C
  C57      1.0000 0.98590  0.43980  0.43980  Biso   1.000  C
  C58      1.0000 0.99530  0.47740  0.47740  Biso   1.000  C
  C59      1.0000 0.97393  0.30078  0.30078  Biso   1.000  C
  C60      1.0000 0.98035  0.39360  0.39360  Biso   1.000  C
  O1       1.0000 0.61482  0.87616  0.02134  Biso   1.000  O
  O2       1.0000 0.49165  0.86961  0.01558  Biso   1.000  O
  O3       1.0000 0.02134  0.61482  0.87616  Biso   1.000  O
  O4       1.0000 0.01558  0.49165  0.86961  Biso   1.000  O
  O5       1.0000 0.87616  0.02134  0.61482  Biso   1.000  O
  O6       1.0000 0.86961  0.01558  0.49165  Biso   1.000  O
  O7       1.0000 0.12384  0.38518  0.97866  Biso   1.000  O
  O8       1.0000 0.13039  0.50835  0.98442  Biso   1.000  O
  O9       1.0000 0.38518  0.97866  0.12384  Biso   1.000  O
  O10      1.0000 0.50835  0.98442  0.13039  Biso   1.000  O
  O11      1.0000 0.97866  0.12384  0.38518  Biso   1.000  O
  O12      1.0000 0.98442  0.13039  0.50835  Biso   1.000  O
  O13      1.0000 0.38518  0.12384  0.97866  Biso   1.000  O
  O14      1.0000 0.50835  0.13039  0.98442  Biso   1.000  O
  O15      1.0000 0.97866  0.38518  0.12384  Biso   1.000  O
  O16      1.0000 0.98442  0.50835  0.13039  Biso   1.000  O
  O17      1.0000 0.12384  0.97866  0.38518  Biso   1.000  O
  O18      1.0000 0.13039  0.98442  0.50835  Biso   1.000  O
  O19      1.0000 0.87616  0.61482  0.02134  Biso   1.000  O
  O20      1.0000 0.86961  0.49165  0.01558  Biso   1.000  O
  O21      1.0000 0.61482  0.02134  0.87616  Biso   1.000  O
  O22      1.0000 0.49165  0.01558  0.86961  Biso   1.000  O
  O23      1.0000 0.02134  0.87616  0.61482  Biso   1.000  O
  O24      1.0000 0.01558  0.86961  0.49165  Biso   1.000  O
  O25      1.0000 0.68452  0.01557  0.01557  Biso   1.000  O
  O26      1.0000 0.01557  0.68452  0.01557  Biso   1.000  O
  O27      1.0000 0.01557  0.01557  0.68452  Biso   1.000  O
  O28      1.0000 0.98443  0.31548  0.98443  Biso   1.000  O
  O29      1.0000 0.31548  0.98443  0.98443  Biso   1.000  O
  O30      1.0000 0.98443  0.98443  0.31548  Biso   1.000  O
