data_image0
_cell_length_a       12.914
_cell_length_b       12.914
_cell_length_c       14.765
_cell_angle_alpha    91.5224
_cell_angle_beta     91.5224
_cell_angle_gamma    90.3576

_symmetry_space_group_name_H-M    P 1
_symmetry_int_tables_number       1

loop_
  _symmetry_equiv_pos_as_xyz
  'x, y, z'

loop_
  _atom_site_label
  _atom_site_occupancy
  _atom_site_fract_x
  _atom_site_fract_y
  _atom_site_fract_z
  _atom_site_thermal_displace_type
  _atom_site_B_iso_or_equiv
  _atom_site_type_symbol
  Zn1      1.0000 0.06584  0.58884  0.77449  Biso   1.000  Zn
  Zn2      1.0000 0.41116  0.93416  0.72551  Biso   1.000  Zn
  Zn3      1.0000 0.93416  0.41116  0.22551  Biso   1.000  Zn
  Zn4      1.0000 0.58884  0.06584  0.27449  Biso   1.000  Zn
  Zn5      1.0000 0.61826  0.38174  0.75000  Biso   1.000  Zn
  Zn6      1.0000 0.38174  0.61826  0.25000  Biso   1.000  Zn
  H1       1.0000 0.84200  0.55600  0.50900  Biso   1.000  H
  H2       1.0000 0.76790  0.47630  0.09290  Biso   1.000  H
  H3       1.0000 0.73530  0.49610  0.94380  Biso   1.000  H
  H4       1.0000 0.00420  0.36100  0.89030  Biso   1.000  H
  H5       1.0000 0.03100  0.34260  0.04320  Biso   1.000  H
  H6       1.0000 0.45290  0.46870  0.62500  Biso   1.000  H
  H7       1.0000 0.32070  0.58630  0.62460  Biso   1.000  H
  H8       1.0000 0.12330  0.41710  0.64410  Biso   1.000  H
  H9       1.0000 0.26780  0.19400  0.61840  Biso   1.000  H
  H10      1.0000 0.15420  0.22620  0.59240  Biso   1.000  H
  H11      1.0000 0.24820  0.29020  0.55790  Biso   1.000  H
  H12      1.0000 0.32200  0.22660  0.74650  Biso   1.000  H
  H13      1.0000 0.33620  0.34380  0.77470  Biso   1.000  H
  H14      1.0000 0.24580  0.27900  0.81450  Biso   1.000  H
  H15      1.0000 0.44400  0.15800  0.99100  Biso   1.000  H
  H16      1.0000 0.52370  0.23210  0.40710  Biso   1.000  H
  H17      1.0000 0.50390  0.26470  0.55620  Biso   1.000  H
  H18      1.0000 0.63900  0.99580  0.60970  Biso   1.000  H
  H19      1.0000 0.65740  0.96900  0.45680  Biso   1.000  H
  H20      1.0000 0.53130  0.54710  0.87500  Biso   1.000  H
  H21      1.0000 0.41370  0.67930  0.87540  Biso   1.000  H
  H22      1.0000 0.58290  0.87670  0.85590  Biso   1.000  H
  H23      1.0000 0.80600  0.73220  0.88160  Biso   1.000  H
  H24      1.0000 0.77380  0.84580  0.90760  Biso   1.000  H
  H25      1.0000 0.70980  0.75180  0.94210  Biso   1.000  H
  H26      1.0000 0.77340  0.67800  0.75350  Biso   1.000  H
  H27      1.0000 0.65620  0.66380  0.72530  Biso   1.000  H
  H28      1.0000 0.72100  0.75420  0.68550  Biso   1.000  H
  H29      1.0000 0.15800  0.44400  0.49100  Biso   1.000  H
  H30      1.0000 0.23210  0.52370  0.90710  Biso   1.000  H
  H31      1.0000 0.26470  0.50390  0.05620  Biso   1.000  H
  H32      1.0000 0.99580  0.63900  0.10970  Biso   1.000  H
  H33      1.0000 0.96900  0.65740  0.95680  Biso   1.000  H
  H34      1.0000 0.54710  0.53130  0.37500  Biso   1.000  H
  H35      1.0000 0.67930  0.41370  0.37540  Biso   1.000  H
  H36      1.0000 0.87670  0.58290  0.35590  Biso   1.000  H
  H37      1.0000 0.73220  0.80600  0.38160  Biso   1.000  H
  H38      1.0000 0.84580  0.77380  0.40760  Biso   1.000  H
  H39      1.0000 0.75180  0.70980  0.44210  Biso   1.000  H
  H40      1.0000 0.67800  0.77340  0.25350  Biso   1.000  H
  H41      1.0000 0.66380  0.65620  0.22530  Biso   1.000  H
  H42      1.0000 0.75420  0.72100  0.18550  Biso   1.000  H
  H43      1.0000 0.55600  0.84200  0.00900  Biso   1.000  H
  H44      1.0000 0.47630  0.76790  0.59290  Biso   1.000  H
  H45      1.0000 0.49610  0.73530  0.44380  Biso   1.000  H
  H46      1.0000 0.36100  0.00420  0.39030  Biso   1.000  H
  H47      1.0000 0.34260  0.03100  0.54320  Biso   1.000  H
  H48      1.0000 0.46870  0.45290  0.12500  Biso   1.000  H
  H49      1.0000 0.58630  0.32070  0.12460  Biso   1.000  H
  H50      1.0000 0.41710  0.12330  0.14410  Biso   1.000  H
  H51      1.0000 0.19400  0.26780  0.11840  Biso   1.000  H
  H52      1.0000 0.22620  0.15420  0.09240  Biso   1.000  H
  H53      1.0000 0.29020  0.24820  0.05790  Biso   1.000  H
  H54      1.0000 0.22660  0.32200  0.24650  Biso   1.000  H
  H55      1.0000 0.34380  0.33620  0.27470  Biso   1.000  H
  H56      1.0000 0.27900  0.24580  0.31450  Biso   1.000  H
  H57      1.0000 0.03700  0.96300  0.75000  Biso   1.000  H
  H58      1.0000 0.96300  0.03700  0.25000  Biso   1.000  H
  C1       1.0000 0.85260  0.45560  0.80230  Biso   1.000  C
  C2       1.0000 0.88680  0.51080  0.67050  Biso   1.000  C
  C3       1.0000 0.79000  0.47060  0.66620  Biso   1.000  C
  C4       1.0000 0.94790  0.56370  0.60240  Biso   1.000  C
  C5       1.0000 0.71240  0.45800  0.59110  Biso   1.000  C
  C6       1.0000 0.81690  0.45430  0.05170  Biso   1.000  C
  C7       1.0000 0.79720  0.46580  0.96250  Biso   1.000  C
  C8       1.0000 0.86650  0.43370  0.89850  Biso   1.000  C
  C9       1.0000 0.95560  0.38600  0.93060  Biso   1.000  C
  C10      1.0000 0.97170  0.37590  0.02250  Biso   1.000  C
  C11      1.0000 0.12410  0.79990  0.75560  Biso   1.000  C
  C12      1.0000 0.01280  0.80680  0.76560  Biso   1.000  C
  C13      1.0000 0.44290  0.50930  0.67690  Biso   1.000  C
  C14      1.0000 0.36480  0.58140  0.67520  Biso   1.000  C
  C15      1.0000 0.16480  0.40140  0.69430  Biso   1.000  C
  C16      1.0000 0.22280  0.25140  0.60740  Biso   1.000  C
  C17      1.0000 0.28640  0.28940  0.76190  Biso   1.000  C
  C18      1.0000 0.54440  0.14740  0.69770  Biso   1.000  C
  C19      1.0000 0.48920  0.11320  0.82950  Biso   1.000  C
  C20      1.0000 0.52940  0.21000  0.83380  Biso   1.000  C
  C21      1.0000 0.43630  0.05210  0.89760  Biso   1.000  C
  C22      1.0000 0.54200  0.28760  0.90890  Biso   1.000  C
  C23      1.0000 0.54570  0.18310  0.44830  Biso   1.000  C
  C24      1.0000 0.53420  0.20280  0.53750  Biso   1.000  C
  C25      1.0000 0.56630  0.13350  0.60150  Biso   1.000  C
  C26      1.0000 0.61400  0.04440  0.56940  Biso   1.000  C
  C27      1.0000 0.62410  0.02830  0.47750  Biso   1.000  C
  C28      1.0000 0.20010  0.87590  0.74440  Biso   1.000  C
  C29      1.0000 0.19320  0.98720  0.73440  Biso   1.000  C
  C30      1.0000 0.49070  0.55710  0.82310  Biso   1.000  C
  C31      1.0000 0.41860  0.63520  0.82480  Biso   1.000  C
  C32      1.0000 0.59860  0.83520  0.80570  Biso   1.000  C
  C33      1.0000 0.74860  0.77720  0.89260  Biso   1.000  C
  C34      1.0000 0.71060  0.71360  0.73810  Biso   1.000  C
  C35      1.0000 0.14740  0.54440  0.19770  Biso   1.000  C
  C36      1.0000 0.11320  0.48920  0.32950  Biso   1.000  C
  C37      1.0000 0.21000  0.52940  0.33380  Biso   1.000  C
  C38      1.0000 0.05210  0.43630  0.39760  Biso   1.000  C
  C39      1.0000 0.28760  0.54200  0.40890  Biso   1.000  C
  C40      1.0000 0.18310  0.54570  0.94830  Biso   1.000  C
  C41      1.0000 0.20280  0.53420  0.03750  Biso   1.000  C
  C42      1.0000 0.13350  0.56630  0.10150  Biso   1.000  C
  C43      1.0000 0.04440  0.61400  0.06940  Biso   1.000  C
  C44      1.0000 0.02830  0.62410  0.97750  Biso   1.000  C
  C45      1.0000 0.87590  0.20010  0.24440  Biso   1.000  C
  C46      1.0000 0.98720  0.19320  0.23440  Biso   1.000  C
  C47      1.0000 0.55710  0.49070  0.32310  Biso   1.000  C
  C48      1.0000 0.63520  0.41860  0.32480  Biso   1.000  C
  C49      1.0000 0.83520  0.59860  0.30570  Biso   1.000  C
  C50      1.0000 0.77720  0.74860  0.39260  Biso   1.000  C
  C51      1.0000 0.71360  0.71060  0.23810  Biso   1.000  C
  C52      1.0000 0.45560  0.85260  0.30230  Biso   1.000  C
  C53      1.0000 0.51080  0.88680  0.17050  Biso   1.000  C
  C54      1.0000 0.47060  0.79000  0.16620  Biso   1.000  C
  C55      1.0000 0.56370  0.94790  0.10240  Biso   1.000  C
  C56      1.0000 0.45800  0.71240  0.09110  Biso   1.000  C
  C57      1.0000 0.45430  0.81690  0.55170  Biso   1.000  C
  C58      1.0000 0.46580  0.79720  0.46250  Biso   1.000  C
  C59      1.0000 0.43370  0.86650  0.39850  Biso   1.000  C
  C60      1.0000 0.38600  0.95560  0.43060  Biso   1.000  C
  C61      1.0000 0.37590  0.97170  0.52250  Biso   1.000  C
  C62      1.0000 0.79990  0.12410  0.25560  Biso   1.000  C
  C63      1.0000 0.80680  0.01280  0.26560  Biso   1.000  C
  C64      1.0000 0.50930  0.44290  0.17690  Biso   1.000  C
  C65      1.0000 0.58140  0.36480  0.17520  Biso   1.000  C
  C66      1.0000 0.40140  0.16480  0.19430  Biso   1.000  C
  C67      1.0000 0.25140  0.22280  0.10740  Biso   1.000  C
  C68      1.0000 0.28940  0.28640  0.26190  Biso   1.000  C
  C69      1.0000 0.27260  0.72740  0.75000  Biso   1.000  C
  C70      1.0000 0.35330  0.64670  0.75000  Biso   1.000  C
  C71      1.0000 0.72740  0.27260  0.25000  Biso   1.000  C
  C72      1.0000 0.64670  0.35330  0.25000  Biso   1.000  C
  N1       1.0000 0.92860  0.50200  0.75630  Biso   1.000  N
  N2       1.0000 0.76600  0.43560  0.75110  Biso   1.000  N
  N3       1.0000 0.90490  0.41230  0.08290  Biso   1.000  N
  N4       1.0000 0.17170  0.70750  0.75680  Biso   1.000  N
  N5       1.0000 0.22010  0.31750  0.68770  Biso   1.000  N
  N6       1.0000 0.49800  0.07140  0.74370  Biso   1.000  N
  N7       1.0000 0.56440  0.23400  0.74890  Biso   1.000  N
  N8       1.0000 0.58770  0.09510  0.41710  Biso   1.000  N
  N9       1.0000 0.29250  0.82830  0.74320  Biso   1.000  N
  N10      1.0000 0.68250  0.77990  0.81230  Biso   1.000  N
  N11      1.0000 0.07140  0.49800  0.24370  Biso   1.000  N
  N12      1.0000 0.23400  0.56440  0.24890  Biso   1.000  N
  N13      1.0000 0.09510  0.58770  0.91710  Biso   1.000  N
  N14      1.0000 0.82830  0.29250  0.24320  Biso   1.000  N
  N15      1.0000 0.77990  0.68250  0.31230  Biso   1.000  N
  N16      1.0000 0.50200  0.92860  0.25630  Biso   1.000  N
  N17      1.0000 0.43560  0.76600  0.25110  Biso   1.000  N
  N18      1.0000 0.41230  0.90490  0.58290  Biso   1.000  N
  N19      1.0000 0.70750  0.17170  0.25680  Biso   1.000  N
  N20      1.0000 0.31750  0.22010  0.18770  Biso   1.000  N
  N21      1.0000 0.50580  0.49420  0.75000  Biso   1.000  N
  N22      1.0000 0.49420  0.50580  0.25000  Biso   1.000  N
  O1       1.0000 0.03670  0.59490  0.62410  Biso   1.000  O
  O2       1.0000 0.90730  0.57610  0.52310  Biso   1.000  O
  O3       1.0000 0.63140  0.40860  0.60840  Biso   1.000  O
  O4       1.0000 0.73160  0.49560  0.51640  Biso   1.000  O
  O5       1.0000 0.96400  0.72600  0.78020  Biso   1.000  O
  O6       1.0000 0.96920  0.89600  0.76050  Biso   1.000  O
  O7       1.0000 0.16160  0.46180  0.75940  Biso   1.000  O
  O8       1.0000 0.40510  0.96330  0.87590  Biso   1.000  O
  O9       1.0000 0.42390  0.09270  0.97690  Biso   1.000  O
  O10      1.0000 0.59140  0.36860  0.89160  Biso   1.000  O
  O11      1.0000 0.50440  0.26840  0.98360  Biso   1.000  O
  O12      1.0000 0.27400  0.03600  0.71980  Biso   1.000  O
  O13      1.0000 0.10400  0.03080  0.73950  Biso   1.000  O
  O14      1.0000 0.53820  0.83840  0.74060  Biso   1.000  O
  O15      1.0000 0.96330  0.40510  0.37590  Biso   1.000  O
  O16      1.0000 0.09270  0.42390  0.47690  Biso   1.000  O
  O17      1.0000 0.36860  0.59140  0.39160  Biso   1.000  O
  O18      1.0000 0.26840  0.50440  0.48360  Biso   1.000  O
  O19      1.0000 0.03600  0.27400  0.21980  Biso   1.000  O
  O20      1.0000 0.03080  0.10400  0.23950  Biso   1.000  O
  O21      1.0000 0.83840  0.53820  0.24060  Biso   1.000  O
  O22      1.0000 0.59490  0.03670  0.12410  Biso   1.000  O
  O23      1.0000 0.57610  0.90730  0.02310  Biso   1.000  O
  O24      1.0000 0.40860  0.63140  0.10840  Biso   1.000  O
  O25      1.0000 0.49560  0.73160  0.01640  Biso   1.000  O
  O26      1.0000 0.72600  0.96400  0.28020  Biso   1.000  O
  O27      1.0000 0.89600  0.96920  0.26050  Biso   1.000  O
  O28      1.0000 0.46180  0.16160  0.25940  Biso   1.000  O
