data_image0
_cell_length_a       9.36
_cell_length_b       9.936
_cell_length_c       11.384
_cell_angle_alpha    93.182
_cell_angle_beta     97.617
_cell_angle_gamma    110.271

_symmetry_space_group_name_H-M    P 1
_symmetry_int_tables_number       1

loop_
  _symmetry_equiv_pos_as_xyz
  'x, y, z'

loop_
  _atom_site_label
  _atom_site_occupancy
  _atom_site_fract_x
  _atom_site_fract_y
  _atom_site_fract_z
  _atom_site_thermal_displace_type
  _atom_site_B_iso_or_equiv
  _atom_site_type_symbol
  La1      1.0000 0.71561  0.95199  0.01691  Biso   1.000  La
  La2      1.0000 0.28439  0.04801  0.98309  Biso   1.000  La
  H1       1.0000 0.68670  0.50590  0.96560  Biso   1.000  H
  H2       1.0000 0.80960  0.21620  0.77930  Biso   1.000  H
  H3       1.0000 0.08580  0.63550  0.83520  Biso   1.000  H
  H4       1.0000 0.82950  0.40090  0.57110  Biso   1.000  H
  H5       1.0000 0.74100  0.27740  0.38150  Biso   1.000  H
  H6       1.0000 0.07020  0.10710  0.42570  Biso   1.000  H
  H7       1.0000 0.16040  0.22840  0.61510  Biso   1.000  H
  H8       1.0000 0.46030  0.82280  0.81580  Biso   1.000  H
  H9       1.0000 0.89990  0.94820  0.82290  Biso   1.000  H
  H10      1.0000 0.45800  0.68300  0.82900  Biso   1.000  H
  H11      1.0000 0.79300  0.97000  0.73800  Biso   1.000  H
  H12      1.0000 0.31330  0.49410  0.03440  Biso   1.000  H
  H13      1.0000 0.19040  0.78380  0.22070  Biso   1.000  H
  H14      1.0000 0.91420  0.36450  0.16480  Biso   1.000  H
  H15      1.0000 0.17050  0.59910  0.42890  Biso   1.000  H
  H16      1.0000 0.25900  0.72260  0.61850  Biso   1.000  H
  H17      1.0000 0.92980  0.89290  0.57430  Biso   1.000  H
  H18      1.0000 0.83960  0.77160  0.38490  Biso   1.000  H
  H19      1.0000 0.53970  0.17720  0.18420  Biso   1.000  H
  H20      1.0000 0.10010  0.05180  0.17710  Biso   1.000  H
  H21      1.0000 0.54200  0.31700  0.17100  Biso   1.000  H
  H22      1.0000 0.20700  0.03000  0.26200  Biso   1.000  H
  C1       1.0000 0.92820  0.74190  0.97040  Biso   1.000  C
  C2       1.0000 0.89200  0.59280  0.91100  Biso   1.000  C
  C3       1.0000 0.75640  0.48470  0.92370  Biso   1.000  C
  C4       1.0000 0.72380  0.34410  0.87380  Biso   1.000  C
  C5       1.0000 0.57830  0.22650  0.89230  Biso   1.000  C
  C6       1.0000 0.82720  0.31050  0.80950  Biso   1.000  C
  C7       1.0000 0.95800  0.42550  0.79300  Biso   1.000  C
  C8       1.0000 0.99450  0.56300  0.84440  Biso   1.000  C
  C9       1.0000 0.00430  0.32400  0.61140  Biso   1.000  C
  C10      1.0000 0.87710  0.34090  0.54190  Biso   1.000  C
  C11      1.0000 0.82420  0.26640  0.42910  Biso   1.000  C
  C12      1.0000 0.89330  0.17620  0.38650  Biso   1.000  C
  C13      1.0000 0.82920  0.08920  0.26780  Biso   1.000  C
  C14      1.0000 0.02070  0.16480  0.45570  Biso   1.000  C
  C15      1.0000 0.07560  0.23800  0.56870  Biso   1.000  C
  C16      1.0000 0.07180  0.25810  0.02960  Biso   1.000  C
  C17      1.0000 0.10800  0.40720  0.08900  Biso   1.000  C
  C18      1.0000 0.24360  0.51530  0.07630  Biso   1.000  C
  C19      1.0000 0.27620  0.65590  0.12620  Biso   1.000  C
  C20      1.0000 0.42170  0.77350  0.10770  Biso   1.000  C
  C21      1.0000 0.17280  0.68950  0.19050  Biso   1.000  C
  C22      1.0000 0.04200  0.57450  0.20700  Biso   1.000  C
  C23      1.0000 0.00550  0.43700  0.15560  Biso   1.000  C
  C24      1.0000 0.99570  0.67600  0.38860  Biso   1.000  C
  C25      1.0000 0.12290  0.65910  0.45810  Biso   1.000  C
  C26      1.0000 0.17580  0.73360  0.57090  Biso   1.000  C
  C27      1.0000 0.10670  0.82380  0.61350  Biso   1.000  C
  C28      1.0000 0.17080  0.91080  0.73220  Biso   1.000  C
  C29      1.0000 0.97930  0.83520  0.54430  Biso   1.000  C
  C30      1.0000 0.92440  0.76200  0.43130  Biso   1.000  C
  O1       1.0000 0.05800  0.83610  0.97020  Biso   1.000  O
  O2       1.0000 0.82220  0.76410  0.01870  Biso   1.000  O
  O3       1.0000 0.45550  0.25440  0.88160  Biso   1.000  O
  O4       1.0000 0.58320  0.10540  0.92180  Biso   1.000  O
  O5       1.0000 0.06230  0.39780  0.72480  Biso   1.000  O
  O6       1.0000 0.71360  0.10610  0.20430  Biso   1.000  O
  O7       1.0000 0.88620  0.00160  0.22890  Biso   1.000  O
  O8       1.0000 0.50570  0.77780  0.85390  Biso   1.000  O
  O9       1.0000 0.81220  0.94980  0.81240  Biso   1.000  O
  O10      1.0000 0.94200  0.16390  0.02980  Biso   1.000  O
  O11      1.0000 0.17780  0.23590  0.98130  Biso   1.000  O
  O12      1.0000 0.54450  0.74560  0.11840  Biso   1.000  O
  O13      1.0000 0.41680  0.89460  0.07820  Biso   1.000  O
  O14      1.0000 0.93770  0.60220  0.27520  Biso   1.000  O
  O15      1.0000 0.28640  0.89390  0.79570  Biso   1.000  O
  O16      1.0000 0.11380  0.99840  0.77110  Biso   1.000  O
  O17      1.0000 0.49430  0.22220  0.14610  Biso   1.000  O
  O18      1.0000 0.18780  0.05020  0.18760  Biso   1.000  O
