data_image0
_cell_length_a       9.404
_cell_length_b       9.957
_cell_length_c       11.459
_cell_angle_alpha    93.381
_cell_angle_beta     97.716
_cell_angle_gamma    110.242

_symmetry_space_group_name_H-M    P 1
_symmetry_int_tables_number       1

loop_
  _symmetry_equiv_pos_as_xyz
  'x, y, z'

loop_
  _atom_site_label
  _atom_site_occupancy
  _atom_site_fract_x
  _atom_site_fract_y
  _atom_site_fract_z
  _atom_site_thermal_displace_type
  _atom_site_B_iso_or_equiv
  _atom_site_type_symbol
  La1      1.0000 0.78447  0.54726  0.48193  Biso   1.000  La
  La2      1.0000 0.21553  0.45274  0.51807  Biso   1.000  La
  H1       1.0000 0.58270  0.13340  0.33340  Biso   1.000  H
  H2       1.0000 0.30790  0.71730  0.27870  Biso   1.000  H
  H3       1.0000 0.18560  0.00410  0.46570  Biso   1.000  H
  H4       1.0000 0.64560  0.71860  0.11840  Biso   1.000  H
  H5       1.0000 0.55960  0.60240  0.92410  Biso   1.000  H
  H6       1.0000 0.23970  0.78480  0.88170  Biso   1.000  H
  H7       1.0000 0.33350  0.90960  0.07210  Biso   1.000  H
  H8       1.0000 0.05600  0.69000  0.69100  Biso   1.000  H
  H9       1.0000 0.58700  0.52300  0.69000  Biso   1.000  H
  H10      1.0000 0.72000  0.49000  0.74000  Biso   1.000  H
  H11      1.0000 0.02100  0.81600  0.66100  Biso   1.000  H
  H12      1.0000 0.41730  0.86660  0.66660  Biso   1.000  H
  H13      1.0000 0.69210  0.28270  0.72130  Biso   1.000  H
  H14      1.0000 0.81440  0.99590  0.53430  Biso   1.000  H
  H15      1.0000 0.35440  0.28140  0.88160  Biso   1.000  H
  H16      1.0000 0.44040  0.39760  0.07590  Biso   1.000  H
  H17      1.0000 0.76030  0.21520  0.11830  Biso   1.000  H
  H18      1.0000 0.66650  0.09040  0.92790  Biso   1.000  H
  H19      1.0000 0.94400  0.31000  0.30900  Biso   1.000  H
  H20      1.0000 0.41300  0.47700  0.31000  Biso   1.000  H
  H21      1.0000 0.28000  0.51000  0.26000  Biso   1.000  H
  H22      1.0000 0.97900  0.18400  0.33900  Biso   1.000  H
  C1       1.0000 0.42830  0.24320  0.46880  Biso   1.000  C
  C2       1.0000 0.39020  0.09240  0.40940  Biso   1.000  C
  C3       1.0000 0.49200  0.06140  0.34310  Biso   1.000  C
  C4       1.0000 0.45530  0.92230  0.29260  Biso   1.000  C
  C5       1.0000 0.32690  0.81140  0.31000  Biso   1.000  C
  C6       1.0000 0.22380  0.84330  0.37680  Biso   1.000  C
  C7       1.0000 0.08040  0.72870  0.39620  Biso   1.000  C
  C8       1.0000 0.25480  0.98270  0.42400  Biso   1.000  C
  C9       1.0000 0.49560  0.82220  0.11230  Biso   1.000  C
  C10      1.0000 0.56460  0.73200  0.07070  Biso   1.000  C
  C11      1.0000 0.51060  0.66000  0.95440  Biso   1.000  C
  C12      1.0000 0.38610  0.67460  0.88570  Biso   1.000  C
  C13      1.0000 0.32220  0.58990  0.76630  Biso   1.000  C
  C14      1.0000 0.32050  0.77070  0.92900  Biso   1.000  C
  C15      1.0000 0.37630  0.84560  0.04350  Biso   1.000  C
  C16      1.0000 0.57170  0.75680  0.53120  Biso   1.000  C
  C17      1.0000 0.60980  0.90760  0.59060  Biso   1.000  C
  C18      1.0000 0.50800  0.93860  0.65690  Biso   1.000  C
  C19      1.0000 0.54470  0.07770  0.70740  Biso   1.000  C
  C20      1.0000 0.67310  0.18860  0.69000  Biso   1.000  C
  C21      1.0000 0.77620  0.15670  0.62320  Biso   1.000  C
  C22      1.0000 0.91960  0.27130  0.60380  Biso   1.000  C
  C23      1.0000 0.74520  0.01730  0.57600  Biso   1.000  C
  C24      1.0000 0.50440  0.17780  0.88770  Biso   1.000  C
  C25      1.0000 0.43540  0.26800  0.92930  Biso   1.000  C
  C26      1.0000 0.48940  0.34000  0.04560  Biso   1.000  C
  C27      1.0000 0.61390  0.32540  0.11430  Biso   1.000  C
  C28      1.0000 0.67780  0.41010  0.23370  Biso   1.000  C
  C29      1.0000 0.67950  0.22930  0.07100  Biso   1.000  C
  C30      1.0000 0.62370  0.15440  0.95650  Biso   1.000  C
  O1       1.0000 0.55640  0.33560  0.46570  Biso   1.000  O
  O2       1.0000 0.32440  0.26610  0.51850  Biso   1.000  O
  O3       1.0000 0.95930  0.75480  0.38430  Biso   1.000  O
  O4       1.0000 0.08360  0.60760  0.42430  Biso   1.000  O
  O5       1.0000 0.55850  0.89550  0.22560  Biso   1.000  O
  O6       1.0000 0.21210  0.61010  0.70240  Biso   1.000  O
  O7       1.0000 0.37880  0.49950  0.73210  Biso   1.000  O
  O8       1.0000 0.99070  0.71980  0.64550  Biso   1.000  O
  O9       1.0000 0.68610  0.54290  0.68370  Biso   1.000  O
  O10      1.0000 0.44360  0.66440  0.53430  Biso   1.000  O
  O11      1.0000 0.67560  0.73390  0.48150  Biso   1.000  O
  O12      1.0000 0.04070  0.24520  0.61570  Biso   1.000  O
  O13      1.0000 0.91640  0.39240  0.57570  Biso   1.000  O
  O14      1.0000 0.44150  0.10450  0.77440  Biso   1.000  O
  O15      1.0000 0.78790  0.38990  0.29760  Biso   1.000  O
  O16      1.0000 0.62120  0.50050  0.26790  Biso   1.000  O
  O17      1.0000 0.00930  0.28020  0.35450  Biso   1.000  O
  O18      1.0000 0.31390  0.45710  0.31630  Biso   1.000  O
