data_image0
_cell_length_a       37.153
_cell_length_b       8.9381
_cell_length_c       29.414
_cell_angle_alpha    90
_cell_angle_beta     127.964
_cell_angle_gamma    90

_symmetry_space_group_name_H-M    "P 1"
_symmetry_int_tables_number       1

loop_
  _symmetry_equiv_pos_as_xyz
  'x, y, z'

loop_
  _atom_site_label
  _atom_site_occupancy
  _atom_site_fract_x
  _atom_site_fract_y
  _atom_site_fract_z
  _atom_site_thermal_displace_type
  _atom_site_B_iso_or_equiv
  _atom_site_type_symbol
  O1       1.0000 0.19939  0.42270  0.45408  Biso   1.000  O
  O2       1.0000 0.17308  0.46870  0.50336  Biso   1.000  O
  O3       1.0000 0.05683  0.92850  0.29470  Biso   1.000  O
  O4       1.0000 0.99691  0.31960  0.19460  Biso   1.000  O
  O5       1.0000 0.08402  0.77270  0.11962  Biso   1.000  O
  O6       1.0000 0.01006  0.82360  0.05682  Biso   1.000  O
  N1       1.0000 0.24105  0.23680  0.56145  Biso   1.000  N
  H1       1.0000 0.21950  0.31600  0.55290  Biso   1.000  H
  N2       1.0000 0.19766  0.08960  0.45422  Biso   1.000  N
  N3       1.0000 0.18819  0.11760  0.36933  Biso   1.000  N
  N4       1.0000 0.99418  0.84490  0.94233  Biso   1.000  N
  N5       1.0000 0.06819  0.02340  0.04391  Biso   1.000  N
  H2       1.0000 0.08290  0.94400  0.07310  Biso   1.000  H
  N6       1.0000 0.06642  0.88830  0.96864  Biso   1.000  N
  C1       1.0000 0.01827  0.90370  0.92050  Biso   1.000  C
  H3       1.0000 0.01050  0.84610  0.88760  Biso   1.000  H
  H4       1.0000 0.01040  0.00770  0.90920  Biso   1.000  H
  C2       1.0000 0.06836  0.74000  0.99280  Biso   1.000  C
  H5       1.0000 0.08820  0.74410  0.03460  Biso   1.000  H
  H6       1.0000 0.08000  0.66480  0.98100  Biso   1.000  H
  C3       1.0000 0.01870  0.70170  0.96870  Biso   1.000  C
  H7       1.0000 0.00610  0.62260  0.94020  Biso   1.000  H
  H8       1.0000 0.01740  0.67150  0.99940  Biso   1.000  H
  C4       1.0000 0.08564  0.00980  0.00980  Biso   1.000  C
  H9       1.0000 0.07950  0.10290  0.98920  Biso   1.000  H
  H10      1.0000 0.11850  0.99710  0.03640  Biso   1.000  H
  C5       1.0000 0.07996  0.16760  0.07550  Biso   1.000  C
  H11      1.0000 0.07020  0.25090  0.04920  Biso   1.000  H
  H12      1.0000 0.11270  0.17470  0.10530  Biso   1.000  H
  C6       1.0000 0.94420  0.82720  0.89760  Biso   1.000  C
  H13      1.0000 0.93790  0.73240  0.87790  Biso   1.000  H
  H14      1.0000 0.93270  0.90660  0.86930  Biso   1.000  H
  C7       1.0000 0.16426  0.14050  0.39376  Biso   1.000  C
  H15      1.0000 0.13650  0.08140  0.37350  Biso   1.000  H
  H16      1.0000 0.15660  0.24510  0.39210  Biso   1.000  H
  C8       1.0000 0.21074  0.94370  0.44410  Biso   1.000  C
  H17      1.0000 0.18860  0.86700  0.43450  Biso   1.000  H
  H18      1.0000 0.24060  0.91230  0.47800  Biso   1.000  H
  C9       1.0000 0.21150  0.97220  0.39400  Biso   1.000  C
  H19      1.0000 0.24270  0.97690  0.40720  Biso   1.000  H
  H20      1.0000 0.19550  0.89330  0.36550  Biso   1.000  H
  C10      1.0000 0.28215  0.25860  0.62209  Biso   1.000  C
  H21      1.0000 0.27240  0.27680  0.64560  Biso   1.000  H
  H22      1.0000 0.29980  0.16680  0.63570  Biso   1.000  H
  C11      1.0000 0.21744  0.09310  0.55080  Biso   1.000  C
  H23      1.0000 0.20530  0.08940  0.57200  Biso   1.000  H
  H24      1.0000 0.23870  0.01070  0.56350  Biso   1.000  H
  C12      1.0000 0.17906  0.08020  0.48690  Biso   1.000  C
  H25      1.0000 0.16340  0.98550  0.47880  Biso   1.000  H
  H26      1.0000 0.15720  0.16010  0.47470  Biso   1.000  H
  C13      1.0000 0.17389  0.49070  0.46209  Biso   1.000  C
  C14      1.0000 0.14194  0.60530  0.41726  Biso   1.000  C
  C15      1.0000 0.13502  0.61830  0.36513  Biso   1.000  C
  H27      1.0000 0.15040  0.55380  0.35750  Biso   1.000  H
  C16      1.0000 0.10628  0.72350  0.32502  Biso   1.000  C
  H28      1.0000 0.10160  0.72870  0.29020  Biso   1.000  H
  C17      1.0000 0.08414  0.82240  0.33658  Biso   1.000  C
  C18      1.0000 0.09054  0.81460  0.38817  Biso   1.000  C
  H29      1.0000 0.07590  0.88180  0.39610  Biso   1.000  H
  C19      1.0000 0.11902  0.70520  0.42763  Biso   1.000  C
  H30      1.0000 0.12300  0.69830  0.46200  Biso   1.000  H
  C20      1.0000 0.03084  0.02400  0.30333  Biso   1.000  C
  H31      1.0000 0.05110  0.08640  0.33700  Biso   1.000  H
  H32      1.0000 0.01250  0.96450  0.30970  Biso   1.000  H
  C21      1.0000 0.02869  0.22040  0.24087  Biso   1.000  C
  H33      1.0000 0.05110  0.27640  0.27560  Biso   1.000  H
  H34      1.0000 0.04450  0.16000  0.23070  Biso   1.000  H
  C22      1.0000 0.01217  0.42800  0.17746  Biso   1.000  C
  C23      1.0000 0.97764  0.51630  0.13240  Biso   1.000  C
  H35      1.0000 0.94760  0.50360  0.11840  Biso   1.000  H
  C24      1.0000 0.98845  0.62290  0.10880  Biso   1.000  C
  H36      1.0000 0.96530  0.68070  0.07820  Biso   1.000  H
  C25      1.0000 0.03332  0.64600  0.12966  Biso   1.000  C
  C26      1.0000 0.06717  0.56170  0.17609  Biso   1.000  C
  H37      1.0000 0.09750  0.57900  0.19180  Biso   1.000  H
  C27      1.0000 0.05702  0.45050  0.20024  Biso   1.000  C
  H38      1.0000 0.08010  0.39310  0.23110  Biso   1.000  H
  C28      1.0000 0.04341  0.75620  0.10026  Biso   1.000  C
  O7       1.0000 0.69939  0.92270  0.45408  Biso   1.000  O
  O8       1.0000 0.67308  0.96870  0.50336  Biso   1.000  O
  O9       1.0000 0.55683  0.42850  0.29470  Biso   1.000  O
  O10      1.0000 0.49691  0.81960  0.19460  Biso   1.000  O
  O11      1.0000 0.58402  0.27270  0.11962  Biso   1.000  O
  O12      1.0000 0.51006  0.32360  0.05682  Biso   1.000  O
  N7       1.0000 0.74105  0.73680  0.56145  Biso   1.000  N
  H39      1.0000 0.71950  0.81600  0.55290  Biso   1.000  H
  N8       1.0000 0.69766  0.58960  0.45422  Biso   1.000  N
  N9       1.0000 0.68819  0.61760  0.36933  Biso   1.000  N
  N10      1.0000 0.49418  0.34490  0.94233  Biso   1.000  N
  N11      1.0000 0.56819  0.52340  0.04391  Biso   1.000  N
  H40      1.0000 0.58290  0.44400  0.07310  Biso   1.000  H
  N12      1.0000 0.56642  0.38830  0.96864  Biso   1.000  N
  C29      1.0000 0.51827  0.40370  0.92050  Biso   1.000  C
  H41      1.0000 0.51050  0.34610  0.88760  Biso   1.000  H
  H42      1.0000 0.51040  0.50770  0.90920  Biso   1.000  H
  C30      1.0000 0.56836  0.24000  0.99280  Biso   1.000  C
  H43      1.0000 0.58820  0.24410  0.03460  Biso   1.000  H
  H44      1.0000 0.58000  0.16480  0.98100  Biso   1.000  H
  C31      1.0000 0.51870  0.20170  0.96870  Biso   1.000  C
  H45      1.0000 0.50610  0.12260  0.94020  Biso   1.000  H
  H46      1.0000 0.51740  0.17150  0.99940  Biso   1.000  H
  C32      1.0000 0.58564  0.50980  0.00980  Biso   1.000  C
  H47      1.0000 0.57950  0.60290  0.98920  Biso   1.000  H
  H48      1.0000 0.61850  0.49710  0.03640  Biso   1.000  H
  C33      1.0000 0.57996  0.66760  0.07550  Biso   1.000  C
  H49      1.0000 0.57020  0.75090  0.04920  Biso   1.000  H
  H50      1.0000 0.61270  0.67470  0.10530  Biso   1.000  H
  C34      1.0000 0.44420  0.32720  0.89760  Biso   1.000  C
  H51      1.0000 0.43790  0.23240  0.87790  Biso   1.000  H
  H52      1.0000 0.43270  0.40660  0.86930  Biso   1.000  H
  C35      1.0000 0.66426  0.64050  0.39376  Biso   1.000  C
  H53      1.0000 0.63650  0.58140  0.37350  Biso   1.000  H
  H54      1.0000 0.65660  0.74510  0.39210  Biso   1.000  H
  C36      1.0000 0.71074  0.44370  0.44410  Biso   1.000  C
  H55      1.0000 0.68860  0.36700  0.43450  Biso   1.000  H
  H56      1.0000 0.74060  0.41230  0.47800  Biso   1.000  H
  C37      1.0000 0.71150  0.47220  0.39400  Biso   1.000  C
  H57      1.0000 0.74270  0.47690  0.40720  Biso   1.000  H
  H58      1.0000 0.69550  0.39330  0.36550  Biso   1.000  H
  C38      1.0000 0.78215  0.75860  0.62209  Biso   1.000  C
  H59      1.0000 0.77240  0.77680  0.64560  Biso   1.000  H
  H60      1.0000 0.79980  0.66680  0.63570  Biso   1.000  H
  C39      1.0000 0.71744  0.59310  0.55080  Biso   1.000  C
  H61      1.0000 0.70530  0.58940  0.57200  Biso   1.000  H
  H62      1.0000 0.73870  0.51070  0.56350  Biso   1.000  H
  C40      1.0000 0.67906  0.58020  0.48690  Biso   1.000  C
  H63      1.0000 0.66340  0.48550  0.47880  Biso   1.000  H
  H64      1.0000 0.65720  0.66010  0.47470  Biso   1.000  H
  C41      1.0000 0.67389  0.99070  0.46209  Biso   1.000  C
  C42      1.0000 0.64194  0.10530  0.41726  Biso   1.000  C
  C43      1.0000 0.63502  0.11830  0.36513  Biso   1.000  C
  H65      1.0000 0.65040  0.05380  0.35750  Biso   1.000  H
  C44      1.0000 0.60628  0.22350  0.32502  Biso   1.000  C
  H66      1.0000 0.60160  0.22870  0.29020  Biso   1.000  H
  C45      1.0000 0.58414  0.32240  0.33658  Biso   1.000  C
  C46      1.0000 0.59054  0.31460  0.38817  Biso   1.000  C
  H67      1.0000 0.57590  0.38180  0.39610  Biso   1.000  H
  C47      1.0000 0.61902  0.20520  0.42763  Biso   1.000  C
  H68      1.0000 0.62300  0.19830  0.46200  Biso   1.000  H
  C48      1.0000 0.53084  0.52400  0.30333  Biso   1.000  C
  H69      1.0000 0.55110  0.58640  0.33700  Biso   1.000  H
  H70      1.0000 0.51250  0.46450  0.30970  Biso   1.000  H
  C49      1.0000 0.52869  0.72040  0.24087  Biso   1.000  C
  H71      1.0000 0.55110  0.77640  0.27560  Biso   1.000  H
  H72      1.0000 0.54450  0.66000  0.23070  Biso   1.000  H
  C50      1.0000 0.51217  0.92800  0.17746  Biso   1.000  C
  C51      1.0000 0.47764  0.01630  0.13240  Biso   1.000  C
  H73      1.0000 0.44760  0.00360  0.11840  Biso   1.000  H
  C52      1.0000 0.48845  0.12290  0.10880  Biso   1.000  C
  H74      1.0000 0.46530  0.18070  0.07820  Biso   1.000  H
  C53      1.0000 0.53332  0.14600  0.12966  Biso   1.000  C
  C54      1.0000 0.56717  0.06170  0.17609  Biso   1.000  C
  H75      1.0000 0.59750  0.07900  0.19180  Biso   1.000  H
  C55      1.0000 0.55702  0.95050  0.20024  Biso   1.000  C
  H76      1.0000 0.58010  0.89310  0.23110  Biso   1.000  H
  C56      1.0000 0.54341  0.25620  0.10026  Biso   1.000  C
  O13      1.0000 0.80061  0.42270  0.04592  Biso   1.000  O
  O14      1.0000 0.82692  0.46870  0.99664  Biso   1.000  O
  O15      1.0000 0.94317  0.92850  0.20530  Biso   1.000  O
  O16      1.0000 0.00309  0.31960  0.30540  Biso   1.000  O
  O17      1.0000 0.91598  0.77270  0.38038  Biso   1.000  O
  O18      1.0000 0.98994  0.82360  0.44318  Biso   1.000  O
  N13      1.0000 0.75895  0.23680  0.93855  Biso   1.000  N
  H77      1.0000 0.78050  0.31600  0.94710  Biso   1.000  H
  N14      1.0000 0.80234  0.08960  0.04578  Biso   1.000  N
  N15      1.0000 0.81181  0.11760  0.13067  Biso   1.000  N
  N16      1.0000 0.00582  0.84490  0.55767  Biso   1.000  N
  N17      1.0000 0.93181  0.02340  0.45609  Biso   1.000  N
  H78      1.0000 0.91710  0.94400  0.42690  Biso   1.000  H
  N18      1.0000 0.93358  0.88830  0.53136  Biso   1.000  N
  C57      1.0000 0.98173  0.90370  0.57950  Biso   1.000  C
  H79      1.0000 0.98950  0.84610  0.61240  Biso   1.000  H
  H80      1.0000 0.98960  0.00770  0.59080  Biso   1.000  H
  C58      1.0000 0.93164  0.74000  0.50720  Biso   1.000  C
  H81      1.0000 0.91180  0.74410  0.46540  Biso   1.000  H
  H82      1.0000 0.92000  0.66480  0.51900  Biso   1.000  H
  C59      1.0000 0.98130  0.70170  0.53130  Biso   1.000  C
  H83      1.0000 0.99390  0.62260  0.55980  Biso   1.000  H
  H84      1.0000 0.98260  0.67150  0.50060  Biso   1.000  H
  C60      1.0000 0.91436  0.00980  0.49020  Biso   1.000  C
  H85      1.0000 0.92050  0.10290  0.51080  Biso   1.000  H
  H86      1.0000 0.88150  0.99710  0.46360  Biso   1.000  H
  C61      1.0000 0.92004  0.16760  0.42450  Biso   1.000  C
  H87      1.0000 0.92980  0.25090  0.45080  Biso   1.000  H
  H88      1.0000 0.88730  0.17470  0.39470  Biso   1.000  H
  C62      1.0000 0.05580  0.82720  0.60240  Biso   1.000  C
  H89      1.0000 0.06210  0.73240  0.62210  Biso   1.000  H
  H90      1.0000 0.06730  0.90660  0.63070  Biso   1.000  H
  C63      1.0000 0.83574  0.14050  0.10624  Biso   1.000  C
  H91      1.0000 0.86350  0.08140  0.12650  Biso   1.000  H
  H92      1.0000 0.84340  0.24510  0.10790  Biso   1.000  H
  C64      1.0000 0.78926  0.94370  0.05590  Biso   1.000  C
  H93      1.0000 0.81140  0.86700  0.06550  Biso   1.000  H
  H94      1.0000 0.75940  0.91230  0.02200  Biso   1.000  H
  C65      1.0000 0.78850  0.97220  0.10600  Biso   1.000  C
  H95      1.0000 0.75730  0.97690  0.09280  Biso   1.000  H
  H96      1.0000 0.80450  0.89330  0.13450  Biso   1.000  H
  C66      1.0000 0.71785  0.25860  0.87791  Biso   1.000  C
  H97      1.0000 0.72760  0.27680  0.85440  Biso   1.000  H
  H98      1.0000 0.70020  0.16680  0.86430  Biso   1.000  H
  C67      1.0000 0.78256  0.09310  0.94920  Biso   1.000  C
  H99      1.0000 0.79470  0.08940  0.92800  Biso   1.000  H
  H100     1.0000 0.76130  0.01070  0.93650  Biso   1.000  H
  C68      1.0000 0.82094  0.08020  0.01310  Biso   1.000  C
  H101     1.0000 0.83660  0.98550  0.02120  Biso   1.000  H
  H102     1.0000 0.84280  0.16010  0.02530  Biso   1.000  H
  C69      1.0000 0.82611  0.49070  0.03791  Biso   1.000  C
  C70      1.0000 0.85806  0.60530  0.08274  Biso   1.000  C
  C71      1.0000 0.86498  0.61830  0.13487  Biso   1.000  C
  H103     1.0000 0.84960  0.55380  0.14250  Biso   1.000  H
  C72      1.0000 0.89372  0.72350  0.17498  Biso   1.000  C
  H104     1.0000 0.89840  0.72870  0.20980  Biso   1.000  H
  C73      1.0000 0.91586  0.82240  0.16342  Biso   1.000  C
  C74      1.0000 0.90946  0.81460  0.11183  Biso   1.000  C
  H105     1.0000 0.92410  0.88180  0.10390  Biso   1.000  H
  C75      1.0000 0.88098  0.70520  0.07237  Biso   1.000  C
  H106     1.0000 0.87700  0.69830  0.03800  Biso   1.000  H
  C76      1.0000 0.96916  0.02400  0.19667  Biso   1.000  C
  H107     1.0000 0.94890  0.08640  0.16300  Biso   1.000  H
  H108     1.0000 0.98750  0.96450  0.19030  Biso   1.000  H
  C77      1.0000 0.97131  0.22040  0.25913  Biso   1.000  C
  H109     1.0000 0.94890  0.27640  0.22440  Biso   1.000  H
  H110     1.0000 0.95550  0.16000  0.26930  Biso   1.000  H
  C78      1.0000 0.98783  0.42800  0.32254  Biso   1.000  C
  C79      1.0000 0.02236  0.51630  0.36760  Biso   1.000  C
  H111     1.0000 0.05240  0.50360  0.38160  Biso   1.000  H
  C80      1.0000 0.01155  0.62290  0.39120  Biso   1.000  C
  H112     1.0000 0.03470  0.68070  0.42180  Biso   1.000  H
  C81      1.0000 0.96668  0.64600  0.37034  Biso   1.000  C
  C82      1.0000 0.93283  0.56170  0.32391  Biso   1.000  C
  H113     1.0000 0.90250  0.57900  0.30820  Biso   1.000  H
  C83      1.0000 0.94298  0.45050  0.29976  Biso   1.000  C
  H114     1.0000 0.91990  0.39310  0.26890  Biso   1.000  H
  C84      1.0000 0.95659  0.75620  0.39974  Biso   1.000  C
  O19      1.0000 0.30061  0.92270  0.04592  Biso   1.000  O
  O20      1.0000 0.32692  0.96870  0.99664  Biso   1.000  O
  O21      1.0000 0.44317  0.42850  0.20530  Biso   1.000  O
  O22      1.0000 0.50309  0.81960  0.30540  Biso   1.000  O
  O23      1.0000 0.41598  0.27270  0.38038  Biso   1.000  O
  O24      1.0000 0.48994  0.32360  0.44318  Biso   1.000  O
  N19      1.0000 0.25895  0.73680  0.93855  Biso   1.000  N
  H115     1.0000 0.28050  0.81600  0.94710  Biso   1.000  H
  N20      1.0000 0.30234  0.58960  0.04578  Biso   1.000  N
  N21      1.0000 0.31181  0.61760  0.13067  Biso   1.000  N
  N22      1.0000 0.50582  0.34490  0.55767  Biso   1.000  N
  N23      1.0000 0.43181  0.52340  0.45609  Biso   1.000  N
  H116     1.0000 0.41710  0.44400  0.42690  Biso   1.000  H
  N24      1.0000 0.43358  0.38830  0.53136  Biso   1.000  N
  C85      1.0000 0.48173  0.40370  0.57950  Biso   1.000  C
  H117     1.0000 0.48950  0.34610  0.61240  Biso   1.000  H
  H118     1.0000 0.48960  0.50770  0.59080  Biso   1.000  H
  C86      1.0000 0.43164  0.24000  0.50720  Biso   1.000  C
  H119     1.0000 0.41180  0.24410  0.46540  Biso   1.000  H
  H120     1.0000 0.42000  0.16480  0.51900  Biso   1.000  H
  C87      1.0000 0.48130  0.20170  0.53130  Biso   1.000  C
  H121     1.0000 0.49390  0.12260  0.55980  Biso   1.000  H
  H122     1.0000 0.48260  0.17150  0.50060  Biso   1.000  H
  C88      1.0000 0.41436  0.50980  0.49020  Biso   1.000  C
  H123     1.0000 0.42050  0.60290  0.51080  Biso   1.000  H
  H124     1.0000 0.38150  0.49710  0.46360  Biso   1.000  H
  C89      1.0000 0.42004  0.66760  0.42450  Biso   1.000  C
  H125     1.0000 0.42980  0.75090  0.45080  Biso   1.000  H
  H126     1.0000 0.38730  0.67470  0.39470  Biso   1.000  H
  C90      1.0000 0.55580  0.32720  0.60240  Biso   1.000  C
  H127     1.0000 0.56210  0.23240  0.62210  Biso   1.000  H
  H128     1.0000 0.56730  0.40660  0.63070  Biso   1.000  H
  C91      1.0000 0.33574  0.64050  0.10624  Biso   1.000  C
  H129     1.0000 0.36350  0.58140  0.12650  Biso   1.000  H
  H130     1.0000 0.34340  0.74510  0.10790  Biso   1.000  H
  C92      1.0000 0.28926  0.44370  0.05590  Biso   1.000  C
  H131     1.0000 0.31140  0.36700  0.06550  Biso   1.000  H
  H132     1.0000 0.25940  0.41230  0.02200  Biso   1.000  H
  C93      1.0000 0.28850  0.47220  0.10600  Biso   1.000  C
  H133     1.0000 0.25730  0.47690  0.09280  Biso   1.000  H
  H134     1.0000 0.30450  0.39330  0.13450  Biso   1.000  H
  C94      1.0000 0.21785  0.75860  0.87791  Biso   1.000  C
  H135     1.0000 0.22760  0.77680  0.85440  Biso   1.000  H
  H136     1.0000 0.20020  0.66680  0.86430  Biso   1.000  H
  C95      1.0000 0.28256  0.59310  0.94920  Biso   1.000  C
  H137     1.0000 0.29470  0.58940  0.92800  Biso   1.000  H
  H138     1.0000 0.26130  0.51070  0.93650  Biso   1.000  H
  C96      1.0000 0.32094  0.58020  0.01310  Biso   1.000  C
  H139     1.0000 0.33660  0.48550  0.02120  Biso   1.000  H
  H140     1.0000 0.34280  0.66010  0.02530  Biso   1.000  H
  C97      1.0000 0.32611  0.99070  0.03791  Biso   1.000  C
  C98      1.0000 0.35806  0.10530  0.08274  Biso   1.000  C
  C99      1.0000 0.36498  0.11830  0.13487  Biso   1.000  C
  H141     1.0000 0.34960  0.05380  0.14250  Biso   1.000  H
  C100     1.0000 0.39372  0.22350  0.17498  Biso   1.000  C
  H142     1.0000 0.39840  0.22870  0.20980  Biso   1.000  H
  C101     1.0000 0.41586  0.32240  0.16342  Biso   1.000  C
  C102     1.0000 0.40946  0.31460  0.11183  Biso   1.000  C
  H143     1.0000 0.42410  0.38180  0.10390  Biso   1.000  H
  C103     1.0000 0.38098  0.20520  0.07237  Biso   1.000  C
  H144     1.0000 0.37700  0.19830  0.03800  Biso   1.000  H
  C104     1.0000 0.46916  0.52400  0.19667  Biso   1.000  C
  H145     1.0000 0.44890  0.58640  0.16300  Biso   1.000  H
  H146     1.0000 0.48750  0.46450  0.19030  Biso   1.000  H
  C105     1.0000 0.47131  0.72040  0.25913  Biso   1.000  C
  H147     1.0000 0.44890  0.77640  0.22440  Biso   1.000  H
  H148     1.0000 0.45550  0.66000  0.26930  Biso   1.000  H
  C106     1.0000 0.48783  0.92800  0.32254  Biso   1.000  C
  C107     1.0000 0.52236  0.01630  0.36760  Biso   1.000  C
  H149     1.0000 0.55240  0.00360  0.38160  Biso   1.000  H
  C108     1.0000 0.51155  0.12290  0.39120  Biso   1.000  C
  H150     1.0000 0.53470  0.18070  0.42180  Biso   1.000  H
  C109     1.0000 0.46668  0.14600  0.37034  Biso   1.000  C
  C110     1.0000 0.43283  0.06170  0.32391  Biso   1.000  C
  H151     1.0000 0.40250  0.07900  0.30820  Biso   1.000  H
  C111     1.0000 0.44298  0.95050  0.29976  Biso   1.000  C
  H152     1.0000 0.41990  0.89310  0.26890  Biso   1.000  H
  C112     1.0000 0.45659  0.25620  0.39974  Biso   1.000  C
  O25      1.0000 0.80061  0.57730  0.54592  Biso   1.000  O
  O26      1.0000 0.82692  0.53130  0.49664  Biso   1.000  O
  O27      1.0000 0.94317  0.07150  0.70530  Biso   1.000  O
  O28      1.0000 0.00309  0.68040  0.80540  Biso   1.000  O
  O29      1.0000 0.91598  0.22730  0.88038  Biso   1.000  O
  O30      1.0000 0.98994  0.17640  0.94318  Biso   1.000  O
  N25      1.0000 0.75895  0.76320  0.43855  Biso   1.000  N
  H153     1.0000 0.78050  0.68400  0.44710  Biso   1.000  H
  N26      1.0000 0.80234  0.91040  0.54578  Biso   1.000  N
  N27      1.0000 0.81181  0.88240  0.63067  Biso   1.000  N
  N28      1.0000 0.00582  0.15510  0.05767  Biso   1.000  N
  N29      1.0000 0.93181  0.97660  0.95609  Biso   1.000  N
  H154     1.0000 0.91710  0.05600  0.92690  Biso   1.000  H
  N30      1.0000 0.93358  0.11170  0.03136  Biso   1.000  N
  C113     1.0000 0.98173  0.09630  0.07950  Biso   1.000  C
  H155     1.0000 0.98950  0.15390  0.11240  Biso   1.000  H
  H156     1.0000 0.98960  0.99230  0.09080  Biso   1.000  H
  C114     1.0000 0.93164  0.26000  0.00720  Biso   1.000  C
  H157     1.0000 0.91180  0.25590  0.96540  Biso   1.000  H
  H158     1.0000 0.92000  0.33520  0.01900  Biso   1.000  H
  C115     1.0000 0.98130  0.29830  0.03130  Biso   1.000  C
  H159     1.0000 0.99390  0.37740  0.05980  Biso   1.000  H
  H160     1.0000 0.98260  0.32850  0.00060  Biso   1.000  H
  C116     1.0000 0.91436  0.99020  0.99020  Biso   1.000  C
  H161     1.0000 0.92050  0.89710  0.01080  Biso   1.000  H
  H162     1.0000 0.88150  0.00290  0.96360  Biso   1.000  H
  C117     1.0000 0.92004  0.83240  0.92450  Biso   1.000  C
  H163     1.0000 0.92980  0.74910  0.95080  Biso   1.000  H
  H164     1.0000 0.88730  0.82530  0.89470  Biso   1.000  H
  C118     1.0000 0.05580  0.17280  0.10240  Biso   1.000  C
  H165     1.0000 0.06210  0.26760  0.12210  Biso   1.000  H
  H166     1.0000 0.06730  0.09340  0.13070  Biso   1.000  H
  C119     1.0000 0.83574  0.85950  0.60624  Biso   1.000  C
  H167     1.0000 0.86350  0.91860  0.62650  Biso   1.000  H
  H168     1.0000 0.84340  0.75490  0.60790  Biso   1.000  H
  C120     1.0000 0.78926  0.05630  0.55590  Biso   1.000  C
  H169     1.0000 0.81140  0.13300  0.56550  Biso   1.000  H
  H170     1.0000 0.75940  0.08770  0.52200  Biso   1.000  H
  C121     1.0000 0.78850  0.02780  0.60600  Biso   1.000  C
  H171     1.0000 0.75730  0.02310  0.59280  Biso   1.000  H
  H172     1.0000 0.80450  0.10670  0.63450  Biso   1.000  H
  C122     1.0000 0.71785  0.74140  0.37791  Biso   1.000  C
  H173     1.0000 0.72760  0.72320  0.35440  Biso   1.000  H
  H174     1.0000 0.70020  0.83320  0.36430  Biso   1.000  H
  C123     1.0000 0.78256  0.90690  0.44920  Biso   1.000  C
  H175     1.0000 0.79470  0.91060  0.42800  Biso   1.000  H
  H176     1.0000 0.76130  0.98930  0.43650  Biso   1.000  H
  C124     1.0000 0.82094  0.91980  0.51310  Biso   1.000  C
  H177     1.0000 0.83660  0.01450  0.52120  Biso   1.000  H
  H178     1.0000 0.84280  0.83990  0.52530  Biso   1.000  H
  C125     1.0000 0.82611  0.50930  0.53791  Biso   1.000  C
  C126     1.0000 0.85806  0.39470  0.58274  Biso   1.000  C
  C127     1.0000 0.86498  0.38170  0.63487  Biso   1.000  C
  H179     1.0000 0.84960  0.44620  0.64250  Biso   1.000  H
  C128     1.0000 0.89372  0.27650  0.67498  Biso   1.000  C
  H180     1.0000 0.89840  0.27130  0.70980  Biso   1.000  H
  C129     1.0000 0.91586  0.17760  0.66342  Biso   1.000  C
  C130     1.0000 0.90946  0.18540  0.61183  Biso   1.000  C
  H181     1.0000 0.92410  0.11820  0.60390  Biso   1.000  H
  C131     1.0000 0.88098  0.29480  0.57237  Biso   1.000  C
  H182     1.0000 0.87700  0.30170  0.53800  Biso   1.000  H
  C132     1.0000 0.96916  0.97600  0.69667  Biso   1.000  C
  H183     1.0000 0.94890  0.91360  0.66300  Biso   1.000  H
  H184     1.0000 0.98750  0.03550  0.69030  Biso   1.000  H
  C133     1.0000 0.97131  0.77960  0.75913  Biso   1.000  C
  H185     1.0000 0.94890  0.72360  0.72440  Biso   1.000  H
  H186     1.0000 0.95550  0.84000  0.76930  Biso   1.000  H
  C134     1.0000 0.98783  0.57200  0.82254  Biso   1.000  C
  C135     1.0000 0.02236  0.48370  0.86760  Biso   1.000  C
  H187     1.0000 0.05240  0.49640  0.88160  Biso   1.000  H
  C136     1.0000 0.01155  0.37710  0.89120  Biso   1.000  C
  H188     1.0000 0.03470  0.31930  0.92180  Biso   1.000  H
  C137     1.0000 0.96668  0.35400  0.87034  Biso   1.000  C
  C138     1.0000 0.93283  0.43830  0.82391  Biso   1.000  C
  H189     1.0000 0.90250  0.42100  0.80820  Biso   1.000  H
  C139     1.0000 0.94298  0.54950  0.79976  Biso   1.000  C
  H190     1.0000 0.91990  0.60690  0.76890  Biso   1.000  H
  C140     1.0000 0.95659  0.24380  0.89974  Biso   1.000  C
  O31      1.0000 0.30061  0.07730  0.54592  Biso   1.000  O
  O32      1.0000 0.32692  0.03130  0.49664  Biso   1.000  O
  O33      1.0000 0.44317  0.57150  0.70530  Biso   1.000  O
  O34      1.0000 0.50309  0.18040  0.80540  Biso   1.000  O
  O35      1.0000 0.41598  0.72730  0.88038  Biso   1.000  O
  O36      1.0000 0.48994  0.67640  0.94318  Biso   1.000  O
  N31      1.0000 0.25895  0.26320  0.43855  Biso   1.000  N
  H191     1.0000 0.28050  0.18400  0.44710  Biso   1.000  H
  N32      1.0000 0.30234  0.41040  0.54578  Biso   1.000  N
  N33      1.0000 0.31181  0.38240  0.63067  Biso   1.000  N
  N34      1.0000 0.50582  0.65510  0.05767  Biso   1.000  N
  N35      1.0000 0.43181  0.47660  0.95609  Biso   1.000  N
  H192     1.0000 0.41710  0.55600  0.92690  Biso   1.000  H
  N36      1.0000 0.43358  0.61170  0.03136  Biso   1.000  N
  C141     1.0000 0.48173  0.59630  0.07950  Biso   1.000  C
  H193     1.0000 0.48950  0.65390  0.11240  Biso   1.000  H
  H194     1.0000 0.48960  0.49230  0.09080  Biso   1.000  H
  C142     1.0000 0.43164  0.76000  0.00720  Biso   1.000  C
  H195     1.0000 0.41180  0.75590  0.96540  Biso   1.000  H
  H196     1.0000 0.42000  0.83520  0.01900  Biso   1.000  H
  C143     1.0000 0.48130  0.79830  0.03130  Biso   1.000  C
  H197     1.0000 0.49390  0.87740  0.05980  Biso   1.000  H
  H198     1.0000 0.48260  0.82850  0.00060  Biso   1.000  H
  C144     1.0000 0.41436  0.49020  0.99020  Biso   1.000  C
  H199     1.0000 0.42050  0.39710  0.01080  Biso   1.000  H
  H200     1.0000 0.38150  0.50290  0.96360  Biso   1.000  H
  C145     1.0000 0.42004  0.33240  0.92450  Biso   1.000  C
  H201     1.0000 0.42980  0.24910  0.95080  Biso   1.000  H
  H202     1.0000 0.38730  0.32530  0.89470  Biso   1.000  H
  C146     1.0000 0.55580  0.67280  0.10240  Biso   1.000  C
  H203     1.0000 0.56210  0.76760  0.12210  Biso   1.000  H
  H204     1.0000 0.56730  0.59340  0.13070  Biso   1.000  H
  C147     1.0000 0.33574  0.35950  0.60624  Biso   1.000  C
  H205     1.0000 0.36350  0.41860  0.62650  Biso   1.000  H
  H206     1.0000 0.34340  0.25490  0.60790  Biso   1.000  H
  C148     1.0000 0.28926  0.55630  0.55590  Biso   1.000  C
  H207     1.0000 0.31140  0.63300  0.56550  Biso   1.000  H
  H208     1.0000 0.25940  0.58770  0.52200  Biso   1.000  H
  C149     1.0000 0.28850  0.52780  0.60600  Biso   1.000  C
  H209     1.0000 0.25730  0.52310  0.59280  Biso   1.000  H
  H210     1.0000 0.30450  0.60670  0.63450  Biso   1.000  H
  C150     1.0000 0.21785  0.24140  0.37791  Biso   1.000  C
  H211     1.0000 0.22760  0.22320  0.35440  Biso   1.000  H
  H212     1.0000 0.20020  0.33320  0.36430  Biso   1.000  H
  C151     1.0000 0.28256  0.40690  0.44920  Biso   1.000  C
  H213     1.0000 0.29470  0.41060  0.42800  Biso   1.000  H
  H214     1.0000 0.26130  0.48930  0.43650  Biso   1.000  H
  C152     1.0000 0.32094  0.41980  0.51310  Biso   1.000  C
  H215     1.0000 0.33660  0.51450  0.52120  Biso   1.000  H
  H216     1.0000 0.34280  0.33990  0.52530  Biso   1.000  H
  C153     1.0000 0.32611  0.00930  0.53791  Biso   1.000  C
  C154     1.0000 0.35806  0.89470  0.58274  Biso   1.000  C
  C155     1.0000 0.36498  0.88170  0.63487  Biso   1.000  C
  H217     1.0000 0.34960  0.94620  0.64250  Biso   1.000  H
  C156     1.0000 0.39372  0.77650  0.67498  Biso   1.000  C
  H218     1.0000 0.39840  0.77130  0.70980  Biso   1.000  H
  C157     1.0000 0.41586  0.67760  0.66342  Biso   1.000  C
  C158     1.0000 0.40946  0.68540  0.61183  Biso   1.000  C
  H219     1.0000 0.42410  0.61820  0.60390  Biso   1.000  H
  C159     1.0000 0.38098  0.79480  0.57237  Biso   1.000  C
  H220     1.0000 0.37700  0.80170  0.53800  Biso   1.000  H
  C160     1.0000 0.46916  0.47600  0.69667  Biso   1.000  C
  H221     1.0000 0.44890  0.41360  0.66300  Biso   1.000  H
  H222     1.0000 0.48750  0.53550  0.69030  Biso   1.000  H
  C161     1.0000 0.47131  0.27960  0.75913  Biso   1.000  C
  H223     1.0000 0.44890  0.22360  0.72440  Biso   1.000  H
  H224     1.0000 0.45550  0.34000  0.76930  Biso   1.000  H
  C162     1.0000 0.48783  0.07200  0.82254  Biso   1.000  C
  C163     1.0000 0.52236  0.98370  0.86760  Biso   1.000  C
  H225     1.0000 0.55240  0.99640  0.88160  Biso   1.000  H
  C164     1.0000 0.51155  0.87710  0.89120  Biso   1.000  C
  H226     1.0000 0.53470  0.81930  0.92180  Biso   1.000  H
  C165     1.0000 0.46668  0.85400  0.87034  Biso   1.000  C
  C166     1.0000 0.43283  0.93830  0.82391  Biso   1.000  C
  H227     1.0000 0.40250  0.92100  0.80820  Biso   1.000  H
  C167     1.0000 0.44298  0.04950  0.79976  Biso   1.000  C
  H228     1.0000 0.41990  0.10690  0.76890  Biso   1.000  H
  C168     1.0000 0.45659  0.74380  0.89974  Biso   1.000  C
  O37      1.0000 0.19939  0.57730  0.95408  Biso   1.000  O
  O38      1.0000 0.17308  0.53130  0.00336  Biso   1.000  O
  O39      1.0000 0.05683  0.07150  0.79470  Biso   1.000  O
  O40      1.0000 0.99691  0.68040  0.69460  Biso   1.000  O
  O41      1.0000 0.08402  0.22730  0.61962  Biso   1.000  O
  O42      1.0000 0.01006  0.17640  0.55682  Biso   1.000  O
  N37      1.0000 0.24105  0.76320  0.06145  Biso   1.000  N
  H229     1.0000 0.21950  0.68400  0.05290  Biso   1.000  H
  N38      1.0000 0.19766  0.91040  0.95422  Biso   1.000  N
  N39      1.0000 0.18819  0.88240  0.86933  Biso   1.000  N
  N40      1.0000 0.99418  0.15510  0.44233  Biso   1.000  N
  N41      1.0000 0.06819  0.97660  0.54391  Biso   1.000  N
  H230     1.0000 0.08290  0.05600  0.57310  Biso   1.000  H
  N42      1.0000 0.06642  0.11170  0.46864  Biso   1.000  N
  C169     1.0000 0.01827  0.09630  0.42050  Biso   1.000  C
  H231     1.0000 0.01050  0.15390  0.38760  Biso   1.000  H
  H232     1.0000 0.01040  0.99230  0.40920  Biso   1.000  H
  C170     1.0000 0.06836  0.26000  0.49280  Biso   1.000  C
  H233     1.0000 0.08820  0.25590  0.53460  Biso   1.000  H
  H234     1.0000 0.08000  0.33520  0.48100  Biso   1.000  H
  C171     1.0000 0.01870  0.29830  0.46870  Biso   1.000  C
  H235     1.0000 0.00610  0.37740  0.44020  Biso   1.000  H
  H236     1.0000 0.01740  0.32850  0.49940  Biso   1.000  H
  C172     1.0000 0.08564  0.99020  0.50980  Biso   1.000  C
  H237     1.0000 0.07950  0.89710  0.48920  Biso   1.000  H
  H238     1.0000 0.11850  0.00290  0.53640  Biso   1.000  H
  C173     1.0000 0.07996  0.83240  0.57550  Biso   1.000  C
  H239     1.0000 0.07020  0.74910  0.54920  Biso   1.000  H
  H240     1.0000 0.11270  0.82530  0.60530  Biso   1.000  H
  C174     1.0000 0.94420  0.17280  0.39760  Biso   1.000  C
  H241     1.0000 0.93790  0.26760  0.37790  Biso   1.000  H
  H242     1.0000 0.93270  0.09340  0.36930  Biso   1.000  H
  C175     1.0000 0.16426  0.85950  0.89376  Biso   1.000  C
  H243     1.0000 0.13650  0.91860  0.87350  Biso   1.000  H
  H244     1.0000 0.15660  0.75490  0.89210  Biso   1.000  H
  C176     1.0000 0.21074  0.05630  0.94410  Biso   1.000  C
  H245     1.0000 0.18860  0.13300  0.93450  Biso   1.000  H
  H246     1.0000 0.24060  0.08770  0.97800  Biso   1.000  H
  C177     1.0000 0.21150  0.02780  0.89400  Biso   1.000  C
  H247     1.0000 0.24270  0.02310  0.90720  Biso   1.000  H
  H248     1.0000 0.19550  0.10670  0.86550  Biso   1.000  H
  C178     1.0000 0.28215  0.74140  0.12209  Biso   1.000  C
  H249     1.0000 0.27240  0.72320  0.14560  Biso   1.000  H
  H250     1.0000 0.29980  0.83320  0.13570  Biso   1.000  H
  C179     1.0000 0.21744  0.90690  0.05080  Biso   1.000  C
  H251     1.0000 0.20530  0.91060  0.07200  Biso   1.000  H
  H252     1.0000 0.23870  0.98930  0.06350  Biso   1.000  H
  C180     1.0000 0.17906  0.91980  0.98690  Biso   1.000  C
  H253     1.0000 0.16340  0.01450  0.97880  Biso   1.000  H
  H254     1.0000 0.15720  0.83990  0.97470  Biso   1.000  H
  C181     1.0000 0.17389  0.50930  0.96209  Biso   1.000  C
  C182     1.0000 0.14194  0.39470  0.91726  Biso   1.000  C
  C183     1.0000 0.13502  0.38170  0.86513  Biso   1.000  C
  H255     1.0000 0.15040  0.44620  0.85750  Biso   1.000  H
  C184     1.0000 0.10628  0.27650  0.82502  Biso   1.000  C
  H256     1.0000 0.10160  0.27130  0.79020  Biso   1.000  H
  C185     1.0000 0.08414  0.17760  0.83658  Biso   1.000  C
  C186     1.0000 0.09054  0.18540  0.88817  Biso   1.000  C
  H257     1.0000 0.07590  0.11820  0.89610  Biso   1.000  H
  C187     1.0000 0.11902  0.29480  0.92763  Biso   1.000  C
  H258     1.0000 0.12300  0.30170  0.96200  Biso   1.000  H
  C188     1.0000 0.03084  0.97600  0.80333  Biso   1.000  C
  H259     1.0000 0.05110  0.91360  0.83700  Biso   1.000  H
  H260     1.0000 0.01250  0.03550  0.80970  Biso   1.000  H
  C189     1.0000 0.02869  0.77960  0.74087  Biso   1.000  C
  H261     1.0000 0.05110  0.72360  0.77560  Biso   1.000  H
  H262     1.0000 0.04450  0.84000  0.73070  Biso   1.000  H
  C190     1.0000 0.01217  0.57200  0.67746  Biso   1.000  C
  C191     1.0000 0.97764  0.48370  0.63240  Biso   1.000  C
  H263     1.0000 0.94760  0.49640  0.61840  Biso   1.000  H
  C192     1.0000 0.98845  0.37710  0.60880  Biso   1.000  C
  H264     1.0000 0.96530  0.31930  0.57820  Biso   1.000  H
  C193     1.0000 0.03332  0.35400  0.62966  Biso   1.000  C
  C194     1.0000 0.06717  0.43830  0.67609  Biso   1.000  C
  H265     1.0000 0.09750  0.42100  0.69180  Biso   1.000  H
  C195     1.0000 0.05702  0.54950  0.70024  Biso   1.000  C
  H266     1.0000 0.08010  0.60690  0.73110  Biso   1.000  H
  C196     1.0000 0.04341  0.24380  0.60026  Biso   1.000  C
  O43      1.0000 0.69939  0.07730  0.95408  Biso   1.000  O
  O44      1.0000 0.67308  0.03130  0.00336  Biso   1.000  O
  O45      1.0000 0.55683  0.57150  0.79470  Biso   1.000  O
  O46      1.0000 0.49691  0.18040  0.69460  Biso   1.000  O
  O47      1.0000 0.58402  0.72730  0.61962  Biso   1.000  O
  O48      1.0000 0.51006  0.67640  0.55682  Biso   1.000  O
  N43      1.0000 0.74105  0.26320  0.06145  Biso   1.000  N
  H267     1.0000 0.71950  0.18400  0.05290  Biso   1.000  H
  N44      1.0000 0.69766  0.41040  0.95422  Biso   1.000  N
  N45      1.0000 0.68819  0.38240  0.86933  Biso   1.000  N
  N46      1.0000 0.49418  0.65510  0.44233  Biso   1.000  N
  N47      1.0000 0.56819  0.47660  0.54391  Biso   1.000  N
  H268     1.0000 0.58290  0.55600  0.57310  Biso   1.000  H
  N48      1.0000 0.56642  0.61170  0.46864  Biso   1.000  N
  C197     1.0000 0.51827  0.59630  0.42050  Biso   1.000  C
  H269     1.0000 0.51050  0.65390  0.38760  Biso   1.000  H
  H270     1.0000 0.51040  0.49230  0.40920  Biso   1.000  H
  C198     1.0000 0.56836  0.76000  0.49280  Biso   1.000  C
  H271     1.0000 0.58820  0.75590  0.53460  Biso   1.000  H
  H272     1.0000 0.58000  0.83520  0.48100  Biso   1.000  H
  C199     1.0000 0.51870  0.79830  0.46870  Biso   1.000  C
  H273     1.0000 0.50610  0.87740  0.44020  Biso   1.000  H
  H274     1.0000 0.51740  0.82850  0.49940  Biso   1.000  H
  C200     1.0000 0.58564  0.49020  0.50980  Biso   1.000  C
  H275     1.0000 0.57950  0.39710  0.48920  Biso   1.000  H
  H276     1.0000 0.61850  0.50290  0.53640  Biso   1.000  H
  C201     1.0000 0.57996  0.33240  0.57550  Biso   1.000  C
  H277     1.0000 0.57020  0.24910  0.54920  Biso   1.000  H
  H278     1.0000 0.61270  0.32530  0.60530  Biso   1.000  H
  C202     1.0000 0.44420  0.67280  0.39760  Biso   1.000  C
  H279     1.0000 0.43790  0.76760  0.37790  Biso   1.000  H
  H280     1.0000 0.43270  0.59340  0.36930  Biso   1.000  H
  C203     1.0000 0.66426  0.35950  0.89376  Biso   1.000  C
  H281     1.0000 0.63650  0.41860  0.87350  Biso   1.000  H
  H282     1.0000 0.65660  0.25490  0.89210  Biso   1.000  H
  C204     1.0000 0.71074  0.55630  0.94410  Biso   1.000  C
  H283     1.0000 0.68860  0.63300  0.93450  Biso   1.000  H
  H284     1.0000 0.74060  0.58770  0.97800  Biso   1.000  H
  C205     1.0000 0.71150  0.52780  0.89400  Biso   1.000  C
  H285     1.0000 0.74270  0.52310  0.90720  Biso   1.000  H
  H286     1.0000 0.69550  0.60670  0.86550  Biso   1.000  H
  C206     1.0000 0.78215  0.24140  0.12209  Biso   1.000  C
  H287     1.0000 0.77240  0.22320  0.14560  Biso   1.000  H
  H288     1.0000 0.79980  0.33320  0.13570  Biso   1.000  H
  C207     1.0000 0.71744  0.40690  0.05080  Biso   1.000  C
  H289     1.0000 0.70530  0.41060  0.07200  Biso   1.000  H
  H290     1.0000 0.73870  0.48930  0.06350  Biso   1.000  H
  C208     1.0000 0.67906  0.41980  0.98690  Biso   1.000  C
  H291     1.0000 0.66340  0.51450  0.97880  Biso   1.000  H
  H292     1.0000 0.65720  0.33990  0.97470  Biso   1.000  H
  C209     1.0000 0.67389  0.00930  0.96209  Biso   1.000  C
  C210     1.0000 0.64194  0.89470  0.91726  Biso   1.000  C
  C211     1.0000 0.63502  0.88170  0.86513  Biso   1.000  C
  H293     1.0000 0.65040  0.94620  0.85750  Biso   1.000  H
  C212     1.0000 0.60628  0.77650  0.82502  Biso   1.000  C
  H294     1.0000 0.60160  0.77130  0.79020  Biso   1.000  H
  C213     1.0000 0.58414  0.67760  0.83658  Biso   1.000  C
  C214     1.0000 0.59054  0.68540  0.88817  Biso   1.000  C
  H295     1.0000 0.57590  0.61820  0.89610  Biso   1.000  H
  C215     1.0000 0.61902  0.79480  0.92763  Biso   1.000  C
  H296     1.0000 0.62300  0.80170  0.96200  Biso   1.000  H
  C216     1.0000 0.53084  0.47600  0.80333  Biso   1.000  C
  H297     1.0000 0.55110  0.41360  0.83700  Biso   1.000  H
  H298     1.0000 0.51250  0.53550  0.80970  Biso   1.000  H
  C217     1.0000 0.52869  0.27960  0.74087  Biso   1.000  C
  H299     1.0000 0.55110  0.22360  0.77560  Biso   1.000  H
  H300     1.0000 0.54450  0.34000  0.73070  Biso   1.000  H
  C218     1.0000 0.51217  0.07200  0.67746  Biso   1.000  C
  C219     1.0000 0.47764  0.98370  0.63240  Biso   1.000  C
  H301     1.0000 0.44760  0.99640  0.61840  Biso   1.000  H
  C220     1.0000 0.48845  0.87710  0.60880  Biso   1.000  C
  H302     1.0000 0.46530  0.81930  0.57820  Biso   1.000  H
  C221     1.0000 0.53332  0.85400  0.62966  Biso   1.000  C
  C222     1.0000 0.56717  0.93830  0.67609  Biso   1.000  C
  H303     1.0000 0.59750  0.92100  0.69180  Biso   1.000  H
  C223     1.0000 0.55702  0.04950  0.70024  Biso   1.000  C
  H304     1.0000 0.58010  0.10690  0.73110  Biso   1.000  H
  C224     1.0000 0.54341  0.74380  0.60026  Biso   1.000  C
  Ni1      1.0000 0.00000  0.00000  0.00000  Biso   1.000  Ni
  Ni2      1.0000 0.50000  0.50000  0.00000  Biso   1.000  Ni
  Ni3      1.0000 0.00000  0.00000  0.50000  Biso   1.000  Ni
  Ni4      1.0000 0.50000  0.50000  0.50000  Biso   1.000  Ni
  Ni5      1.0000 0.25000  0.25000  0.50000  Biso   1.000  Ni
  Ni6      1.0000 0.75000  0.25000  0.00000  Biso   1.000  Ni
  Ni7      1.0000 0.75000  0.75000  0.50000  Biso   1.000  Ni
  Ni8      1.0000 0.25000  0.75000  0.00000  Biso   1.000  Ni
  C225     1.0000 0.00000  0.12180  0.25000  Biso   1.000  C
  C226     1.0000 0.50000  0.62180  0.25000  Biso   1.000  C
  C227     1.0000 0.00000  0.87820  0.75000  Biso   1.000  C
  C228     1.0000 0.50000  0.37820  0.75000  Biso   1.000  C
