data_image0
_cell_length_a       20.6271
_cell_length_b       13.6669
_cell_length_c       20.6839
_cell_angle_alpha    90
_cell_angle_beta     90
_cell_angle_gamma    90

_symmetry_space_group_name_H-M    "P 1"
_symmetry_int_tables_number       1

loop_
  _symmetry_equiv_pos_as_xyz
  'x, y, z'

loop_
  _atom_site_label
  _atom_site_occupancy
  _atom_site_fract_x
  _atom_site_fract_y
  _atom_site_fract_z
  _atom_site_thermal_displace_type
  _atom_site_B_iso_or_equiv
  _atom_site_type_symbol
  Cd1      1.0000 0.67189  0.62744  0.81044  Biso   1.000  Cd
  O1       1.0000 0.64680  0.51270  0.90040  Biso   1.000  O
  O2       1.0000 0.74220  0.50050  0.85500  Biso   1.000  O
  O3       1.0000 0.57500  0.69990  0.83130  Biso   1.000  O
  O4       1.0000 0.61900  0.79320  0.75730  Biso   1.000  O
  N1       1.0000 0.62240  0.52580  0.73440  Biso   1.000  N
  N2       1.0000 0.71750  0.73230  0.89090  Biso   1.000  N
  C1       1.0000 0.70430  0.48320  0.90060  Biso   1.000  C
  C2       1.0000 0.57510  0.77710  0.79620  Biso   1.000  C
  C3       1.0000 0.57040  0.55130  0.70040  Biso   1.000  C
  C4       1.0000 0.64200  0.43320  0.72910  Biso   1.000  C
  C5       1.0000 0.78020  0.72660  0.90650  Biso   1.000  C
  C6       1.0000 0.68220  0.79800  0.92380  Biso   1.000  C
  C7       1.0000 0.73070  0.42970  0.95970  Biso   1.000  C
  C8       1.0000 0.52060  0.84780  0.80740  Biso   1.000  C
  H1       1.0000 0.55630  0.61570  0.70320  Biso   1.000  H
  C9       1.0000 0.53670  0.48940  0.66210  Biso   1.000  C
  C10      1.0000 0.61120  0.36490  0.69110  Biso   1.000  C
  H2       1.0000 0.67840  0.41370  0.75230  Biso   1.000  H
  H3       1.0000 0.80560  0.68140  0.88440  Biso   1.000  H
  C11      1.0000 0.80920  0.78230  0.95240  Biso   1.000  C
  C12      1.0000 0.70850  0.86020  0.97020  Biso   1.000  C
  H4       1.0000 0.63800  0.80230  0.91510  Biso   1.000  H
  H5       1.0000 0.75650  0.37420  0.94600  Biso   1.000  H
  H6       1.0000 0.69500  0.40550  0.98570  Biso   1.000  H
  H7       1.0000 0.53310  0.89170  0.84210  Biso   1.000  H
  H8       1.0000 0.48320  0.81110  0.82220  Biso   1.000  H
  H9       1.0000 0.50020  0.51110  0.64000  Biso   1.000  H
  C13      1.0000 0.55740  0.39300  0.65600  Biso   1.000  C
  H10      1.0000 0.62630  0.30090  0.68900  Biso   1.000  H
  H11      1.0000 0.85280  0.77270  0.96220  Biso   1.000  H
  C14      1.0000 0.77380  0.85420  0.98510  Biso   1.000  C
  H12      1.0000 0.68220  0.90560  0.99120  Biso   1.000  H
  H13      1.0000 0.79910  0.53140  0.96940  Biso   1.000  H
  H14      1.0000 0.53550  0.95060  0.73780  Biso   1.000  H
  C15      1.0000 0.52050  0.32080  0.61480  Biso   1.000  C
  C16      1.0000 0.80610  0.92010  0.03320  Biso   1.000  C
  H15      1.0000 0.54840  0.26600  0.60380  Biso   1.000  H
  H16      1.0000 0.50700  0.35200  0.57490  Biso   1.000  H
  C17      1.0000 0.46150  0.28440  0.65150  Biso   1.000  C
  H17      1.0000 0.83360  0.88140  0.06130  Biso   1.000  H
  H18      1.0000 0.77320  0.95110  0.05990  Biso   1.000  H
  H19      1.0000 0.43370  0.33980  0.66100  Biso   1.000  H
  H20      1.0000 0.47570  0.25700  0.69240  Biso   1.000  H
  C18      1.0000 0.42170  0.20720  0.61540  Biso   1.000  C
  H21      1.0000 0.87380  0.03590  0.02890  Biso   1.000  H
  C19      1.0000 0.36200  0.18070  0.65450  Biso   1.000  C
  H22      1.0000 0.40870  0.23250  0.57360  Biso   1.000  H
  H23      1.0000 0.44790  0.14920  0.60840  Biso   1.000  H
  C20      1.0000 0.30830  0.23450  0.65350  Biso   1.000  C
  C21      1.0000 0.36220  0.10570  0.69680  Biso   1.000  C
  C22      1.0000 0.25830  0.21830  0.69570  Biso   1.000  C
  H24      1.0000 0.30470  0.28460  0.62340  Biso   1.000  H
  H25      1.0000 0.39690  0.06230  0.69830  Biso   1.000  H
  C23      1.0000 0.31060  0.09450  0.73750  Biso   1.000  C
  H26      1.0000 0.22260  0.25970  0.69440  Biso   1.000  H
  N3       1.0000 0.25870  0.14750  0.73730  Biso   1.000  N
  H27      1.0000 0.31290  0.04450  0.76800  Biso   1.000  H
  Cd2      1.0000 0.17189  0.12744  0.81044  Biso   1.000  Cd
  O5       1.0000 0.14680  0.01270  0.90040  Biso   1.000  O
  O6       1.0000 0.24220  0.00050  0.85500  Biso   1.000  O
  O7       1.0000 0.07500  0.19990  0.83130  Biso   1.000  O
  O8       1.0000 0.11900  0.29320  0.75730  Biso   1.000  O
  N4       1.0000 0.12240  0.02580  0.73440  Biso   1.000  N
  N5       1.0000 0.21750  0.23230  0.89090  Biso   1.000  N
  C24      1.0000 0.20430  0.98320  0.90060  Biso   1.000  C
  C25      1.0000 0.07510  0.27710  0.79620  Biso   1.000  C
  C26      1.0000 0.07040  0.05130  0.70040  Biso   1.000  C
  C27      1.0000 0.14200  0.93320  0.72910  Biso   1.000  C
  C28      1.0000 0.28020  0.22660  0.90650  Biso   1.000  C
  C29      1.0000 0.18220  0.29800  0.92380  Biso   1.000  C
  C30      1.0000 0.23070  0.92970  0.95970  Biso   1.000  C
  C31      1.0000 0.02060  0.34780  0.80740  Biso   1.000  C
  H28      1.0000 0.05630  0.11570  0.70320  Biso   1.000  H
  C32      1.0000 0.03670  0.98940  0.66210  Biso   1.000  C
  C33      1.0000 0.11120  0.86490  0.69110  Biso   1.000  C
  H29      1.0000 0.17840  0.91370  0.75230  Biso   1.000  H
  H30      1.0000 0.30560  0.18140  0.88440  Biso   1.000  H
  C34      1.0000 0.30920  0.28230  0.95240  Biso   1.000  C
  C35      1.0000 0.20850  0.36020  0.97020  Biso   1.000  C
  H31      1.0000 0.13800  0.30230  0.91510  Biso   1.000  H
  H32      1.0000 0.25650  0.87420  0.94600  Biso   1.000  H
  H33      1.0000 0.19500  0.90550  0.98570  Biso   1.000  H
  H34      1.0000 0.03310  0.39170  0.84210  Biso   1.000  H
  H35      1.0000 0.98320  0.31110  0.82220  Biso   1.000  H
  H36      1.0000 0.00020  0.01110  0.64000  Biso   1.000  H
  C36      1.0000 0.05740  0.89300  0.65600  Biso   1.000  C
  H37      1.0000 0.12630  0.80090  0.68900  Biso   1.000  H
  H38      1.0000 0.35280  0.27270  0.96220  Biso   1.000  H
  C37      1.0000 0.27380  0.35420  0.98510  Biso   1.000  C
  H39      1.0000 0.18220  0.40560  0.99120  Biso   1.000  H
  H40      1.0000 0.29910  0.03140  0.96940  Biso   1.000  H
  H41      1.0000 0.03550  0.45060  0.73780  Biso   1.000  H
  C38      1.0000 0.02050  0.82080  0.61480  Biso   1.000  C
  C39      1.0000 0.30610  0.42010  0.03320  Biso   1.000  C
  H42      1.0000 0.04840  0.76600  0.60380  Biso   1.000  H
  H43      1.0000 0.00700  0.85200  0.57490  Biso   1.000  H
  C40      1.0000 0.96150  0.78440  0.65150  Biso   1.000  C
  H44      1.0000 0.33360  0.38140  0.06130  Biso   1.000  H
  H45      1.0000 0.27320  0.45110  0.05990  Biso   1.000  H
  H46      1.0000 0.93370  0.83980  0.66100  Biso   1.000  H
  H47      1.0000 0.97570  0.75700  0.69240  Biso   1.000  H
  C41      1.0000 0.92170  0.70720  0.61540  Biso   1.000  C
  H48      1.0000 0.37380  0.53590  0.02890  Biso   1.000  H
  C42      1.0000 0.86200  0.68070  0.65450  Biso   1.000  C
  H49      1.0000 0.90870  0.73250  0.57360  Biso   1.000  H
  H50      1.0000 0.94790  0.64920  0.60840  Biso   1.000  H
  C43      1.0000 0.80830  0.73450  0.65350  Biso   1.000  C
  C44      1.0000 0.86220  0.60570  0.69680  Biso   1.000  C
  C45      1.0000 0.75830  0.71830  0.69570  Biso   1.000  C
  H51      1.0000 0.80470  0.78460  0.62340  Biso   1.000  H
  H52      1.0000 0.89690  0.56230  0.69830  Biso   1.000  H
  C46      1.0000 0.81060  0.59450  0.73750  Biso   1.000  C
  H53      1.0000 0.72260  0.75970  0.69440  Biso   1.000  H
  N6       1.0000 0.75870  0.64750  0.73730  Biso   1.000  N
  H54      1.0000 0.81290  0.54450  0.76800  Biso   1.000  H
  Cd3      1.0000 0.32811  0.37256  0.31044  Biso   1.000  Cd
  O9       1.0000 0.35320  0.48730  0.40040  Biso   1.000  O
  O10      1.0000 0.25780  0.49950  0.35500  Biso   1.000  O
  O11      1.0000 0.42500  0.30010  0.33130  Biso   1.000  O
  O12      1.0000 0.38100  0.20680  0.25730  Biso   1.000  O
  N7       1.0000 0.37760  0.47420  0.23440  Biso   1.000  N
  N8       1.0000 0.28250  0.26770  0.39090  Biso   1.000  N
  C47      1.0000 0.29570  0.51680  0.40060  Biso   1.000  C
  C48      1.0000 0.42490  0.22290  0.29620  Biso   1.000  C
  C49      1.0000 0.42960  0.44870  0.20040  Biso   1.000  C
  C50      1.0000 0.35800  0.56680  0.22910  Biso   1.000  C
  C51      1.0000 0.21980  0.27340  0.40650  Biso   1.000  C
  C52      1.0000 0.31780  0.20200  0.42380  Biso   1.000  C
  C53      1.0000 0.26930  0.57030  0.45970  Biso   1.000  C
  C54      1.0000 0.47940  0.15220  0.30740  Biso   1.000  C
  H55      1.0000 0.44370  0.38430  0.20320  Biso   1.000  H
  C55      1.0000 0.46330  0.51060  0.16210  Biso   1.000  C
  C56      1.0000 0.38880  0.63510  0.19110  Biso   1.000  C
  H56      1.0000 0.32160  0.58630  0.25230  Biso   1.000  H
  H57      1.0000 0.19440  0.31860  0.38440  Biso   1.000  H
  C57      1.0000 0.19080  0.21770  0.45240  Biso   1.000  C
  C58      1.0000 0.29150  0.13980  0.47020  Biso   1.000  C
  H58      1.0000 0.36200  0.19770  0.41510  Biso   1.000  H
  H59      1.0000 0.24350  0.62580  0.44600  Biso   1.000  H
  H60      1.0000 0.30500  0.59450  0.48570  Biso   1.000  H
  H61      1.0000 0.46690  0.10830  0.34210  Biso   1.000  H
  H62      1.0000 0.51680  0.18890  0.32220  Biso   1.000  H
  H63      1.0000 0.49980  0.48890  0.14000  Biso   1.000  H
  C59      1.0000 0.44260  0.60700  0.15600  Biso   1.000  C
  H64      1.0000 0.37370  0.69910  0.18900  Biso   1.000  H
  H65      1.0000 0.14720  0.22730  0.46220  Biso   1.000  H
  C60      1.0000 0.22620  0.14580  0.48510  Biso   1.000  C
  H66      1.0000 0.31780  0.09440  0.49120  Biso   1.000  H
  H67      1.0000 0.20090  0.46860  0.46940  Biso   1.000  H
  H68      1.0000 0.46450  0.04940  0.23780  Biso   1.000  H
  C61      1.0000 0.47950  0.67920  0.11480  Biso   1.000  C
  C62      1.0000 0.19390  0.07990  0.53320  Biso   1.000  C
  H69      1.0000 0.45160  0.73400  0.10380  Biso   1.000  H
  H70      1.0000 0.49300  0.64800  0.07490  Biso   1.000  H
  C63      1.0000 0.53850  0.71560  0.15150  Biso   1.000  C
  H71      1.0000 0.16640  0.11860  0.56130  Biso   1.000  H
  H72      1.0000 0.22680  0.04890  0.55990  Biso   1.000  H
  H73      1.0000 0.56630  0.66020  0.16100  Biso   1.000  H
  H74      1.0000 0.52430  0.74300  0.19240  Biso   1.000  H
  C64      1.0000 0.57830  0.79280  0.11540  Biso   1.000  C
  H75      1.0000 0.12620  0.96410  0.52890  Biso   1.000  H
  C65      1.0000 0.63800  0.81930  0.15450  Biso   1.000  C
  H76      1.0000 0.59130  0.76750  0.07360  Biso   1.000  H
  H77      1.0000 0.55210  0.85080  0.10840  Biso   1.000  H
  C66      1.0000 0.69170  0.76550  0.15350  Biso   1.000  C
  C67      1.0000 0.63780  0.89430  0.19680  Biso   1.000  C
  C68      1.0000 0.74170  0.78170  0.19570  Biso   1.000  C
  H78      1.0000 0.69530  0.71540  0.12340  Biso   1.000  H
  H79      1.0000 0.60310  0.93770  0.19830  Biso   1.000  H
  C69      1.0000 0.68940  0.90550  0.23750  Biso   1.000  C
  H80      1.0000 0.77740  0.74030  0.19440  Biso   1.000  H
  N9       1.0000 0.74130  0.85250  0.23730  Biso   1.000  N
  H81      1.0000 0.68710  0.95550  0.26800  Biso   1.000  H
  Cd4      1.0000 0.82811  0.87256  0.31044  Biso   1.000  Cd
  O13      1.0000 0.85320  0.98730  0.40040  Biso   1.000  O
  O14      1.0000 0.75780  0.99950  0.35500  Biso   1.000  O
  O15      1.0000 0.92500  0.80010  0.33130  Biso   1.000  O
  O16      1.0000 0.88100  0.70680  0.25730  Biso   1.000  O
  N10      1.0000 0.87760  0.97420  0.23440  Biso   1.000  N
  N11      1.0000 0.78250  0.76770  0.39090  Biso   1.000  N
  C70      1.0000 0.79570  0.01680  0.40060  Biso   1.000  C
  C71      1.0000 0.92490  0.72290  0.29620  Biso   1.000  C
  C72      1.0000 0.92960  0.94870  0.20040  Biso   1.000  C
  C73      1.0000 0.85800  0.06680  0.22910  Biso   1.000  C
  C74      1.0000 0.71980  0.77340  0.40650  Biso   1.000  C
  C75      1.0000 0.81780  0.70200  0.42380  Biso   1.000  C
  C76      1.0000 0.76930  0.07030  0.45970  Biso   1.000  C
  C77      1.0000 0.97940  0.65220  0.30740  Biso   1.000  C
  H82      1.0000 0.94370  0.88430  0.20320  Biso   1.000  H
  C78      1.0000 0.96330  0.01060  0.16210  Biso   1.000  C
  C79      1.0000 0.88880  0.13510  0.19110  Biso   1.000  C
  H83      1.0000 0.82160  0.08630  0.25230  Biso   1.000  H
  H84      1.0000 0.69440  0.81860  0.38440  Biso   1.000  H
  C80      1.0000 0.69080  0.71770  0.45240  Biso   1.000  C
  C81      1.0000 0.79150  0.63980  0.47020  Biso   1.000  C
  H85      1.0000 0.86200  0.69770  0.41510  Biso   1.000  H
  H86      1.0000 0.74350  0.12580  0.44600  Biso   1.000  H
  H87      1.0000 0.80500  0.09450  0.48570  Biso   1.000  H
  H88      1.0000 0.96690  0.60830  0.34210  Biso   1.000  H
  H89      1.0000 0.01680  0.68890  0.32220  Biso   1.000  H
  H90      1.0000 0.99980  0.98890  0.14000  Biso   1.000  H
  C82      1.0000 0.94260  0.10700  0.15600  Biso   1.000  C
  H91      1.0000 0.87370  0.19910  0.18900  Biso   1.000  H
  H92      1.0000 0.64720  0.72730  0.46220  Biso   1.000  H
  C83      1.0000 0.72620  0.64580  0.48510  Biso   1.000  C
  H93      1.0000 0.81780  0.59440  0.49120  Biso   1.000  H
  H94      1.0000 0.70090  0.96860  0.46940  Biso   1.000  H
  H95      1.0000 0.96450  0.54940  0.23780  Biso   1.000  H
  C84      1.0000 0.97950  0.17920  0.11480  Biso   1.000  C
  C85      1.0000 0.69390  0.57990  0.53320  Biso   1.000  C
  H96      1.0000 0.95160  0.23400  0.10380  Biso   1.000  H
  H97      1.0000 0.99300  0.14800  0.07490  Biso   1.000  H
  C86      1.0000 0.03850  0.21560  0.15150  Biso   1.000  C
  H98      1.0000 0.66640  0.61860  0.56130  Biso   1.000  H
  H99      1.0000 0.72680  0.54890  0.55990  Biso   1.000  H
  H100     1.0000 0.06630  0.16020  0.16100  Biso   1.000  H
  H101     1.0000 0.02430  0.24300  0.19240  Biso   1.000  H
  C87      1.0000 0.07830  0.29280  0.11540  Biso   1.000  C
  H102     1.0000 0.62620  0.46410  0.52890  Biso   1.000  H
  C88      1.0000 0.13800  0.31930  0.15450  Biso   1.000  C
  H103     1.0000 0.09130  0.26750  0.07360  Biso   1.000  H
  H104     1.0000 0.05210  0.35080  0.10840  Biso   1.000  H
  C89      1.0000 0.19170  0.26550  0.15350  Biso   1.000  C
  C90      1.0000 0.13780  0.39430  0.19680  Biso   1.000  C
  C91      1.0000 0.24170  0.28170  0.19570  Biso   1.000  C
  H105     1.0000 0.19530  0.21540  0.12340  Biso   1.000  H
  H106     1.0000 0.10310  0.43770  0.19830  Biso   1.000  H
  C92      1.0000 0.18940  0.40550  0.23750  Biso   1.000  C
  H107     1.0000 0.27740  0.24030  0.19440  Biso   1.000  H
  N12      1.0000 0.24130  0.35250  0.23730  Biso   1.000  N
  H108     1.0000 0.18710  0.45550  0.26800  Biso   1.000  H
  Cd5      1.0000 0.32811  0.62744  0.68956  Biso   1.000  Cd
  O17      1.0000 0.35320  0.51270  0.59960  Biso   1.000  O
  O18      1.0000 0.25780  0.50050  0.64500  Biso   1.000  O
  O19      1.0000 0.42500  0.69990  0.66870  Biso   1.000  O
  O20      1.0000 0.38100  0.79320  0.74270  Biso   1.000  O
  N13      1.0000 0.37760  0.52580  0.76560  Biso   1.000  N
  N14      1.0000 0.28250  0.73230  0.60910  Biso   1.000  N
  C93      1.0000 0.29570  0.48320  0.59940  Biso   1.000  C
  C94      1.0000 0.42490  0.77710  0.70380  Biso   1.000  C
  C95      1.0000 0.42960  0.55130  0.79960  Biso   1.000  C
  C96      1.0000 0.35800  0.43320  0.77090  Biso   1.000  C
  C97      1.0000 0.21980  0.72660  0.59350  Biso   1.000  C
  C98      1.0000 0.31780  0.79800  0.57620  Biso   1.000  C
  C99      1.0000 0.26930  0.42970  0.54030  Biso   1.000  C
  C100     1.0000 0.47940  0.84780  0.69260  Biso   1.000  C
  H109     1.0000 0.44370  0.61570  0.79680  Biso   1.000  H
  C101     1.0000 0.46330  0.48940  0.83790  Biso   1.000  C
  C102     1.0000 0.38880  0.36490  0.80890  Biso   1.000  C
  H110     1.0000 0.32160  0.41370  0.74770  Biso   1.000  H
  H111     1.0000 0.19440  0.68140  0.61560  Biso   1.000  H
  C103     1.0000 0.19080  0.78230  0.54760  Biso   1.000  C
  C104     1.0000 0.29150  0.86020  0.52980  Biso   1.000  C
  H112     1.0000 0.36200  0.80230  0.58490  Biso   1.000  H
  H113     1.0000 0.24350  0.37420  0.55400  Biso   1.000  H
  H114     1.0000 0.30500  0.40550  0.51430  Biso   1.000  H
  H115     1.0000 0.46690  0.89170  0.65790  Biso   1.000  H
  H116     1.0000 0.51680  0.81110  0.67780  Biso   1.000  H
  H117     1.0000 0.49980  0.51110  0.86000  Biso   1.000  H
  C105     1.0000 0.44260  0.39300  0.84400  Biso   1.000  C
  H118     1.0000 0.37370  0.30090  0.81100  Biso   1.000  H
  H119     1.0000 0.14720  0.77270  0.53780  Biso   1.000  H
  C106     1.0000 0.22620  0.85420  0.51490  Biso   1.000  C
  H120     1.0000 0.31780  0.90560  0.50880  Biso   1.000  H
  H121     1.0000 0.20090  0.53140  0.53060  Biso   1.000  H
  H122     1.0000 0.46450  0.95060  0.76220  Biso   1.000  H
  C107     1.0000 0.47950  0.32080  0.88520  Biso   1.000  C
  C108     1.0000 0.19390  0.92010  0.46680  Biso   1.000  C
  H123     1.0000 0.45160  0.26600  0.89620  Biso   1.000  H
  H124     1.0000 0.49300  0.35200  0.92510  Biso   1.000  H
  C109     1.0000 0.53850  0.28440  0.84850  Biso   1.000  C
  H125     1.0000 0.16640  0.88140  0.43870  Biso   1.000  H
  H126     1.0000 0.22680  0.95110  0.44010  Biso   1.000  H
  H127     1.0000 0.56630  0.33980  0.83900  Biso   1.000  H
  H128     1.0000 0.52430  0.25700  0.80760  Biso   1.000  H
  C110     1.0000 0.57830  0.20720  0.88460  Biso   1.000  C
  H129     1.0000 0.12620  0.03590  0.47110  Biso   1.000  H
  C111     1.0000 0.63800  0.18070  0.84550  Biso   1.000  C
  H130     1.0000 0.59130  0.23250  0.92640  Biso   1.000  H
  H131     1.0000 0.55210  0.14920  0.89160  Biso   1.000  H
  C112     1.0000 0.69170  0.23450  0.84650  Biso   1.000  C
  C113     1.0000 0.63780  0.10570  0.80320  Biso   1.000  C
  C114     1.0000 0.74170  0.21830  0.80430  Biso   1.000  C
  H132     1.0000 0.69530  0.28460  0.87660  Biso   1.000  H
  H133     1.0000 0.60310  0.06230  0.80170  Biso   1.000  H
  C115     1.0000 0.68940  0.09450  0.76250  Biso   1.000  C
  H134     1.0000 0.77740  0.25970  0.80560  Biso   1.000  H
  N15      1.0000 0.74130  0.14750  0.76270  Biso   1.000  N
  H135     1.0000 0.68710  0.04450  0.73200  Biso   1.000  H
  Cd6      1.0000 0.82811  0.12744  0.68956  Biso   1.000  Cd
  O21      1.0000 0.85320  0.01270  0.59960  Biso   1.000  O
  O22      1.0000 0.75780  0.00050  0.64500  Biso   1.000  O
  O23      1.0000 0.92500  0.19990  0.66870  Biso   1.000  O
  O24      1.0000 0.88100  0.29320  0.74270  Biso   1.000  O
  N16      1.0000 0.87760  0.02580  0.76560  Biso   1.000  N
  N17      1.0000 0.78250  0.23230  0.60910  Biso   1.000  N
  C116     1.0000 0.79570  0.98320  0.59940  Biso   1.000  C
  C117     1.0000 0.92490  0.27710  0.70380  Biso   1.000  C
  C118     1.0000 0.92960  0.05130  0.79960  Biso   1.000  C
  C119     1.0000 0.85800  0.93320  0.77090  Biso   1.000  C
  C120     1.0000 0.71980  0.22660  0.59350  Biso   1.000  C
  C121     1.0000 0.81780  0.29800  0.57620  Biso   1.000  C
  C122     1.0000 0.76930  0.92970  0.54030  Biso   1.000  C
  C123     1.0000 0.97940  0.34780  0.69260  Biso   1.000  C
  H136     1.0000 0.94370  0.11570  0.79680  Biso   1.000  H
  C124     1.0000 0.96330  0.98940  0.83790  Biso   1.000  C
  C125     1.0000 0.88880  0.86490  0.80890  Biso   1.000  C
  H137     1.0000 0.82160  0.91370  0.74770  Biso   1.000  H
  H138     1.0000 0.69440  0.18140  0.61560  Biso   1.000  H
  C126     1.0000 0.69080  0.28230  0.54760  Biso   1.000  C
  C127     1.0000 0.79150  0.36020  0.52980  Biso   1.000  C
  H139     1.0000 0.86200  0.30230  0.58490  Biso   1.000  H
  H140     1.0000 0.74350  0.87420  0.55400  Biso   1.000  H
  H141     1.0000 0.80500  0.90550  0.51430  Biso   1.000  H
  H142     1.0000 0.96690  0.39170  0.65790  Biso   1.000  H
  H143     1.0000 0.01680  0.31110  0.67780  Biso   1.000  H
  H144     1.0000 0.99980  0.01110  0.86000  Biso   1.000  H
  C128     1.0000 0.94260  0.89300  0.84400  Biso   1.000  C
  H145     1.0000 0.87370  0.80090  0.81100  Biso   1.000  H
  H146     1.0000 0.64720  0.27270  0.53780  Biso   1.000  H
  C129     1.0000 0.72620  0.35420  0.51490  Biso   1.000  C
  H147     1.0000 0.81780  0.40560  0.50880  Biso   1.000  H
  H148     1.0000 0.70090  0.03140  0.53060  Biso   1.000  H
  H149     1.0000 0.96450  0.45060  0.76220  Biso   1.000  H
  C130     1.0000 0.97950  0.82080  0.88520  Biso   1.000  C
  C131     1.0000 0.69390  0.42010  0.46680  Biso   1.000  C
  H150     1.0000 0.95160  0.76600  0.89620  Biso   1.000  H
  H151     1.0000 0.99300  0.85200  0.92510  Biso   1.000  H
  C132     1.0000 0.03850  0.78440  0.84850  Biso   1.000  C
  H152     1.0000 0.66640  0.38140  0.43870  Biso   1.000  H
  H153     1.0000 0.72680  0.45110  0.44010  Biso   1.000  H
  H154     1.0000 0.06630  0.83980  0.83900  Biso   1.000  H
  H155     1.0000 0.02430  0.75700  0.80760  Biso   1.000  H
  C133     1.0000 0.07830  0.70720  0.88460  Biso   1.000  C
  H156     1.0000 0.62620  0.53590  0.47110  Biso   1.000  H
  C134     1.0000 0.13800  0.68070  0.84550  Biso   1.000  C
  H157     1.0000 0.09130  0.73250  0.92640  Biso   1.000  H
  H158     1.0000 0.05210  0.64920  0.89160  Biso   1.000  H
  C135     1.0000 0.19170  0.73450  0.84650  Biso   1.000  C
  C136     1.0000 0.13780  0.60570  0.80320  Biso   1.000  C
  C137     1.0000 0.24170  0.71830  0.80430  Biso   1.000  C
  H159     1.0000 0.19530  0.78460  0.87660  Biso   1.000  H
  H160     1.0000 0.10310  0.56230  0.80170  Biso   1.000  H
  C138     1.0000 0.18940  0.59450  0.76250  Biso   1.000  C
  H161     1.0000 0.27740  0.75970  0.80560  Biso   1.000  H
  N18      1.0000 0.24130  0.64750  0.76270  Biso   1.000  N
  H162     1.0000 0.18710  0.54450  0.73200  Biso   1.000  H
  Cd7      1.0000 0.67189  0.37256  0.18956  Biso   1.000  Cd
  O25      1.0000 0.64680  0.48730  0.09960  Biso   1.000  O
  O26      1.0000 0.74220  0.49950  0.14500  Biso   1.000  O
  O27      1.0000 0.57500  0.30010  0.16870  Biso   1.000  O
  O28      1.0000 0.61900  0.20680  0.24270  Biso   1.000  O
  N19      1.0000 0.62240  0.47420  0.26560  Biso   1.000  N
  N20      1.0000 0.71750  0.26770  0.10910  Biso   1.000  N
  C139     1.0000 0.70430  0.51680  0.09940  Biso   1.000  C
  C140     1.0000 0.57510  0.22290  0.20380  Biso   1.000  C
  C141     1.0000 0.57040  0.44870  0.29960  Biso   1.000  C
  C142     1.0000 0.64200  0.56680  0.27090  Biso   1.000  C
  C143     1.0000 0.78020  0.27340  0.09350  Biso   1.000  C
  C144     1.0000 0.68220  0.20200  0.07620  Biso   1.000  C
  C145     1.0000 0.73070  0.57030  0.04030  Biso   1.000  C
  C146     1.0000 0.52060  0.15220  0.19260  Biso   1.000  C
  H163     1.0000 0.55630  0.38430  0.29680  Biso   1.000  H
  C147     1.0000 0.53670  0.51060  0.33790  Biso   1.000  C
  C148     1.0000 0.61120  0.63510  0.30890  Biso   1.000  C
  H164     1.0000 0.67840  0.58630  0.24770  Biso   1.000  H
  H165     1.0000 0.80560  0.31860  0.11560  Biso   1.000  H
  C149     1.0000 0.80920  0.21770  0.04760  Biso   1.000  C
  C150     1.0000 0.70850  0.13980  0.02980  Biso   1.000  C
  H166     1.0000 0.63800  0.19770  0.08490  Biso   1.000  H
  H167     1.0000 0.75650  0.62580  0.05400  Biso   1.000  H
  H168     1.0000 0.69500  0.59450  0.01430  Biso   1.000  H
  H169     1.0000 0.53310  0.10830  0.15790  Biso   1.000  H
  H170     1.0000 0.48320  0.18890  0.17780  Biso   1.000  H
  H171     1.0000 0.50020  0.48890  0.36000  Biso   1.000  H
  C151     1.0000 0.55740  0.60700  0.34400  Biso   1.000  C
  H172     1.0000 0.62630  0.69910  0.31100  Biso   1.000  H
  H173     1.0000 0.85280  0.22730  0.03780  Biso   1.000  H
  C152     1.0000 0.77380  0.14580  0.01490  Biso   1.000  C
  H174     1.0000 0.68220  0.09440  0.00880  Biso   1.000  H
  H175     1.0000 0.79910  0.46860  0.03060  Biso   1.000  H
  H176     1.0000 0.53550  0.04940  0.26220  Biso   1.000  H
  C153     1.0000 0.52050  0.67920  0.38520  Biso   1.000  C
  C154     1.0000 0.80610  0.07990  0.96680  Biso   1.000  C
  H177     1.0000 0.54840  0.73400  0.39620  Biso   1.000  H
  H178     1.0000 0.50700  0.64800  0.42510  Biso   1.000  H
  C155     1.0000 0.46150  0.71560  0.34850  Biso   1.000  C
  H179     1.0000 0.83360  0.11860  0.93870  Biso   1.000  H
  H180     1.0000 0.77320  0.04890  0.94010  Biso   1.000  H
  H181     1.0000 0.43370  0.66020  0.33900  Biso   1.000  H
  H182     1.0000 0.47570  0.74300  0.30760  Biso   1.000  H
  C156     1.0000 0.42170  0.79280  0.38460  Biso   1.000  C
  H183     1.0000 0.87380  0.96410  0.97110  Biso   1.000  H
  C157     1.0000 0.36200  0.81930  0.34550  Biso   1.000  C
  H184     1.0000 0.40870  0.76750  0.42640  Biso   1.000  H
  H185     1.0000 0.44790  0.85080  0.39160  Biso   1.000  H
  C158     1.0000 0.30830  0.76550  0.34650  Biso   1.000  C
  C159     1.0000 0.36220  0.89430  0.30320  Biso   1.000  C
  C160     1.0000 0.25830  0.78170  0.30430  Biso   1.000  C
  H186     1.0000 0.30470  0.71540  0.37660  Biso   1.000  H
  H187     1.0000 0.39690  0.93770  0.30170  Biso   1.000  H
  C161     1.0000 0.31060  0.90550  0.26250  Biso   1.000  C
  H188     1.0000 0.22260  0.74030  0.30560  Biso   1.000  H
  N21      1.0000 0.25870  0.85250  0.26270  Biso   1.000  N
  H189     1.0000 0.31290  0.95550  0.23200  Biso   1.000  H
  Cd8      1.0000 0.17189  0.87256  0.18956  Biso   1.000  Cd
  O29      1.0000 0.14680  0.98730  0.09960  Biso   1.000  O
  O30      1.0000 0.24220  0.99950  0.14500  Biso   1.000  O
  O31      1.0000 0.07500  0.80010  0.16870  Biso   1.000  O
  O32      1.0000 0.11900  0.70680  0.24270  Biso   1.000  O
  N22      1.0000 0.12240  0.97420  0.26560  Biso   1.000  N
  N23      1.0000 0.21750  0.76770  0.10910  Biso   1.000  N
  C162     1.0000 0.20430  0.01680  0.09940  Biso   1.000  C
  C163     1.0000 0.07510  0.72290  0.20380  Biso   1.000  C
  C164     1.0000 0.07040  0.94870  0.29960  Biso   1.000  C
  C165     1.0000 0.14200  0.06680  0.27090  Biso   1.000  C
  C166     1.0000 0.28020  0.77340  0.09350  Biso   1.000  C
  C167     1.0000 0.18220  0.70200  0.07620  Biso   1.000  C
  C168     1.0000 0.23070  0.07030  0.04030  Biso   1.000  C
  C169     1.0000 0.02060  0.65220  0.19260  Biso   1.000  C
  H190     1.0000 0.05630  0.88430  0.29680  Biso   1.000  H
  C170     1.0000 0.03670  0.01060  0.33790  Biso   1.000  C
  C171     1.0000 0.11120  0.13510  0.30890  Biso   1.000  C
  H191     1.0000 0.17840  0.08630  0.24770  Biso   1.000  H
  H192     1.0000 0.30560  0.81860  0.11560  Biso   1.000  H
  C172     1.0000 0.30920  0.71770  0.04760  Biso   1.000  C
  C173     1.0000 0.20850  0.63980  0.02980  Biso   1.000  C
  H193     1.0000 0.13800  0.69770  0.08490  Biso   1.000  H
  H194     1.0000 0.25650  0.12580  0.05400  Biso   1.000  H
  H195     1.0000 0.19500  0.09450  0.01430  Biso   1.000  H
  H196     1.0000 0.03310  0.60830  0.15790  Biso   1.000  H
  H197     1.0000 0.98320  0.68890  0.17780  Biso   1.000  H
  H198     1.0000 0.00020  0.98890  0.36000  Biso   1.000  H
  C174     1.0000 0.05740  0.10700  0.34400  Biso   1.000  C
  H199     1.0000 0.12630  0.19910  0.31100  Biso   1.000  H
  H200     1.0000 0.35280  0.72730  0.03780  Biso   1.000  H
  C175     1.0000 0.27380  0.64580  0.01490  Biso   1.000  C
  H201     1.0000 0.18220  0.59440  0.00880  Biso   1.000  H
  H202     1.0000 0.29910  0.96860  0.03060  Biso   1.000  H
  H203     1.0000 0.03550  0.54940  0.26220  Biso   1.000  H
  C176     1.0000 0.02050  0.17920  0.38520  Biso   1.000  C
  C177     1.0000 0.30610  0.57990  0.96680  Biso   1.000  C
  H204     1.0000 0.04840  0.23400  0.39620  Biso   1.000  H
  H205     1.0000 0.00700  0.14800  0.42510  Biso   1.000  H
  C178     1.0000 0.96150  0.21560  0.34850  Biso   1.000  C
  H206     1.0000 0.33360  0.61860  0.93870  Biso   1.000  H
  H207     1.0000 0.27320  0.54890  0.94010  Biso   1.000  H
  H208     1.0000 0.93370  0.16020  0.33900  Biso   1.000  H
  H209     1.0000 0.97570  0.24300  0.30760  Biso   1.000  H
  C179     1.0000 0.92170  0.29280  0.38460  Biso   1.000  C
  H210     1.0000 0.37380  0.46410  0.97110  Biso   1.000  H
  C180     1.0000 0.86200  0.31930  0.34550  Biso   1.000  C
  H211     1.0000 0.90870  0.26750  0.42640  Biso   1.000  H
  H212     1.0000 0.94790  0.35080  0.39160  Biso   1.000  H
  C181     1.0000 0.80830  0.26550  0.34650  Biso   1.000  C
  C182     1.0000 0.86220  0.39430  0.30320  Biso   1.000  C
  C183     1.0000 0.75830  0.28170  0.30430  Biso   1.000  C
  H213     1.0000 0.80470  0.21540  0.37660  Biso   1.000  H
  H214     1.0000 0.89690  0.43770  0.30170  Biso   1.000  H
  C184     1.0000 0.81060  0.40550  0.26250  Biso   1.000  C
  H215     1.0000 0.72260  0.24030  0.30560  Biso   1.000  H
  N24      1.0000 0.75870  0.35250  0.26270  Biso   1.000  N
  H216     1.0000 0.81290  0.45550  0.23200  Biso   1.000  H
  C185     1.0000 0.77250  0.50000  0.00000  Biso   1.000  C
  C186     1.0000 0.27250  0.00000  0.00000  Biso   1.000  C
  C187     1.0000 0.22750  0.50000  0.50000  Biso   1.000  C
  C188     1.0000 0.72750  0.00000  0.50000  Biso   1.000  C
  C189     1.0000 0.50000  0.90920  0.75000  Biso   1.000  C
  C190     1.0000 0.00000  0.40920  0.75000  Biso   1.000  C
  C191     1.0000 0.50000  0.09080  0.25000  Biso   1.000  C
  C192     1.0000 0.00000  0.59080  0.25000  Biso   1.000  C
  C193     1.0000 0.84730  0.00000  0.00000  Biso   1.000  C
  C194     1.0000 0.34730  0.50000  0.00000  Biso   1.000  C
  C195     1.0000 0.15270  0.00000  0.50000  Biso   1.000  C
  C196     1.0000 0.65270  0.50000  0.50000  Biso   1.000  C
