data_image0
_cell_length_a       9.9096
_cell_length_b       15.678
_cell_length_c       13.8022
_cell_angle_alpha    90
_cell_angle_beta     90
_cell_angle_gamma    90

_symmetry_space_group_name_H-M    "P 1"
_symmetry_int_tables_number       1

loop_
  _symmetry_equiv_pos_as_xyz
  'x, y, z'

loop_
  _atom_site_label
  _atom_site_occupancy
  _atom_site_fract_x
  _atom_site_fract_y
  _atom_site_fract_z
  _atom_site_thermal_displace_type
  _atom_site_B_iso_or_equiv
  _atom_site_type_symbol
  Zn1      1.0000 0.04004  0.58253  0.60735  Biso   1.000  Zn
  P1       1.0000 0.23491  0.61362  0.78443  Biso   1.000  P
  H1       1.0000 0.27400  0.53300  0.77290  Biso   1.000  H
  P2       1.0000 0.97169  0.38334  0.61392  Biso   1.000  P
  H2       1.0000 0.87000  0.39590  0.68400  Biso   1.000  H
  O1       1.0000 0.35740  0.66430  0.80520  Biso   1.000  O
  O2       1.0000 0.16500  0.64020  0.69220  Biso   1.000  O
  O3       1.0000 0.14670  0.61670  0.87370  Biso   1.000  O
  O4       1.0000 0.05110  0.30390  0.64370  Biso   1.000  O
  O5       1.0000 0.90200  0.37080  0.51710  Biso   1.000  O
  O6       1.0000 0.06130  0.46040  0.61620  Biso   1.000  O
  Zn2      1.0000 0.45996  0.91747  0.10735  Biso   1.000  Zn
  P3       1.0000 0.26509  0.88638  0.28443  Biso   1.000  P
  H3       1.0000 0.22600  0.96700  0.27290  Biso   1.000  H
  P4       1.0000 0.52831  0.11666  0.11392  Biso   1.000  P
  H4       1.0000 0.63000  0.10410  0.18400  Biso   1.000  H
  O7       1.0000 0.14260  0.83570  0.30520  Biso   1.000  O
  O8       1.0000 0.33500  0.85980  0.19220  Biso   1.000  O
  O9       1.0000 0.35330  0.88330  0.37370  Biso   1.000  O
  O10      1.0000 0.44890  0.19610  0.14370  Biso   1.000  O
  O11      1.0000 0.59800  0.12920  0.01710  Biso   1.000  O
  O12      1.0000 0.43870  0.03960  0.11620  Biso   1.000  O
  Zn3      1.0000 0.95996  0.58253  0.89265  Biso   1.000  Zn
  P5       1.0000 0.76509  0.61362  0.71557  Biso   1.000  P
  H5       1.0000 0.72600  0.53300  0.72710  Biso   1.000  H
  P6       1.0000 0.02831  0.38334  0.88608  Biso   1.000  P
  H6       1.0000 0.13000  0.39590  0.81600  Biso   1.000  H
  O13      1.0000 0.64260  0.66430  0.69480  Biso   1.000  O
  O14      1.0000 0.83500  0.64020  0.80780  Biso   1.000  O
  O15      1.0000 0.85330  0.61670  0.62630  Biso   1.000  O
  O16      1.0000 0.94890  0.30390  0.85630  Biso   1.000  O
  O17      1.0000 0.09800  0.37080  0.98290  Biso   1.000  O
  O18      1.0000 0.93870  0.46040  0.88380  Biso   1.000  O
  Zn4      1.0000 0.54004  0.91747  0.39265  Biso   1.000  Zn
  P7       1.0000 0.73491  0.88638  0.21557  Biso   1.000  P
  H7       1.0000 0.77400  0.96700  0.22710  Biso   1.000  H
  P8       1.0000 0.47169  0.11666  0.38608  Biso   1.000  P
  H8       1.0000 0.37000  0.10410  0.31600  Biso   1.000  H
  O19      1.0000 0.85740  0.83570  0.19480  Biso   1.000  O
  O20      1.0000 0.66500  0.85980  0.30780  Biso   1.000  O
  O21      1.0000 0.64670  0.88330  0.12630  Biso   1.000  O
  O22      1.0000 0.55110  0.19610  0.35630  Biso   1.000  O
  O23      1.0000 0.40200  0.12920  0.48290  Biso   1.000  O
  O24      1.0000 0.56130  0.03960  0.38380  Biso   1.000  O
  Zn5      1.0000 0.95996  0.41747  0.39265  Biso   1.000  Zn
  P9       1.0000 0.76509  0.38638  0.21557  Biso   1.000  P
  H9       1.0000 0.72600  0.46700  0.22710  Biso   1.000  H
  P10      1.0000 0.02831  0.61666  0.38608  Biso   1.000  P
  H10      1.0000 0.13000  0.60410  0.31600  Biso   1.000  H
  O25      1.0000 0.64260  0.33570  0.19480  Biso   1.000  O
  O26      1.0000 0.83500  0.35980  0.30780  Biso   1.000  O
  O27      1.0000 0.85330  0.38330  0.12630  Biso   1.000  O
  O28      1.0000 0.94890  0.69610  0.35630  Biso   1.000  O
  O29      1.0000 0.09800  0.62920  0.48290  Biso   1.000  O
  O30      1.0000 0.93870  0.53960  0.38380  Biso   1.000  O
  Zn6      1.0000 0.54004  0.08253  0.89265  Biso   1.000  Zn
  P11      1.0000 0.73491  0.11362  0.71557  Biso   1.000  P
  H11      1.0000 0.77400  0.03300  0.72710  Biso   1.000  H
  P12      1.0000 0.47169  0.88334  0.88608  Biso   1.000  P
  H12      1.0000 0.37000  0.89590  0.81600  Biso   1.000  H
  O31      1.0000 0.85740  0.16430  0.69480  Biso   1.000  O
  O32      1.0000 0.66500  0.14020  0.80780  Biso   1.000  O
  O33      1.0000 0.64670  0.11670  0.62630  Biso   1.000  O
  O34      1.0000 0.55110  0.80390  0.85630  Biso   1.000  O
  O35      1.0000 0.40200  0.87080  0.98290  Biso   1.000  O
  O36      1.0000 0.56130  0.96040  0.88380  Biso   1.000  O
  Zn7      1.0000 0.04004  0.41747  0.10735  Biso   1.000  Zn
  P13      1.0000 0.23491  0.38638  0.28443  Biso   1.000  P
  H13      1.0000 0.27400  0.46700  0.27290  Biso   1.000  H
  P14      1.0000 0.97169  0.61666  0.11392  Biso   1.000  P
  H14      1.0000 0.87000  0.60410  0.18400  Biso   1.000  H
  O37      1.0000 0.35740  0.33570  0.30520  Biso   1.000  O
  O38      1.0000 0.16500  0.35980  0.19220  Biso   1.000  O
  O39      1.0000 0.14670  0.38330  0.37370  Biso   1.000  O
  O40      1.0000 0.05110  0.69610  0.14370  Biso   1.000  O
  O41      1.0000 0.90200  0.62920  0.01710  Biso   1.000  O
  O42      1.0000 0.06130  0.53960  0.11620  Biso   1.000  O
  Zn8      1.0000 0.45996  0.08253  0.60735  Biso   1.000  Zn
  P15      1.0000 0.26509  0.11362  0.78443  Biso   1.000  P
  H15      1.0000 0.22600  0.03300  0.77290  Biso   1.000  H
  P16      1.0000 0.52831  0.88334  0.61392  Biso   1.000  P
  H16      1.0000 0.63000  0.89590  0.68400  Biso   1.000  H
  O43      1.0000 0.14260  0.16430  0.80520  Biso   1.000  O
  O44      1.0000 0.33500  0.14020  0.69220  Biso   1.000  O
  O45      1.0000 0.35330  0.11670  0.87370  Biso   1.000  O
  O46      1.0000 0.44890  0.80390  0.64370  Biso   1.000  O
  O47      1.0000 0.59800  0.87080  0.51710  Biso   1.000  O
  O48      1.0000 0.43870  0.96040  0.61620  Biso   1.000  O
  Zn9      1.0000 0.00000  0.22788  0.75000  Biso   1.000  Zn
  Zn10     1.0000 0.50000  0.27212  0.25000  Biso   1.000  Zn
  Zn11     1.0000 0.00000  0.77212  0.25000  Biso   1.000  Zn
  Zn12     1.0000 0.50000  0.72788  0.75000  Biso   1.000  Zn
