data_image0
_cell_length_a       9.47
_cell_length_b       12.351
_cell_length_c       13.575
_cell_angle_alpha    90
_cell_angle_beta     94.327
_cell_angle_gamma    90

_symmetry_space_group_name_H-M    "P 1"
_symmetry_int_tables_number       1

loop_
  _symmetry_equiv_pos_as_xyz
  'x, y, z'

loop_
  _atom_site_label
  _atom_site_occupancy
  _atom_site_fract_x
  _atom_site_fract_y
  _atom_site_fract_z
  _atom_site_thermal_displace_type
  _atom_site_B_iso_or_equiv
  _atom_site_type_symbol
  Zn1      1.0000 0.89147  0.67955  0.05911  Biso   1.000  Zn
  Zn2      1.0000 0.62372  0.81579  0.17921  Biso   1.000  Zn
  O1       1.0000 0.95140  0.81180  0.13360  Biso   1.000  O
  O2       1.0000 0.80700  0.81390  0.25670  Biso   1.000  O
  O3       1.0000 0.86060  0.56250  0.14960  Biso   1.000  O
  O4       1.0000 0.07190  0.59420  0.22540  Biso   1.000  O
  O5       1.0000 0.70690  0.68390  0.98600  Biso   1.000  O
  O6       1.0000 0.56330  0.68080  0.11130  Biso   1.000  O
  O7       1.0000 0.66080  0.92540  0.08350  Biso   1.000  O
  O8       1.0000 0.45020  0.88600  0.00570  Biso   1.000  O
  O9       1.0000 0.46230  0.82330  0.25830  Biso   1.000  O
  O10      1.0000 0.52410  0.97920  0.33230  Biso   1.000  O
  O11      1.0000 0.05290  0.68400  0.98090  Biso   1.000  O
  O12      1.0000 0.98550  0.55640  0.87140  Biso   1.000  O
  C1       1.0000 0.92350  0.83270  0.22080  Biso   1.000  C
  C2       1.0000 0.03660  0.88430  0.28780  Biso   1.000  C
  C3       1.0000 0.17710  0.87230  0.26830  Biso   1.000  C
  H1       1.0000 0.20110  0.83070  0.21320  Biso   1.000  H
  C4       1.0000 0.28360  0.92130  0.32970  Biso   1.000  C
  C5       1.0000 0.24610  0.98360  0.40800  Biso   1.000  C
  H2       1.0000 0.31770  0.01860  0.44920  Biso   1.000  H
  C6       1.0000 0.10590  0.99590  0.42710  Biso   1.000  C
  C7       1.0000 0.99970  0.94600  0.36660  Biso   1.000  C
  H3       1.0000 0.90310  0.95440  0.37950  Biso   1.000  H
  C8       1.0000 0.95300  0.55240  0.22130  Biso   1.000  C
  C9       1.0000 0.91200  0.48370  0.30480  Biso   1.000  C
  C10      1.0000 0.76840  0.46370  0.31790  Biso   1.000  C
  H4       1.0000 0.69680  0.48990  0.27100  Biso   1.000  H
  C11      1.0000 0.01300  0.44150  0.37230  Biso   1.000  C
  H5       1.0000 0.11020  0.45290  0.36280  Biso   1.000  H
  C12      1.0000 0.59040  0.66370  0.02310  Biso   1.000  C
  C13      1.0000 0.47700  0.61700  0.95350  Biso   1.000  C
  C14      1.0000 0.33410  0.63400  0.96840  Biso   1.000  C
  H6       1.0000 0.30790  0.67200  0.02510  Biso   1.000  H
  C15      1.0000 0.23170  0.59490  0.90000  Biso   1.000  C
  C16      1.0000 0.56500  0.93420  0.01060  Biso   1.000  C
  C17      1.0000 0.43540  0.91000  0.30650  Biso   1.000  C
  C18      1.0000 0.07610  0.61090  0.91690  Biso   1.000  C
  Zn3      1.0000 0.39147  0.32045  0.55911  Biso   1.000  Zn
  Zn4      1.0000 0.12372  0.18421  0.67921  Biso   1.000  Zn
  O13      1.0000 0.45140  0.18820  0.63360  Biso   1.000  O
  O14      1.0000 0.30700  0.18610  0.75670  Biso   1.000  O
  O15      1.0000 0.36060  0.43750  0.64960  Biso   1.000  O
  O16      1.0000 0.57190  0.40580  0.72540  Biso   1.000  O
  O17      1.0000 0.20690  0.31610  0.48600  Biso   1.000  O
  O18      1.0000 0.06330  0.31920  0.61130  Biso   1.000  O
  O19      1.0000 0.16080  0.07460  0.58350  Biso   1.000  O
  O20      1.0000 0.95020  0.11400  0.50570  Biso   1.000  O
  O21      1.0000 0.96230  0.17670  0.75830  Biso   1.000  O
  O22      1.0000 0.02410  0.02080  0.83230  Biso   1.000  O
  O23      1.0000 0.55290  0.31600  0.48090  Biso   1.000  O
  O24      1.0000 0.48550  0.44360  0.37140  Biso   1.000  O
  C19      1.0000 0.42350  0.16730  0.72080  Biso   1.000  C
  C20      1.0000 0.53660  0.11570  0.78780  Biso   1.000  C
  C21      1.0000 0.67710  0.12770  0.76830  Biso   1.000  C
  H7       1.0000 0.70110  0.16930  0.71320  Biso   1.000  H
  C22      1.0000 0.78360  0.07870  0.82970  Biso   1.000  C
  C23      1.0000 0.74610  0.01640  0.90800  Biso   1.000  C
  H8       1.0000 0.81770  0.98140  0.94920  Biso   1.000  H
  C24      1.0000 0.60590  0.00410  0.92710  Biso   1.000  C
  C25      1.0000 0.49970  0.05400  0.86660  Biso   1.000  C
  H9       1.0000 0.40310  0.04560  0.87950  Biso   1.000  H
  C26      1.0000 0.45300  0.44760  0.72130  Biso   1.000  C
  C27      1.0000 0.41200  0.51630  0.80480  Biso   1.000  C
  C28      1.0000 0.26840  0.53630  0.81790  Biso   1.000  C
  H10      1.0000 0.19680  0.51010  0.77100  Biso   1.000  H
  C29      1.0000 0.51300  0.55850  0.87230  Biso   1.000  C
  H11      1.0000 0.61020  0.54710  0.86280  Biso   1.000  H
  C30      1.0000 0.09040  0.33630  0.52310  Biso   1.000  C
  C31      1.0000 0.97700  0.38300  0.45350  Biso   1.000  C
  C32      1.0000 0.83410  0.36600  0.46840  Biso   1.000  C
  H12      1.0000 0.80790  0.32800  0.52510  Biso   1.000  H
  C33      1.0000 0.73170  0.40510  0.40000  Biso   1.000  C
  C34      1.0000 0.06500  0.06580  0.51060  Biso   1.000  C
  C35      1.0000 0.93540  0.09000  0.80650  Biso   1.000  C
  C36      1.0000 0.57610  0.38910  0.41690  Biso   1.000  C
