data_SADMUH_SL
_audit_creation_date              2015-05-20
_audit_creation_method            'Materials Studio'
_symmetry_space_group_name_H-M    'P1'
_symmetry_Int_Tables_number       1
_symmetry_cell_setting            triclinic
loop_
_symmetry_equiv_pos_as_xyz
  x,y,z
_cell_length_a                    15.9623
_cell_length_b                    6.9351
_cell_length_c                    14.3919
_cell_angle_alpha                 90.0000
_cell_angle_beta                  90.0000
_cell_angle_gamma                 90.0000
loop_
_atom_site_label
_atom_site_type_symbol
_atom_site_fract_x
_atom_site_fract_y
_atom_site_fract_z
_atom_site_U_iso_or_equiv
_atom_site_adp_type
_atom_site_occupancy
H1     H     0.69490   0.04530   0.69510   0.01267  Uiso   1.00
C2     C     0.71770   0.92290   0.71790   0.01267  Uiso   1.00
O3     O     0.58730   0.90860   0.58800   0.01267  Uiso   1.00
H4     H     0.50000   0.75000   0.36862   0.01267  Uiso   1.00
H5     H     0.19490   0.54530   0.19510   0.01267  Uiso   1.00
C6     C     0.21770   0.42290   0.21790   0.01267  Uiso   1.00
O7     O     0.08730   0.40860   0.08800   0.01267  Uiso   1.00
H8     H     0.00000   0.25000   0.86862   0.01267  Uiso   1.00
H9     H     0.30510   0.45470   0.69510   0.01267  Uiso   1.00
C10    C     0.28230   0.57710   0.71790   0.01267  Uiso   1.00
O11    O     0.41270   0.59140   0.58800   0.01267  Uiso   1.00
H13    H     0.80510   0.95470   0.19510   0.01267  Uiso   1.00
C14    C     0.78230   0.07710   0.21790   0.01267  Uiso   1.00
O15    O     0.91270   0.09140   0.08800   0.01267  Uiso   1.00
H17    H     0.30510   0.54530   0.30490   0.01267  Uiso   1.00
C18    C     0.28230   0.42290   0.28210   0.01267  Uiso   1.00
O19    O     0.41270   0.40860   0.41200   0.01267  Uiso   1.00
H20    H     0.50000   0.25000   0.63138   0.01267  Uiso   1.00
H21    H     0.80510   0.04530   0.80490   0.01267  Uiso   1.00
C22    C     0.78230   0.92290   0.78210   0.01267  Uiso   1.00
O23    O     0.91270   0.90860   0.91200   0.01267  Uiso   1.00
H24    H     0.00000   0.75000   0.13138   0.01267  Uiso   1.00
H25    H     0.69490   0.95470   0.30490   0.01267  Uiso   1.00
C26    C     0.71770   0.07710   0.28210   0.01267  Uiso   1.00
O27    O     0.58730   0.09140   0.41200   0.01267  Uiso   1.00
H29    H     0.19490   0.45470   0.80490   0.01267  Uiso   1.00
C30    C     0.21770   0.57710   0.78210   0.01267  Uiso   1.00
O31    O     0.08730   0.59140   0.91200   0.01267  Uiso   1.00
H33    H     0.30510   0.95470   0.30490   0.01267  Uiso   1.00
C34    C     0.28230   0.07710   0.28210   0.01267  Uiso   1.00
O35    O     0.41270   0.09140   0.41200   0.01267  Uiso   1.00
H37    H     0.80510   0.45470   0.80490   0.01267  Uiso   1.00
C38    C     0.78230   0.57710   0.78210   0.01267  Uiso   1.00
O39    O     0.91270   0.59140   0.91200   0.01267  Uiso   1.00
H41    H     0.69490   0.54530   0.30490   0.01267  Uiso   1.00
C42    C     0.71770   0.42290   0.28210   0.01267  Uiso   1.00
O43    O     0.58730   0.40860   0.41200   0.01267  Uiso   1.00
H45    H     0.19490   0.04530   0.80490   0.01267  Uiso   1.00
C46    C     0.21770   0.92290   0.78210   0.01267  Uiso   1.00
O47    O     0.08730   0.90860   0.91200   0.01267  Uiso   1.00
H49    H     0.69490   0.45470   0.69510   0.01267  Uiso   1.00
C50    C     0.71770   0.57710   0.71790   0.01267  Uiso   1.00
O51    O     0.58730   0.59140   0.58800   0.01267  Uiso   1.00
H53    H     0.19490   0.95470   0.19510   0.01267  Uiso   1.00
C54    C     0.21770   0.07710   0.21790   0.01267  Uiso   1.00
O55    O     0.08730   0.09140   0.08800   0.01267  Uiso   1.00
H57    H     0.30510   0.04530   0.69510   0.01267  Uiso   1.00
C58    C     0.28230   0.92290   0.71790   0.01267  Uiso   1.00
O59    O     0.41270   0.90860   0.58800   0.01267  Uiso   1.00
H61    H     0.80510   0.54530   0.19510   0.01267  Uiso   1.00
C62    C     0.78230   0.42290   0.21790   0.01267  Uiso   1.00
O63    O     0.91270   0.40860   0.08800   0.01267  Uiso   1.00
Fe65   Fe    0.50000   0.00000   0.50000   0.01267  Uiso   1.00
Fe66   Fe    0.00000   0.50000   0.00000   0.01267  Uiso   1.00
Fe67   Fe    0.50000   0.50000   0.50000   0.01267  Uiso   1.00
Fe68   Fe    0.00000   0.00000   0.00000   0.01267  Uiso   1.00
C69    C     0.68540   0.75000   0.68570   0.01267  Uiso   1.00
C70    C     0.61690   0.75000   0.61750   0.01267  Uiso   1.00
C71    C     0.18540   0.25000   0.18570   0.01267  Uiso   1.00
C72    C     0.11690   0.25000   0.11750   0.01267  Uiso   1.00
C73    C     0.31460   0.75000   0.68570   0.01267  Uiso   1.00
C74    C     0.38310   0.75000   0.61750   0.01267  Uiso   1.00
C75    C     0.81460   0.25000   0.18570   0.01267  Uiso   1.00
C76    C     0.88310   0.25000   0.11750   0.01267  Uiso   1.00
C77    C     0.31460   0.25000   0.31430   0.01267  Uiso   1.00
C78    C     0.38310   0.25000   0.38250   0.01267  Uiso   1.00
C79    C     0.81460   0.75000   0.81430   0.01267  Uiso   1.00
C80    C     0.88310   0.75000   0.88250   0.01267  Uiso   1.00
C81    C     0.68540   0.25000   0.31430   0.01267  Uiso   1.00
C82    C     0.61690   0.25000   0.38250   0.01267  Uiso   1.00
C83    C     0.18540   0.75000   0.81430   0.01267  Uiso   1.00
C84    C     0.11690   0.75000   0.88250   0.01267  Uiso   1.00
O85    O     0.00000   0.25000   0.93810   0.01267  Uiso   1.00
O86    O     0.50000   0.75000   0.43810   0.01267  Uiso   1.00
O87    O     0.00000   0.75000   0.06190   0.01267  Uiso   1.00
O88    O     0.50000   0.25000   0.56190   0.01267  Uiso   1.00
