data_image0
_cell_length_a       19.3307
_cell_length_b       19.3307
_cell_length_c       19.481
_cell_angle_alpha    119.745
_cell_angle_beta     119.745
_cell_angle_gamma    90.0001

_symmetry_space_group_name_H-M    P 1
_symmetry_int_tables_number       1

loop_
  _symmetry_equiv_pos_as_xyz
  'x, y, z'

loop_
  _atom_site_label
  _atom_site_occupancy
  _atom_site_fract_x
  _atom_site_fract_y
  _atom_site_fract_z
  _atom_site_thermal_displace_type
  _atom_site_B_iso_or_equiv
  _atom_site_type_symbol
  Fe1      1.0000 0.72045  0.72045  0.44090  Biso   1.000  Fe
  Fe2      1.0000 0.27955  0.27955  0.55910  Biso   1.000  Fe
  Fe3      1.0000 0.52955  0.02955  0.05910  Biso   1.000  Fe
  Fe4      1.0000 0.97045  0.47045  0.94090  Biso   1.000  Fe
  Fe5      1.0000 0.92024  0.87500  0.25000  Biso   1.000  Fe
  Fe6      1.0000 0.32976  0.37500  0.25000  Biso   1.000  Fe
  Fe7      1.0000 0.12500  0.67024  0.75000  Biso   1.000  Fe
  Fe8      1.0000 0.62500  0.07976  0.75000  Biso   1.000  Fe
  H1       1.0000 0.83900  0.88270  0.99500  Biso   1.000  H
  H2       1.0000 0.72500  0.77660  0.84160  Biso   1.000  H
  H3       1.0000 0.62950  0.67960  0.81840  Biso   1.000  H
  H4       1.0000 0.65360  0.68640  0.95020  Biso   1.000  H
  H5       1.0000 0.65960  0.75940  0.08280  Biso   1.000  H
  H6       1.0000 0.59480  0.74010  0.15320  Biso   1.000  H
  H7       1.0000 0.60240  0.71800  0.26320  Biso   1.000  H
  H8       1.0000 0.84030  0.73640  0.37700  Biso   1.000  H
  H9       1.0000 0.84230  0.75850  0.27260  Biso   1.000  H
  H10      1.0000 0.83950  0.51500  0.42960  Biso   1.000  H
  H11      1.0000 0.83170  0.44560  0.49480  Biso   1.000  H
  H12      1.0000 0.78570  0.49860  0.59900  Biso   1.000  H
  H13      1.0000 0.73070  0.60750  0.61440  Biso   1.000  H
  H14      1.0000 0.65440  0.68090  0.58480  Biso   1.000  H
  H15      1.0000 0.54270  0.75900  0.56920  Biso   1.000  H
  H16      1.0000 0.52380  0.88920  0.62100  Biso   1.000  H
  H17      1.0000 0.74710  0.99470  0.70320  Biso   1.000  H
  H18      1.0000 0.77410  0.86880  0.65460  Biso   1.000  H
  H19      1.0000 0.15600  0.11230  0.99500  Biso   1.000  H
  H20      1.0000 0.11660  0.06500  0.84160  Biso   1.000  H
  H21      1.0000 0.18890  0.13880  0.81840  Biso   1.000  H
  H22      1.0000 0.29660  0.26380  0.95020  Biso   1.000  H
  H23      1.0000 0.42320  0.32340  0.08280  Biso   1.000  H
  H24      1.0000 0.55840  0.41310  0.15320  Biso   1.000  H
  H25      1.0000 0.66080  0.54520  0.26320  Biso   1.000  H
  H26      1.0000 0.53670  0.64060  0.37700  Biso   1.000  H
  H27      1.0000 0.43030  0.51410  0.27260  Biso   1.000  H
  H28      1.0000 0.59010  0.91460  0.42960  Biso   1.000  H
  H29      1.0000 0.66310  0.04920  0.49480  Biso   1.000  H
  H30      1.0000 0.81330  0.10040  0.59900  Biso   1.000  H
  H31      1.0000 0.88370  0.00690  0.61440  Biso   1.000  H
  H32      1.0000 0.93040  0.90390  0.58480  Biso   1.000  H
  H33      1.0000 0.02650  0.81020  0.56920  Biso   1.000  H
  H34      1.0000 0.09720  0.73180  0.62100  Biso   1.000  H
  H35      1.0000 0.95610  0.70850  0.70320  Biso   1.000  H
  H36      1.0000 0.88050  0.78580  0.65460  Biso   1.000  H
  H37      1.0000 0.11730  0.84400  0.00500  Biso   1.000  H
  H38      1.0000 0.22340  0.88340  0.15840  Biso   1.000  H
  H39      1.0000 0.32040  0.81110  0.18160  Biso   1.000  H
  H40      1.0000 0.31360  0.70340  0.04980  Biso   1.000  H
  H41      1.0000 0.24060  0.57680  0.91720  Biso   1.000  H
  H42      1.0000 0.25990  0.44160  0.84680  Biso   1.000  H
  H43      1.0000 0.28200  0.33920  0.73680  Biso   1.000  H
  H44      1.0000 0.26360  0.46330  0.62300  Biso   1.000  H
  H45      1.0000 0.24150  0.56970  0.72740  Biso   1.000  H
  H46      1.0000 0.48500  0.40990  0.57040  Biso   1.000  H
  H47      1.0000 0.55440  0.33690  0.50520  Biso   1.000  H
  H48      1.0000 0.50140  0.18670  0.40100  Biso   1.000  H
  H49      1.0000 0.39250  0.11630  0.38560  Biso   1.000  H
  H50      1.0000 0.31910  0.06960  0.41520  Biso   1.000  H
  H51      1.0000 0.24100  0.97350  0.43080  Biso   1.000  H
  H52      1.0000 0.11080  0.90280  0.37900  Biso   1.000  H
  H53      1.0000 0.00530  0.04390  0.29680  Biso   1.000  H
  H54      1.0000 0.13120  0.11950  0.34540  Biso   1.000  H
  H55      1.0000 0.88770  0.16100  0.00500  Biso   1.000  H
  H56      1.0000 0.93500  0.27500  0.15840  Biso   1.000  H
  H57      1.0000 0.86120  0.37050  0.18160  Biso   1.000  H
  H58      1.0000 0.73620  0.34640  0.04980  Biso   1.000  H
  H59      1.0000 0.67660  0.34040  0.91720  Biso   1.000  H
  H60      1.0000 0.58690  0.40520  0.84680  Biso   1.000  H
  H61      1.0000 0.45480  0.39760  0.73680  Biso   1.000  H
  H62      1.0000 0.35940  0.15970  0.62300  Biso   1.000  H
  H63      1.0000 0.48590  0.15770  0.72740  Biso   1.000  H
  H64      1.0000 0.08540  0.16050  0.57040  Biso   1.000  H
  H65      1.0000 0.95080  0.16830  0.50520  Biso   1.000  H
  H66      1.0000 0.89960  0.21430  0.40100  Biso   1.000  H
  H67      1.0000 0.99310  0.26930  0.38560  Biso   1.000  H
  H68      1.0000 0.09610  0.34560  0.41520  Biso   1.000  H
  H69      1.0000 0.18980  0.45730  0.43080  Biso   1.000  H
  H70      1.0000 0.26820  0.47620  0.37900  Biso   1.000  H
  H71      1.0000 0.29150  0.25290  0.29680  Biso   1.000  H
  H72      1.0000 0.21420  0.22590  0.34540  Biso   1.000  H
  H73      1.0000 0.09400  0.86730  0.50500  Biso   1.000  H
  H74      1.0000 0.13340  0.97340  0.65840  Biso   1.000  H
  H75      1.0000 0.06110  0.07040  0.68160  Biso   1.000  H
  H76      1.0000 0.95340  0.06360  0.54980  Biso   1.000  H
  H77      1.0000 0.82680  0.99060  0.41720  Biso   1.000  H
  H78      1.0000 0.69160  0.00990  0.34680  Biso   1.000  H
  H79      1.0000 0.58920  0.03200  0.23680  Biso   1.000  H
  H80      1.0000 0.71330  0.01360  0.12300  Biso   1.000  H
  H81      1.0000 0.81970  0.99150  0.22740  Biso   1.000  H
  H82      1.0000 0.65990  0.23500  0.07040  Biso   1.000  H
  H83      1.0000 0.58690  0.30440  0.00520  Biso   1.000  H
  H84      1.0000 0.43670  0.25140  0.90100  Biso   1.000  H
  H85      1.0000 0.36630  0.14250  0.88560  Biso   1.000  H
  H86      1.0000 0.31960  0.06910  0.91520  Biso   1.000  H
  H87      1.0000 0.22350  0.99100  0.93080  Biso   1.000  H
  H88      1.0000 0.15280  0.86080  0.87900  Biso   1.000  H
  H89      1.0000 0.29390  0.75530  0.79680  Biso   1.000  H
  H90      1.0000 0.36950  0.88120  0.84540  Biso   1.000  H
  H91      1.0000 0.41100  0.63770  0.50500  Biso   1.000  H
  H92      1.0000 0.52500  0.68500  0.65840  Biso   1.000  H
  H93      1.0000 0.62050  0.61120  0.68160  Biso   1.000  H
  H94      1.0000 0.59640  0.48620  0.54980  Biso   1.000  H
  H95      1.0000 0.59040  0.42660  0.41720  Biso   1.000  H
  H96      1.0000 0.65520  0.33690  0.34680  Biso   1.000  H
  H97      1.0000 0.64760  0.20480  0.23680  Biso   1.000  H
  H98      1.0000 0.40970  0.10940  0.12300  Biso   1.000  H
  H99      1.0000 0.40770  0.23590  0.22740  Biso   1.000  H
  H100     1.0000 0.41050  0.83540  0.07040  Biso   1.000  H
  H101     1.0000 0.41830  0.70080  0.00520  Biso   1.000  H
  H102     1.0000 0.46430  0.64960  0.90100  Biso   1.000  H
  H103     1.0000 0.51930  0.74310  0.88560  Biso   1.000  H
  H104     1.0000 0.59560  0.84610  0.91520  Biso   1.000  H
  H105     1.0000 0.70730  0.93980  0.93080  Biso   1.000  H
  H106     1.0000 0.72620  0.01820  0.87900  Biso   1.000  H
  H107     1.0000 0.50290  0.04150  0.79680  Biso   1.000  H
  H108     1.0000 0.47590  0.96420  0.84540  Biso   1.000  H
  H109     1.0000 0.36230  0.90600  0.49500  Biso   1.000  H
  H110     1.0000 0.31500  0.86660  0.34160  Biso   1.000  H
  H111     1.0000 0.38880  0.93890  0.31840  Biso   1.000  H
  H112     1.0000 0.51380  0.04660  0.45020  Biso   1.000  H
  H113     1.0000 0.57340  0.17320  0.58280  Biso   1.000  H
  H114     1.0000 0.66310  0.30840  0.65320  Biso   1.000  H
  H115     1.0000 0.79520  0.41080  0.76320  Biso   1.000  H
  H116     1.0000 0.89060  0.28670  0.87700  Biso   1.000  H
  H117     1.0000 0.76410  0.18030  0.77260  Biso   1.000  H
  H118     1.0000 0.16460  0.34010  0.92960  Biso   1.000  H
  H119     1.0000 0.29920  0.41310  0.99480  Biso   1.000  H
  H120     1.0000 0.35040  0.56330  0.09900  Biso   1.000  H
  H121     1.0000 0.25690  0.63370  0.11440  Biso   1.000  H
  H122     1.0000 0.15390  0.68040  0.08480  Biso   1.000  H
  H123     1.0000 0.06020  0.77650  0.06920  Biso   1.000  H
  H124     1.0000 0.98180  0.84720  0.12100  Biso   1.000  H
  H125     1.0000 0.95850  0.70610  0.20320  Biso   1.000  H
  H126     1.0000 0.03580  0.63050  0.15460  Biso   1.000  H
  H127     1.0000 0.13270  0.58900  0.49500  Biso   1.000  H
  H128     1.0000 0.02660  0.47500  0.34160  Biso   1.000  H
  H129     1.0000 0.92960  0.37950  0.31840  Biso   1.000  H
  H130     1.0000 0.93640  0.40360  0.45020  Biso   1.000  H
  H131     1.0000 0.00940  0.40960  0.58280  Biso   1.000  H
  H132     1.0000 0.99010  0.34480  0.65320  Biso   1.000  H
  H133     1.0000 0.96800  0.35240  0.76320  Biso   1.000  H
  H134     1.0000 0.98640  0.59030  0.87700  Biso   1.000  H
  H135     1.0000 0.00850  0.59230  0.77260  Biso   1.000  H
  H136     1.0000 0.76500  0.58950  0.92960  Biso   1.000  H
  H137     1.0000 0.69560  0.58170  0.99480  Biso   1.000  H
  H138     1.0000 0.74860  0.53570  0.09900  Biso   1.000  H
  H139     1.0000 0.85750  0.48070  0.11440  Biso   1.000  H
  H140     1.0000 0.93090  0.40440  0.08480  Biso   1.000  H
  H141     1.0000 0.00900  0.29270  0.06920  Biso   1.000  H
  H142     1.0000 0.13920  0.27380  0.12100  Biso   1.000  H
  H143     1.0000 0.24470  0.49710  0.20320  Biso   1.000  H
  H144     1.0000 0.11880  0.52410  0.15460  Biso   1.000  H
  C1       1.0000 0.81560  0.85010  0.06880  Biso   1.000  C
  C2       1.0000 0.80140  0.84340  0.98720  Biso   1.000  C
  C3       1.0000 0.73320  0.78010  0.89560  Biso   1.000  C
  C4       1.0000 0.67690  0.72200  0.88140  Biso   1.000  C
  C5       1.0000 0.69090  0.72720  0.95960  Biso   1.000  C
  C6       1.0000 0.75720  0.78930  0.05200  Biso   1.000  C
  C7       1.0000 0.71412  0.76912  0.13324  Biso   1.000  C
  C8       1.0000 0.71990  0.75520  0.20280  Biso   1.000  C
  C9       1.0000 0.64640  0.74020  0.19900  Biso   1.000  C
  C10      1.0000 0.65140  0.72570  0.26400  Biso   1.000  C
  C11      1.0000 0.78980  0.73640  0.33020  Biso   1.000  C
  C12      1.0000 0.79190  0.75110  0.26940  Biso   1.000  C
  C13      1.0000 0.78470  0.60130  0.47620  Biso   1.000  C
  C14      1.0000 0.81600  0.53360  0.46600  Biso   1.000  C
  C15      1.0000 0.81340  0.49350  0.50660  Biso   1.000  C
  C16      1.0000 0.78360  0.52320  0.56640  Biso   1.000  C
  C17      1.0000 0.75190  0.58800  0.57580  Biso   1.000  C
  C18      1.0000 0.74980  0.62660  0.53080  Biso   1.000  C
  C19      1.0000 0.67738  0.71858  0.57796  Biso   1.000  C
  C20      1.0000 0.66217  0.79907  0.60694  Biso   1.000  C
  C21      1.0000 0.58620  0.80670  0.59700  Biso   1.000  C
  C22      1.0000 0.57570  0.88500  0.62840  Biso   1.000  C
  C23      1.0000 0.70510  0.94590  0.67580  Biso   1.000  C
  C24      1.0000 0.72180  0.87100  0.64700  Biso   1.000  C
  C25      1.0000 0.25320  0.21870  0.06880  Biso   1.000  C
  C26      1.0000 0.18580  0.14380  0.98720  Biso   1.000  C
  C27      1.0000 0.16240  0.11550  0.89560  Biso   1.000  C
  C28      1.0000 0.20450  0.15940  0.88140  Biso   1.000  C
  C29      1.0000 0.26870  0.23240  0.95960  Biso   1.000  C
  C30      1.0000 0.29480  0.26270  0.05200  Biso   1.000  C
  C31      1.0000 0.41912  0.36412  0.13324  Biso   1.000  C
  C32      1.0000 0.48290  0.44760  0.20280  Biso   1.000  C
  C33      1.0000 0.55260  0.45880  0.19900  Biso   1.000  C
  C34      1.0000 0.61260  0.53830  0.26400  Biso   1.000  C
  C35      1.0000 0.54040  0.59380  0.33020  Biso   1.000  C
  C36      1.0000 0.47750  0.51830  0.26940  Biso   1.000  C
  C37      1.0000 0.69150  0.87490  0.47620  Biso   1.000  C
  C38      1.0000 0.65000  0.93240  0.46600  Biso   1.000  C
  C39      1.0000 0.69320  0.01310  0.50660  Biso   1.000  C
  C40      1.0000 0.78280  0.04320  0.56640  Biso   1.000  C
  C41      1.0000 0.82390  0.98780  0.57580  Biso   1.000  C
  C42      1.0000 0.78100  0.90420  0.53080  Biso   1.000  C
  C43      1.0000 0.90058  0.85938  0.57796  Biso   1.000  C
  C44      1.0000 0.94477  0.80787  0.60694  Biso   1.000  C
  C45      1.0000 0.01080  0.79030  0.59700  Biso   1.000  C
  C46      1.0000 0.05270  0.74340  0.62840  Biso   1.000  C
  C47      1.0000 0.97070  0.72990  0.67580  Biso   1.000  C
  C48      1.0000 0.92520  0.77600  0.64700  Biso   1.000  C
  C49      1.0000 0.14990  0.74680  0.93120  Biso   1.000  C
  C50      1.0000 0.15660  0.81420  0.01280  Biso   1.000  C
  C51      1.0000 0.21990  0.83760  0.10440  Biso   1.000  C
  C52      1.0000 0.27800  0.79550  0.11860  Biso   1.000  C
  C53      1.0000 0.27280  0.73130  0.04040  Biso   1.000  C
  C54      1.0000 0.21070  0.70520  0.94800  Biso   1.000  C
  C55      1.0000 0.23088  0.58088  0.86676  Biso   1.000  C
  C56      1.0000 0.24480  0.51710  0.79720  Biso   1.000  C
  C57      1.0000 0.25980  0.44740  0.80100  Biso   1.000  C
  C58      1.0000 0.27430  0.38740  0.73600  Biso   1.000  C
  C59      1.0000 0.26360  0.45960  0.66980  Biso   1.000  C
  C60      1.0000 0.24890  0.52250  0.73060  Biso   1.000  C
  C61      1.0000 0.39870  0.30850  0.52380  Biso   1.000  C
  C62      1.0000 0.46640  0.35000  0.53400  Biso   1.000  C
  C63      1.0000 0.50650  0.30680  0.49340  Biso   1.000  C
  C64      1.0000 0.47680  0.21720  0.43360  Biso   1.000  C
  C65      1.0000 0.41200  0.17610  0.42420  Biso   1.000  C
  C66      1.0000 0.37340  0.21900  0.46920  Biso   1.000  C
  C67      1.0000 0.28142  0.09942  0.42204  Biso   1.000  C
  C68      1.0000 0.20093  0.05523  0.39306  Biso   1.000  C
  C69      1.0000 0.19330  0.98920  0.40300  Biso   1.000  C
  C70      1.0000 0.11500  0.94730  0.37160  Biso   1.000  C
  C71      1.0000 0.05410  0.02930  0.32420  Biso   1.000  C
  C72      1.0000 0.12900  0.07480  0.35300  Biso   1.000  C
  C73      1.0000 0.78130  0.18440  0.93120  Biso   1.000  C
  C74      1.0000 0.85620  0.19860  0.01280  Biso   1.000  C
  C75      1.0000 0.88450  0.26680  0.10440  Biso   1.000  C
  C76      1.0000 0.84060  0.32310  0.11860  Biso   1.000  C
  C77      1.0000 0.76760  0.30910  0.04040  Biso   1.000  C
  C78      1.0000 0.73730  0.24280  0.94800  Biso   1.000  C
  C79      1.0000 0.63588  0.28588  0.86676  Biso   1.000  C
  C80      1.0000 0.55240  0.28010  0.79720  Biso   1.000  C
  C81      1.0000 0.54120  0.35360  0.80100  Biso   1.000  C
  C82      1.0000 0.46170  0.34860  0.73600  Biso   1.000  C
  C83      1.0000 0.40620  0.21020  0.66980  Biso   1.000  C
  C84      1.0000 0.48170  0.20810  0.73060  Biso   1.000  C
  C85      1.0000 0.12510  0.21530  0.52380  Biso   1.000  C
  C86      1.0000 0.06760  0.18400  0.53400  Biso   1.000  C
  C87      1.0000 0.98690  0.18660  0.49340  Biso   1.000  C
  C88      1.0000 0.95680  0.21640  0.43360  Biso   1.000  C
  C89      1.0000 0.01220  0.24810  0.42420  Biso   1.000  C
  C90      1.0000 0.09580  0.25020  0.46920  Biso   1.000  C
  C91      1.0000 0.14062  0.32262  0.42204  Biso   1.000  C
  C92      1.0000 0.19213  0.33783  0.39306  Biso   1.000  C
  C93      1.0000 0.20970  0.41380  0.40300  Biso   1.000  C
  C94      1.0000 0.25660  0.42430  0.37160  Biso   1.000  C
  C95      1.0000 0.27010  0.29490  0.32420  Biso   1.000  C
  C96      1.0000 0.22400  0.27820  0.35300  Biso   1.000  C
  C97      1.0000 0.99680  0.89990  0.43120  Biso   1.000  C
  C98      1.0000 0.06420  0.90660  0.51280  Biso   1.000  C
  C99      1.0000 0.08760  0.96990  0.60440  Biso   1.000  C
  C100     1.0000 0.04550  0.02800  0.61860  Biso   1.000  C
  C101     1.0000 0.98130  0.02280  0.54040  Biso   1.000  C
  C102     1.0000 0.95520  0.96070  0.44800  Biso   1.000  C
  C103     1.0000 0.83088  0.98088  0.36676  Biso   1.000  C
  C104     1.0000 0.76710  0.99480  0.29720  Biso   1.000  C
  C105     1.0000 0.69740  0.00980  0.30100  Biso   1.000  C
  C106     1.0000 0.63740  0.02430  0.23600  Biso   1.000  C
  C107     1.0000 0.70960  0.01360  0.16980  Biso   1.000  C
  C108     1.0000 0.77250  0.99890  0.23060  Biso   1.000  C
  C109     1.0000 0.55850  0.14870  0.02380  Biso   1.000  C
  C110     1.0000 0.60000  0.21640  0.03400  Biso   1.000  C
  C111     1.0000 0.55680  0.25650  0.99340  Biso   1.000  C
  C112     1.0000 0.46720  0.22680  0.93360  Biso   1.000  C
  C113     1.0000 0.42610  0.16200  0.92420  Biso   1.000  C
  C114     1.0000 0.46900  0.12340  0.96920  Biso   1.000  C
  C115     1.0000 0.34942  0.03142  0.92204  Biso   1.000  C
  C116     1.0000 0.30523  0.95093  0.89306  Biso   1.000  C
  C117     1.0000 0.23920  0.94330  0.90300  Biso   1.000  C
  C118     1.0000 0.19730  0.86500  0.87160  Biso   1.000  C
  C119     1.0000 0.27930  0.80410  0.82420  Biso   1.000  C
  C120     1.0000 0.32480  0.87900  0.85300  Biso   1.000  C
  C121     1.0000 0.43440  0.53130  0.43120  Biso   1.000  C
  C122     1.0000 0.44860  0.60620  0.51280  Biso   1.000  C
  C123     1.0000 0.51680  0.63450  0.60440  Biso   1.000  C
  C124     1.0000 0.57310  0.59060  0.61860  Biso   1.000  C
  C125     1.0000 0.55910  0.51760  0.54040  Biso   1.000  C
  C126     1.0000 0.49280  0.48730  0.44800  Biso   1.000  C
  C127     1.0000 0.53588  0.38588  0.36676  Biso   1.000  C
  C128     1.0000 0.53010  0.30240  0.29720  Biso   1.000  C
  C129     1.0000 0.60360  0.29120  0.30100  Biso   1.000  C
  C130     1.0000 0.59860  0.21170  0.23600  Biso   1.000  C
  C131     1.0000 0.46020  0.15620  0.16980  Biso   1.000  C
  C132     1.0000 0.45810  0.23170  0.23060  Biso   1.000  C
  C133     1.0000 0.46530  0.87510  0.02380  Biso   1.000  C
  C134     1.0000 0.43400  0.81760  0.03400  Biso   1.000  C
  C135     1.0000 0.43660  0.73690  0.99340  Biso   1.000  C
  C136     1.0000 0.46640  0.70680  0.93360  Biso   1.000  C
  C137     1.0000 0.49810  0.76220  0.92420  Biso   1.000  C
  C138     1.0000 0.50020  0.84580  0.96920  Biso   1.000  C
  C139     1.0000 0.57262  0.89062  0.92204  Biso   1.000  C
  C140     1.0000 0.58783  0.94213  0.89306  Biso   1.000  C
  C141     1.0000 0.66380  0.95970  0.90300  Biso   1.000  C
  C142     1.0000 0.67430  0.00660  0.87160  Biso   1.000  C
  C143     1.0000 0.54490  0.02010  0.82420  Biso   1.000  C
  C144     1.0000 0.52820  0.97400  0.85300  Biso   1.000  C
  C145     1.0000 0.46870  0.00320  0.56880  Biso   1.000  C
  C146     1.0000 0.39380  0.93580  0.48720  Biso   1.000  C
  C147     1.0000 0.36550  0.91240  0.39560  Biso   1.000  C
  C148     1.0000 0.40940  0.95450  0.38140  Biso   1.000  C
  C149     1.0000 0.48240  0.01870  0.45960  Biso   1.000  C
  C150     1.0000 0.51270  0.04480  0.55200  Biso   1.000  C
  C151     1.0000 0.61412  0.16912  0.63324  Biso   1.000  C
  C152     1.0000 0.69760  0.23290  0.70280  Biso   1.000  C
  C153     1.0000 0.70880  0.30260  0.69900  Biso   1.000  C
  C154     1.0000 0.78830  0.36260  0.76400  Biso   1.000  C
  C155     1.0000 0.84380  0.29040  0.83020  Biso   1.000  C
  C156     1.0000 0.76830  0.22750  0.76940  Biso   1.000  C
  C157     1.0000 0.12490  0.44150  0.97620  Biso   1.000  C
  C158     1.0000 0.18240  0.40000  0.96600  Biso   1.000  C
  C159     1.0000 0.26310  0.44320  0.00660  Biso   1.000  C
  C160     1.0000 0.29320  0.53280  0.06640  Biso   1.000  C
  C161     1.0000 0.23780  0.57390  0.07580  Biso   1.000  C
  C162     1.0000 0.15420  0.53100  0.03080  Biso   1.000  C
  C163     1.0000 0.10938  0.65058  0.07796  Biso   1.000  C
  C164     1.0000 0.05787  0.69477  0.10694  Biso   1.000  C
  C165     1.0000 0.04030  0.76080  0.09700  Biso   1.000  C
  C166     1.0000 0.99340  0.80270  0.12840  Biso   1.000  C
  C167     1.0000 0.97990  0.72070  0.17580  Biso   1.000  C
  C168     1.0000 0.02600  0.67520  0.14700  Biso   1.000  C
  C169     1.0000 0.10010  0.56560  0.56880  Biso   1.000  C
  C170     1.0000 0.09340  0.55140  0.48720  Biso   1.000  C
  C171     1.0000 0.03010  0.48320  0.39560  Biso   1.000  C
  C172     1.0000 0.97200  0.42690  0.38140  Biso   1.000  C
  C173     1.0000 0.97720  0.44090  0.45960  Biso   1.000  C
  C174     1.0000 0.03930  0.50720  0.55200  Biso   1.000  C
  C175     1.0000 0.01912  0.46412  0.63324  Biso   1.000  C
  C176     1.0000 0.00520  0.46990  0.70280  Biso   1.000  C
  C177     1.0000 0.99020  0.39640  0.69900  Biso   1.000  C
  C178     1.0000 0.97570  0.40140  0.76400  Biso   1.000  C
  C179     1.0000 0.98640  0.53980  0.83020  Biso   1.000  C
  C180     1.0000 0.00110  0.54190  0.76940  Biso   1.000  C
  C181     1.0000 0.85130  0.53470  0.97620  Biso   1.000  C
  C182     1.0000 0.78360  0.56600  0.96600  Biso   1.000  C
  C183     1.0000 0.74350  0.56340  0.00660  Biso   1.000  C
  C184     1.0000 0.77320  0.53360  0.06640  Biso   1.000  C
  C185     1.0000 0.83800  0.50190  0.07580  Biso   1.000  C
  C186     1.0000 0.87660  0.49980  0.03080  Biso   1.000  C
  C187     1.0000 0.96858  0.42738  0.07796  Biso   1.000  C
  C188     1.0000 0.04907  0.41217  0.10694  Biso   1.000  C
  C189     1.0000 0.05670  0.33620  0.09700  Biso   1.000  C
  C190     1.0000 0.13500  0.32570  0.12840  Biso   1.000  C
  C191     1.0000 0.19590  0.45510  0.17580  Biso   1.000  C
  C192     1.0000 0.12100  0.47180  0.14700  Biso   1.000  C
  N1       1.0000 0.77739  0.79359  0.13498  Biso   1.000  N
  N2       1.0000 0.72016  0.72186  0.32732  Biso   1.000  N
  N3       1.0000 0.72198  0.69748  0.54276  Biso   1.000  N
  N4       1.0000 0.63284  0.95414  0.66768  Biso   1.000  N
  N5       1.0000 0.35759  0.34139  0.13498  Biso   1.000  N
  N6       1.0000 0.60716  0.60546  0.32732  Biso   1.000  N
  N7       1.0000 0.82078  0.84528  0.54276  Biso   1.000  N
  N8       1.0000 0.03484  0.71354  0.66768  Biso   1.000  N
  N9       1.0000 0.20641  0.64241  0.86502  Biso   1.000  N
  N10      1.0000 0.27814  0.39284  0.67268  Biso   1.000  N
  N11      1.0000 0.30252  0.17922  0.45724  Biso   1.000  N
  N12      1.0000 0.04586  0.96516  0.33232  Biso   1.000  N
  N13      1.0000 0.65861  0.22261  0.86502  Biso   1.000  N
  N14      1.0000 0.39454  0.27984  0.67268  Biso   1.000  N
  N15      1.0000 0.15472  0.27802  0.45724  Biso   1.000  N
  N16      1.0000 0.28646  0.36716  0.33232  Biso   1.000  N
  N17      1.0000 0.89241  0.95641  0.36502  Biso   1.000  N
  N18      1.0000 0.64284  0.02814  0.17268  Biso   1.000  N
  N19      1.0000 0.42922  0.05252  0.95724  Biso   1.000  N
  N20      1.0000 0.21516  0.79586  0.83232  Biso   1.000  N
  N21      1.0000 0.47261  0.40861  0.36502  Biso   1.000  N
  N22      1.0000 0.52984  0.14454  0.17268  Biso   1.000  N
  N23      1.0000 0.52802  0.90472  0.95724  Biso   1.000  N
  N24      1.0000 0.61716  0.03646  0.83232  Biso   1.000  N
  N25      1.0000 0.59139  0.10759  0.63498  Biso   1.000  N
  N26      1.0000 0.85546  0.35716  0.82732  Biso   1.000  N
  N27      1.0000 0.09528  0.57078  0.04276  Biso   1.000  N
  N28      1.0000 0.96354  0.78484  0.16768  Biso   1.000  N
  N29      1.0000 0.04359  0.52739  0.63498  Biso   1.000  N
  N30      1.0000 0.97186  0.47016  0.82732  Biso   1.000  N
  N31      1.0000 0.94748  0.47198  0.04276  Biso   1.000  N
  N32      1.0000 0.20414  0.38284  0.16768  Biso   1.000  N
  O1       1.0000 0.87914  0.90984  0.15716  Biso   1.000  O
  O2       1.0000 0.78777  0.64062  0.43864  Biso   1.000  O
  O3       1.0000 0.27802  0.24732  0.15716  Biso   1.000  O
  O4       1.0000 0.65087  0.79802  0.43864  Biso   1.000  O
  O5       1.0000 0.09016  0.72198  0.84284  Biso   1.000  O
  O6       1.0000 0.35938  0.34913  0.56136  Biso   1.000  O
  O7       1.0000 0.75268  0.12086  0.84284  Biso   1.000  O
  O8       1.0000 0.20198  0.21223  0.56136  Biso   1.000  O
  O9       1.0000 0.97198  0.84016  0.34284  Biso   1.000  O
  O10      1.0000 0.59913  0.10938  0.06136  Biso   1.000  O
  O11      1.0000 0.37086  0.50268  0.34284  Biso   1.000  O
  O12      1.0000 0.46223  0.95198  0.06136  Biso   1.000  O
  O13      1.0000 0.49732  0.02802  0.65716  Biso   1.000  O
  O14      1.0000 0.04802  0.40087  0.93864  Biso   1.000  O
  O15      1.0000 0.15984  0.62914  0.65716  Biso   1.000  O
  O16      1.0000 0.89062  0.53777  0.93864  Biso   1.000  O
