data_image0
_cell_length_a       8.16499
_cell_length_b       8.8419
_cell_length_c       12.2259
_cell_angle_alpha    75.1131
_cell_angle_beta     70.4931
_cell_angle_gamma    62.5018

_symmetry_space_group_name_H-M    P 1
_symmetry_int_tables_number       1

loop_
  _symmetry_equiv_pos_as_xyz
  'x, y, z'

loop_
  _atom_site_label
  _atom_site_occupancy
  _atom_site_fract_x
  _atom_site_fract_y
  _atom_site_fract_z
  _atom_site_thermal_displace_type
  _atom_site_B_iso_or_equiv
  _atom_site_type_symbol
  Cd1      1.0000 0.42541  0.25000  0.75000  Biso   1.000  Cd
  Cd2      1.0000 0.57459  0.75000  0.25000  Biso   1.000  Cd
  H1       1.0000 0.49070  0.52490  0.10490  Biso   1.000  H
  H2       1.0000 0.55580  0.33520  0.11820  Biso   1.000  H
  H3       1.0000 0.12050  0.97510  0.39510  Biso   1.000  H
  H4       1.0000 0.00920  0.16480  0.38180  Biso   1.000  H
  H5       1.0000 0.50930  0.47510  0.89510  Biso   1.000  H
  H6       1.0000 0.44420  0.66480  0.88180  Biso   1.000  H
  H7       1.0000 0.87950  0.02490  0.60490  Biso   1.000  H
  H8       1.0000 0.99080  0.83520  0.61820  Biso   1.000  H
  C1       1.0000 0.50030  0.41930  0.26090  Biso   1.000  C
  C2       1.0000 0.54370  0.25600  0.33200  Biso   1.000  C
  C3       1.0000 0.53050  0.24880  0.45060  Biso   1.000  C
  C4       1.0000 0.59280  0.10440  0.28860  Biso   1.000  C
  C5       1.0000 0.18050  0.08070  0.23910  Biso   1.000  C
  C6       1.0000 0.13170  0.24400  0.16800  Biso   1.000  C
  C7       1.0000 0.22990  0.25120  0.04940  Biso   1.000  C
  C8       1.0000 0.98580  0.39560  0.21140  Biso   1.000  C
  C9       1.0000 0.49970  0.58070  0.73910  Biso   1.000  C
  C10      1.0000 0.45630  0.74400  0.66800  Biso   1.000  C
  C11      1.0000 0.46950  0.75120  0.54940  Biso   1.000  C
  C12      1.0000 0.40720  0.89560  0.71140  Biso   1.000  C
  C13      1.0000 0.81950  0.91930  0.76090  Biso   1.000  C
  C14      1.0000 0.86830  0.75600  0.83200  Biso   1.000  C
  C15      1.0000 0.77010  0.74880  0.95060  Biso   1.000  C
  C16      1.0000 0.01420  0.60440  0.78860  Biso   1.000  C
  N1       1.0000 0.51760  0.42740  0.14820  Biso   1.000  N
  N2       1.0000 0.51890  0.24170  0.54770  Biso   1.000  N
  N3       1.0000 0.63430  0.98010  0.25270  Biso   1.000  N
  N4       1.0000 0.09320  0.07260  0.35180  Biso   1.000  N
  N5       1.0000 0.30830  0.25830  0.95230  Biso   1.000  N
  N6       1.0000 0.86710  0.51990  0.24730  Biso   1.000  N
  N7       1.0000 0.48240  0.57260  0.85180  Biso   1.000  N
  N8       1.0000 0.48110  0.75830  0.45230  Biso   1.000  N
  N9       1.0000 0.36570  0.01990  0.74730  Biso   1.000  N
  N10      1.0000 0.90680  0.92740  0.64820  Biso   1.000  N
  N11      1.0000 0.69170  0.74170  0.04770  Biso   1.000  N
  N12      1.0000 0.13290  0.48010  0.75270  Biso   1.000  N
  O1       1.0000 0.44446  0.55329  0.30599  Biso   1.000  O
  O2       1.0000 0.30374  0.94671  0.19401  Biso   1.000  O
  O3       1.0000 0.55554  0.44671  0.69401  Biso   1.000  O
  O4       1.0000 0.69626  0.05329  0.80599  Biso   1.000  O
