data_image0
_cell_length_a       8.19704
_cell_length_b       8.7136
_cell_length_c       12.1356
_cell_angle_alpha    74.6923
_cell_angle_beta     70.2616
_cell_angle_gamma    61.9424

_symmetry_space_group_name_H-M    P 1
_symmetry_int_tables_number       1

loop_
  _symmetry_equiv_pos_as_xyz
  'x, y, z'

loop_
  _atom_site_label
  _atom_site_occupancy
  _atom_site_fract_x
  _atom_site_fract_y
  _atom_site_fract_z
  _atom_site_thermal_displace_type
  _atom_site_B_iso_or_equiv
  _atom_site_type_symbol
  Mn1      1.0000 0.07756  0.75000  0.25000  Biso   1.000  Mn
  Mn2      1.0000 0.92244  0.25000  0.75000  Biso   1.000  Mn
  H1       1.0000 0.49400  0.83100  0.61700  Biso   1.000  H
  H2       1.0000 0.37000  0.02500  0.60500  Biso   1.000  H
  H3       1.0000 0.94200  0.66900  0.88300  Biso   1.000  H
  H4       1.0000 0.00000  0.47500  0.89500  Biso   1.000  H
  H5       1.0000 0.50600  0.16900  0.38300  Biso   1.000  H
  H6       1.0000 0.63000  0.97500  0.39500  Biso   1.000  H
  H7       1.0000 0.05800  0.33100  0.11700  Biso   1.000  H
  H8       1.0000 0.00000  0.52500  0.10500  Biso   1.000  H
  C1       1.0000 0.30956  0.91838  0.75790  Biso   1.000  C
  C2       1.0000 0.36340  0.75540  0.83340  Biso   1.000  C
  C3       1.0000 0.26789  0.75142  0.95340  Biso   1.000  C
  C4       1.0000 0.51331  0.59998  0.79140  Biso   1.000  C
  C5       1.0000 0.98584  0.58162  0.74210  Biso   1.000  C
  C6       1.0000 0.95220  0.74460  0.66660  Biso   1.000  C
  C7       1.0000 0.97271  0.74858  0.54660  Biso   1.000  C
  C8       1.0000 0.90469  0.90002  0.70860  Biso   1.000  C
  C9       1.0000 0.69044  0.08162  0.24210  Biso   1.000  C
  C10      1.0000 0.63660  0.24460  0.16660  Biso   1.000  C
  C11      1.0000 0.73211  0.24858  0.04660  Biso   1.000  C
  C12      1.0000 0.48669  0.40002  0.20860  Biso   1.000  C
  C13      1.0000 0.01416  0.41838  0.25790  Biso   1.000  C
  C14      1.0000 0.04780  0.25540  0.33340  Biso   1.000  C
  C15      1.0000 0.02729  0.25142  0.45340  Biso   1.000  C
  C16      1.0000 0.09531  0.09998  0.29140  Biso   1.000  C
  N1       1.0000 0.39710  0.92420  0.64500  Biso   1.000  N
  N2       1.0000 0.19149  0.74682  0.05180  Biso   1.000  N
  N3       1.0000 0.63571  0.47331  0.75607  Biso   1.000  N
  N4       1.0000 0.96630  0.57580  0.85500  Biso   1.000  N
  N5       1.0000 0.99011  0.75318  0.44820  Biso   1.000  N
  N6       1.0000 0.86509  0.02669  0.74393  Biso   1.000  N
  N7       1.0000 0.60290  0.07580  0.35500  Biso   1.000  N
  N8       1.0000 0.80851  0.25318  0.94820  Biso   1.000  N
  N9       1.0000 0.36429  0.52669  0.24393  Biso   1.000  N
  N10      1.0000 0.03370  0.42420  0.14500  Biso   1.000  N
  N11      1.0000 0.00989  0.24682  0.55180  Biso   1.000  N
  N12      1.0000 0.13491  0.97331  0.25607  Biso   1.000  N
  O1       1.0000 0.17969  0.05703  0.80019  Biso   1.000  O
  O2       1.0000 0.03691  0.44297  0.69981  Biso   1.000  O
  O3       1.0000 0.82031  0.94297  0.19981  Biso   1.000  O
  O4       1.0000 0.96309  0.55703  0.30019  Biso   1.000  O
