data_image0
_cell_length_a       6.85513
_cell_length_b       15.2317
_cell_length_c       15.2317
_cell_angle_alpha    62.2094
_cell_angle_beta     81.372
_cell_angle_gamma    98.628

_symmetry_space_group_name_H-M    P 1
_symmetry_int_tables_number       1

loop_
  _symmetry_equiv_pos_as_xyz
  'x, y, z'

loop_
  _atom_site_label
  _atom_site_occupancy
  _atom_site_fract_x
  _atom_site_fract_y
  _atom_site_fract_z
  _atom_site_thermal_displace_type
  _atom_site_B_iso_or_equiv
  _atom_site_type_symbol
  Fe1      1.0000 0.88677  0.67935  0.58884  Biso   1.000  Fe
  Fe2      1.0000 0.47561  0.58884  0.73181  Biso   1.000  Fe
  Fe3      1.0000 0.20742  0.73181  0.67935  Biso   1.000  Fe
  Fe4      1.0000 0.11323  0.32065  0.41116  Biso   1.000  Fe
  Fe5      1.0000 0.52439  0.41116  0.26819  Biso   1.000  Fe
  Fe6      1.0000 0.79258  0.26819  0.32065  Biso   1.000  Fe
  H1       1.0000 0.65670  0.01960  0.53750  Biso   1.000  H
  H2       1.0000 0.19420  0.53750  0.44290  Biso   1.000  H
  H3       1.0000 0.63710  0.44290  0.01960  Biso   1.000  H
  H4       1.0000 0.34330  0.98040  0.46250  Biso   1.000  H
  H5       1.0000 0.80580  0.46250  0.55710  Biso   1.000  H
  H6       1.0000 0.36290  0.55710  0.98040  Biso   1.000  H
  C1       1.0000 0.65165  0.82609  0.61234  Biso   1.000  C
  C2       1.0000 0.83409  0.91670  0.55403  Biso   1.000  C
  C3       1.0000 0.03285  0.89555  0.54020  Biso   1.000  C
  C4       1.0000 0.80121  0.01021  0.51788  Biso   1.000  C
  C5       1.0000 0.26399  0.61234  0.56157  Biso   1.000  C
  C6       1.0000 0.38812  0.55403  0.52927  Biso   1.000  C
  C7       1.0000 0.57305  0.54020  0.56425  Biso   1.000  C
  C8       1.0000 0.31909  0.51788  0.47191  Biso   1.000  C
  C9       1.0000 0.82556  0.56157  0.82609  Biso   1.000  C
  C10      1.0000 0.91739  0.52927  0.91670  Biso   1.000  C
  C11      1.0000 0.13730  0.56425  0.89555  Biso   1.000  C
  C12      1.0000 0.79100  0.47191  0.01021  Biso   1.000  C
  C13      1.0000 0.34835  0.17391  0.38766  Biso   1.000  C
  C14      1.0000 0.16591  0.08330  0.44597  Biso   1.000  C
  C15      1.0000 0.96715  0.10445  0.45980  Biso   1.000  C
  C16      1.0000 0.19879  0.98979  0.48212  Biso   1.000  C
  C17      1.0000 0.73601  0.38766  0.43843  Biso   1.000  C
  C18      1.0000 0.61188  0.44597  0.47073  Biso   1.000  C
  C19      1.0000 0.42695  0.45980  0.43575  Biso   1.000  C
  C20      1.0000 0.68091  0.48212  0.52809  Biso   1.000  C
  C21      1.0000 0.17444  0.43843  0.17391  Biso   1.000  C
  C22      1.0000 0.08261  0.47073  0.08330  Biso   1.000  C
  C23      1.0000 0.86270  0.43575  0.10445  Biso   1.000  C
  C24      1.0000 0.20900  0.52809  0.98979  Biso   1.000  C
  O1       1.0000 0.67773  0.73653  0.64224  Biso   1.000  O
  O2       1.0000 0.48200  0.84360  0.62490  Biso   1.000  O
  O3       1.0000 0.06542  0.79974  0.57648  Biso   1.000  O
  O4       1.0000 0.31997  0.64224  0.62123  Biso   1.000  O
  O5       1.0000 0.10690  0.62490  0.53150  Biso   1.000  O
  O6       1.0000 0.64190  0.57648  0.62378  Biso   1.000  O
  O7       1.0000 0.94120  0.62123  0.73653  Biso   1.000  O
  O8       1.0000 0.63840  0.53150  0.84360  Biso   1.000  O
  O9       1.0000 0.26568  0.62378  0.79974  Biso   1.000  O
  O10      1.0000 0.32227  0.26347  0.35776  Biso   1.000  O
  O11      1.0000 0.51800  0.15640  0.37510  Biso   1.000  O
  O12      1.0000 0.93458  0.20026  0.42352  Biso   1.000  O
  O13      1.0000 0.68003  0.35776  0.37877  Biso   1.000  O
  O14      1.0000 0.89310  0.37510  0.46850  Biso   1.000  O
  O15      1.0000 0.35810  0.42352  0.37622  Biso   1.000  O
  O16      1.0000 0.05880  0.37877  0.26347  Biso   1.000  O
  O17      1.0000 0.36160  0.46850  0.15640  Biso   1.000  O
  O18      1.0000 0.73432  0.37622  0.20026  Biso   1.000  O
