data_image0
_cell_length_a       6.94482
_cell_length_b       15.1304
_cell_length_c       15.1304
_cell_angle_alpha    62.2971
_cell_angle_beta     81.1992
_cell_angle_gamma    98.8008

_symmetry_space_group_name_H-M    P 1
_symmetry_int_tables_number       1

loop_
  _symmetry_equiv_pos_as_xyz
  'x, y, z'

loop_
  _atom_site_label
  _atom_site_occupancy
  _atom_site_fract_x
  _atom_site_fract_y
  _atom_site_fract_z
  _atom_site_thermal_displace_type
  _atom_site_B_iso_or_equiv
  _atom_site_type_symbol
  Fe1      1.0000 0.87630  0.68030  0.58010  Biso   1.000  Fe
  Fe2      1.0000 0.45640  0.58010  0.73960  Biso   1.000  Fe
  Fe3      1.0000 0.19600  0.73960  0.68030  Biso   1.000  Fe
  Fe4      1.0000 0.12370  0.31970  0.41990  Biso   1.000  Fe
  Fe5      1.0000 0.54360  0.41990  0.26040  Biso   1.000  Fe
  Fe6      1.0000 0.80400  0.26040  0.31970  Biso   1.000  Fe
  H1       1.0000 0.64390  0.00890  0.54720  Biso   1.000  H
  H2       1.0000 0.19110  0.54720  0.44390  Biso   1.000  H
  H3       1.0000 0.63500  0.44390  0.00890  Biso   1.000  H
  H4       1.0000 0.35610  0.99110  0.45280  Biso   1.000  H
  H5       1.0000 0.80890  0.45280  0.55610  Biso   1.000  H
  H6       1.0000 0.36500  0.55610  0.99110  Biso   1.000  H
  C1       1.0000 0.65870  0.82860  0.60300  Biso   1.000  C
  C2       1.0000 0.83940  0.91730  0.55280  Biso   1.000  C
  C3       1.0000 0.02580  0.89300  0.54530  Biso   1.000  C
  C4       1.0000 0.81490  0.01230  0.51910  Biso   1.000  C
  C5       1.0000 0.26170  0.60300  0.56840  Biso   1.000  C
  C6       1.0000 0.39220  0.55280  0.52990  Biso   1.000  C
  C7       1.0000 0.57110  0.54530  0.56170  Biso   1.000  C
  C8       1.0000 0.33400  0.51910  0.46860  Biso   1.000  C
  C9       1.0000 0.83010  0.56840  0.82860  Biso   1.000  C
  C10      1.0000 0.92210  0.52990  0.91730  Biso   1.000  C
  C11      1.0000 0.13280  0.56170  0.89300  Biso   1.000  C
  C12      1.0000 0.80260  0.46860  0.01230  Biso   1.000  C
  C13      1.0000 0.34130  0.17140  0.39700  Biso   1.000  C
  C14      1.0000 0.16060  0.08270  0.44720  Biso   1.000  C
  C15      1.0000 0.97420  0.10700  0.45470  Biso   1.000  C
  C16      1.0000 0.18510  0.98770  0.48090  Biso   1.000  C
  C17      1.0000 0.73830  0.39700  0.43160  Biso   1.000  C
  C18      1.0000 0.60780  0.44720  0.47010  Biso   1.000  C
  C19      1.0000 0.42890  0.45470  0.43830  Biso   1.000  C
  C20      1.0000 0.66600  0.48090  0.53140  Biso   1.000  C
  C21      1.0000 0.16990  0.43160  0.17140  Biso   1.000  C
  C22      1.0000 0.07790  0.47010  0.08270  Biso   1.000  C
  C23      1.0000 0.86720  0.43830  0.10700  Biso   1.000  C
  C24      1.0000 0.19740  0.53140  0.98770  Biso   1.000  C
  O1       1.0000 0.66830  0.73040  0.65870  Biso   1.000  O
  O2       1.0000 0.47980  0.83720  0.62450  Biso   1.000  O
  O3       1.0000 0.07710  0.80150  0.56510  Biso   1.000  O
  O4       1.0000 0.32700  0.65870  0.61090  Biso   1.000  O
  O5       1.0000 0.10430  0.62450  0.53830  Biso   1.000  O
  O6       1.0000 0.64220  0.56510  0.63340  Biso   1.000  O
  O7       1.0000 0.93790  0.61090  0.73040  Biso   1.000  O
  O8       1.0000 0.64260  0.53830  0.83720  Biso   1.000  O
  O9       1.0000 0.27560  0.63340  0.80150  Biso   1.000  O
  O10      1.0000 0.33170  0.26960  0.34130  Biso   1.000  O
  O11      1.0000 0.52020  0.16280  0.37550  Biso   1.000  O
  O12      1.0000 0.92290  0.19850  0.43490  Biso   1.000  O
  O13      1.0000 0.67300  0.34130  0.38910  Biso   1.000  O
  O14      1.0000 0.89570  0.37550  0.46170  Biso   1.000  O
  O15      1.0000 0.35780  0.43490  0.36660  Biso   1.000  O
  O16      1.0000 0.06210  0.38910  0.26960  Biso   1.000  O
  O17      1.0000 0.35740  0.46170  0.16280  Biso   1.000  O
  O18      1.0000 0.72440  0.36660  0.19850  Biso   1.000  O
