data_image0
_cell_length_a       6.82816
_cell_length_b       15.2094
_cell_length_c       15.2094
_cell_angle_alpha    62.1986
_cell_angle_beta     81.3935
_cell_angle_gamma    98.6065

_symmetry_space_group_name_H-M    P 1
_symmetry_int_tables_number       1

loop_
  _symmetry_equiv_pos_as_xyz
  'x, y, z'

loop_
  _atom_site_label
  _atom_site_occupancy
  _atom_site_fract_x
  _atom_site_fract_y
  _atom_site_fract_z
  _atom_site_thermal_displace_type
  _atom_site_B_iso_or_equiv
  _atom_site_type_symbol
  Fe1      1.0000 0.88619  0.68344  0.58837  Biso   1.000  Fe
  Fe2      1.0000 0.47456  0.58837  0.72819  Biso   1.000  Fe
  Fe3      1.0000 0.20275  0.72819  0.68344  Biso   1.000  Fe
  Fe4      1.0000 0.11381  0.31656  0.41163  Biso   1.000  Fe
  Fe5      1.0000 0.52544  0.41163  0.27181  Biso   1.000  Fe
  Fe6      1.0000 0.79725  0.27181  0.31656  Biso   1.000  Fe
  H1       1.0000 0.67030  0.03200  0.53250  Biso   1.000  H
  H2       1.0000 0.20280  0.53250  0.43550  Biso   1.000  H
  H3       1.0000 0.63830  0.43550  0.03200  Biso   1.000  H
  H4       1.0000 0.32970  0.96800  0.46750  Biso   1.000  H
  H5       1.0000 0.79720  0.46750  0.56450  Biso   1.000  H
  H6       1.0000 0.36170  0.56450  0.96800  Biso   1.000  H
  C1       1.0000 0.65590  0.82700  0.61040  Biso   1.000  C
  C2       1.0000 0.82258  0.91706  0.54812  Biso   1.000  C
  C3       1.0000 0.02840  0.89490  0.53790  Biso   1.000  C
  C4       1.0000 0.80670  0.01290  0.51760  Biso   1.000  C
  C5       1.0000 0.26630  0.61040  0.56260  Biso   1.000  C
  C6       1.0000 0.37070  0.54812  0.53482  Biso   1.000  C
  C7       1.0000 0.56630  0.53790  0.56720  Biso   1.000  C
  C8       1.0000 0.32430  0.51760  0.46950  Biso   1.000  C
  C9       1.0000 0.82890  0.56260  0.82700  Biso   1.000  C
  C10      1.0000 0.90552  0.53482  0.91706  Biso   1.000  C
  C11      1.0000 0.13350  0.56720  0.89490  Biso   1.000  C
  C12      1.0000 0.79380  0.46950  0.01290  Biso   1.000  C
  C13      1.0000 0.34410  0.17300  0.38960  Biso   1.000  C
  C14      1.0000 0.17742  0.08294  0.45188  Biso   1.000  C
  C15      1.0000 0.97160  0.10510  0.46210  Biso   1.000  C
  C16      1.0000 0.19330  0.98710  0.48240  Biso   1.000  C
  C17      1.0000 0.73370  0.38960  0.43740  Biso   1.000  C
  C18      1.0000 0.62930  0.45188  0.46518  Biso   1.000  C
  C19      1.0000 0.43370  0.46210  0.43280  Biso   1.000  C
  C20      1.0000 0.67570  0.48240  0.53050  Biso   1.000  C
  C21      1.0000 0.17110  0.43740  0.17300  Biso   1.000  C
  C22      1.0000 0.09448  0.46518  0.08294  Biso   1.000  C
  C23      1.0000 0.86650  0.43280  0.10510  Biso   1.000  C
  C24      1.0000 0.20620  0.53050  0.98710  Biso   1.000  C
  O1       1.0000 0.68290  0.73900  0.63880  Biso   1.000  O
  O2       1.0000 0.51610  0.86310  0.61470  Biso   1.000  O
  O3       1.0000 0.07060  0.81030  0.57690  Biso   1.000  O
  O4       1.0000 0.32170  0.63880  0.62220  Biso   1.000  O
  O5       1.0000 0.13080  0.61470  0.52220  Biso   1.000  O
  O6       1.0000 0.64750  0.57690  0.61280  Biso   1.000  O
  O7       1.0000 0.94390  0.62220  0.73900  Biso   1.000  O
  O8       1.0000 0.65300  0.52220  0.86310  Biso   1.000  O
  O9       1.0000 0.26030  0.61280  0.81030  Biso   1.000  O
  O10      1.0000 0.31710  0.26100  0.36120  Biso   1.000  O
  O11      1.0000 0.48390  0.13690  0.38530  Biso   1.000  O
  O12      1.0000 0.92940  0.18970  0.42310  Biso   1.000  O
  O13      1.0000 0.67830  0.36120  0.37780  Biso   1.000  O
  O14      1.0000 0.86920  0.38530  0.47780  Biso   1.000  O
  O15      1.0000 0.35250  0.42310  0.38720  Biso   1.000  O
  O16      1.0000 0.05610  0.37780  0.26100  Biso   1.000  O
  O17      1.0000 0.34700  0.47780  0.13690  Biso   1.000  O
  O18      1.0000 0.73970  0.38720  0.18970  Biso   1.000  O
