data_image0
_cell_length_a       15.747
_cell_length_b       22.8979
_cell_length_c       22.8979
_cell_angle_alpha    83.2098
_cell_angle_beta     69.8882
_cell_angle_gamma    69.8882

_symmetry_space_group_name_H-M    P 1
_symmetry_int_tables_number       1

loop_
  _symmetry_equiv_pos_as_xyz
  'x, y, z'

loop_
  _atom_site_label
  _atom_site_occupancy
  _atom_site_fract_x
  _atom_site_fract_y
  _atom_site_fract_z
  _atom_site_thermal_displace_type
  _atom_site_B_iso_or_equiv
  _atom_site_type_symbol
  Gd1      1.0000 0.58828  0.25325  0.20678  Biso   1.000  Gd
  Gd2      1.0000 0.34075  0.25107  0.19375  Biso   1.000  Gd
  Gd3      1.0000 0.04831  0.74675  0.79322  Biso   1.000  Gd
  Gd4      1.0000 0.78557  0.74893  0.80625  Biso   1.000  Gd
  Gd5      1.0000 0.04506  0.29322  0.75325  Biso   1.000  Gd
  Gd6      1.0000 0.78450  0.30625  0.75107  Biso   1.000  Gd
  Gd7      1.0000 0.09153  0.70678  0.24675  Biso   1.000  Gd
  Gd8      1.0000 0.84182  0.69375  0.24893  Biso   1.000  Gd
  Gd9      1.0000 0.54831  0.79322  0.74675  Biso   1.000  Gd
  Gd10     1.0000 0.28557  0.80625  0.74893  Biso   1.000  Gd
  Gd11     1.0000 0.08828  0.20678  0.25325  Biso   1.000  Gd
  Gd12     1.0000 0.84075  0.19375  0.25107  Biso   1.000  Gd
  Gd13     1.0000 0.59153  0.24675  0.70678  Biso   1.000  Gd
  Gd14     1.0000 0.34182  0.24893  0.69375  Biso   1.000  Gd
  Gd15     1.0000 0.54506  0.75325  0.29322  Biso   1.000  Gd
  Gd16     1.0000 0.28450  0.75107  0.30625  Biso   1.000  Gd
  H1       1.0000 0.59290  0.32220  0.99920  Biso   1.000  H
  H2       1.0000 0.61060  0.31690  0.89430  Biso   1.000  H
  H3       1.0000 0.56230  0.13090  0.87610  Biso   1.000  H
  H4       1.0000 0.52830  0.05390  0.94390  Biso   1.000  H
  H5       1.0000 0.52170  0.05690  0.04610  Biso   1.000  H
  H6       1.0000 0.54020  0.13790  0.08230  Biso   1.000  H
  H7       1.0000 0.26400  0.29550  0.50770  Biso   1.000  H
  H8       1.0000 0.26890  0.29460  0.40600  Biso   1.000  H
  H9       1.0000 0.51300  0.11770  0.32090  Biso   1.000  H
  H10      1.0000 0.61320  0.03770  0.35710  Biso   1.000  H
  H11      1.0000 0.60350  0.02940  0.46060  Biso   1.000  H
  H12      1.0000 0.49590  0.10930  0.52770  Biso   1.000  H
  H13      1.0000 0.45340  0.45070  0.17530  Biso   1.000  H
  H14      1.0000 0.42210  0.55340  0.19520  Biso   1.000  H
  H15      1.0000 0.17850  0.59110  0.38230  Biso   1.000  H
  H16      1.0000 0.08870  0.53650  0.44990  Biso   1.000  H
  H17      1.0000 0.11380  0.43390  0.42570  Biso   1.000  H
  H18      1.0000 0.23350  0.38700  0.33720  Biso   1.000  H
  H19      1.0000 0.91430  0.67780  0.00080  Biso   1.000  H
  H20      1.0000 0.82180  0.68310  0.10570  Biso   1.000  H
  H21      1.0000 0.56930  0.86910  0.12390  Biso   1.000  H
  H22      1.0000 0.52610  0.94610  0.05610  Biso   1.000  H
  H23      1.0000 0.62470  0.94310  0.95390  Biso   1.000  H
  H24      1.0000 0.76040  0.86210  0.91770  Biso   1.000  H
  H25      1.0000 0.06720  0.70450  0.49230  Biso   1.000  H
  H26      1.0000 0.96950  0.70540  0.59400  Biso   1.000  H
  H27      1.0000 0.95160  0.88230  0.67910  Biso   1.000  H
  H28      1.0000 0.00800  0.96230  0.64290  Biso   1.000  H
  H29      1.0000 0.09350  0.97060  0.53940  Biso   1.000  H
  H30      1.0000 0.13290  0.89070  0.47230  Biso   1.000  H
  H31      1.0000 0.07940  0.54930  0.82470  Biso   1.000  H
  H32      1.0000 0.17070  0.44660  0.80480  Biso   1.000  H
  H33      1.0000 0.15190  0.40890  0.61770  Biso   1.000  H
  H34      1.0000 0.07510  0.46350  0.55010  Biso   1.000  H
  H35      1.0000 0.97340  0.56610  0.57430  Biso   1.000  H
  H36      1.0000 0.95770  0.61300  0.66280  Biso   1.000  H
  H37      1.0000 0.84210  0.50080  0.82220  Biso   1.000  H
  H38      1.0000 0.75490  0.60570  0.81690  Biso   1.000  H
  H39      1.0000 0.68840  0.62390  0.63090  Biso   1.000  H
  H40      1.0000 0.72220  0.55610  0.55390  Biso   1.000  H
  H41      1.0000 0.81780  0.45390  0.55690  Biso   1.000  H
  H42      1.0000 0.87250  0.41770  0.63790  Biso   1.000  H
  H43      1.0000 0.02170  0.99230  0.79550  Biso   1.000  H
  H44      1.0000 0.92490  0.09400  0.79460  Biso   1.000  H
  H45      1.0000 0.08390  0.17910  0.61770  Biso   1.000  H
  H46      1.0000 0.22030  0.14290  0.53770  Biso   1.000  H
  H47      1.0000 0.31410  0.03940  0.52940  Biso   1.000  H
  H48      1.0000 0.27360  0.97230  0.60930  Biso   1.000  H
  H49      1.0000 0.87870  0.32470  0.95070  Biso   1.000  H
  H50      1.0000 0.86730  0.30480  0.05340  Biso   1.000  H
  H51      1.0000 0.81080  0.11770  0.09110  Biso   1.000  H
  H52      1.0000 0.78860  0.05010  0.03650  Biso   1.000  H
  H53      1.0000 0.78950  0.07430  0.93390  Biso   1.000  H
  H54      1.0000 0.82070  0.16280  0.88700  Biso   1.000  H
  H55      1.0000 0.16510  0.49920  0.17780  Biso   1.000  H
  H56      1.0000 0.17750  0.39430  0.18310  Biso   1.000  H
  H57      1.0000 0.94320  0.37610  0.36910  Biso   1.000  H
  H58      1.0000 0.83220  0.44390  0.44610  Biso   1.000  H
  H59      1.0000 0.82860  0.54610  0.44310  Biso   1.000  H
  H60      1.0000 0.92810  0.58230  0.36210  Biso   1.000  H
  H61      1.0000 0.80950  0.00770  0.20450  Biso   1.000  H
  H62      1.0000 0.81350  0.90600  0.20540  Biso   1.000  H
  H63      1.0000 0.88070  0.82090  0.38230  Biso   1.000  H
  H64      1.0000 0.90090  0.85710  0.46230  Biso   1.000  H
  H65      1.0000 0.88290  0.96060  0.47060  Biso   1.000  H
  H66      1.0000 0.85520  0.02770  0.39070  Biso   1.000  H
  H67      1.0000 0.15410  0.67530  0.04930  Biso   1.000  H
  H68      1.0000 0.22550  0.69520  0.94660  Biso   1.000  H
  H69      1.0000 0.01960  0.88230  0.90890  Biso   1.000  H
  H70      1.0000 0.87520  0.94990  0.96350  Biso   1.000  H
  H71      1.0000 0.79770  0.92570  0.06610  Biso   1.000  H
  H72      1.0000 0.87050  0.83720  0.11300  Biso   1.000  H
  H73      1.0000 0.41430  0.00080  0.67780  Biso   1.000  H
  H74      1.0000 0.32180  0.10570  0.68310  Biso   1.000  H
  H75      1.0000 0.06930  0.12390  0.86910  Biso   1.000  H
  H76      1.0000 0.02610  0.05610  0.94610  Biso   1.000  H
  H77      1.0000 0.12470  0.95390  0.94310  Biso   1.000  H
  H78      1.0000 0.26040  0.91770  0.86210  Biso   1.000  H
  H79      1.0000 0.56720  0.49230  0.70450  Biso   1.000  H
  H80      1.0000 0.46950  0.59400  0.70540  Biso   1.000  H
  H81      1.0000 0.45160  0.67910  0.88230  Biso   1.000  H
  H82      1.0000 0.50800  0.64290  0.96230  Biso   1.000  H
  H83      1.0000 0.59350  0.53940  0.97060  Biso   1.000  H
  H84      1.0000 0.63290  0.47230  0.89070  Biso   1.000  H
  H85      1.0000 0.57940  0.82470  0.54930  Biso   1.000  H
  H86      1.0000 0.67070  0.80480  0.44660  Biso   1.000  H
  H87      1.0000 0.65190  0.61770  0.40890  Biso   1.000  H
  H88      1.0000 0.57510  0.55010  0.46350  Biso   1.000  H
  H89      1.0000 0.47340  0.57430  0.56610  Biso   1.000  H
  H90      1.0000 0.45770  0.66280  0.61300  Biso   1.000  H
  H91      1.0000 0.09290  0.99920  0.32220  Biso   1.000  H
  H92      1.0000 0.11060  0.89430  0.31690  Biso   1.000  H
  H93      1.0000 0.06230  0.87610  0.13090  Biso   1.000  H
  H94      1.0000 0.02830  0.94390  0.05390  Biso   1.000  H
  H95      1.0000 0.02170  0.04610  0.05690  Biso   1.000  H
  H96      1.0000 0.04020  0.08230  0.13790  Biso   1.000  H
  H97      1.0000 0.76400  0.50770  0.29550  Biso   1.000  H
  H98      1.0000 0.76890  0.40600  0.29460  Biso   1.000  H
  H99      1.0000 0.01300  0.32090  0.11770  Biso   1.000  H
  H100     1.0000 0.11320  0.35710  0.03770  Biso   1.000  H
  H101     1.0000 0.10350  0.46060  0.02940  Biso   1.000  H
  H102     1.0000 0.99590  0.52770  0.10930  Biso   1.000  H
  H103     1.0000 0.95340  0.17530  0.45070  Biso   1.000  H
  H104     1.0000 0.92210  0.19520  0.55340  Biso   1.000  H
  H105     1.0000 0.67850  0.38230  0.59110  Biso   1.000  H
  H106     1.0000 0.58870  0.44990  0.53650  Biso   1.000  H
  H107     1.0000 0.61380  0.42570  0.43390  Biso   1.000  H
  H108     1.0000 0.73350  0.33720  0.38700  Biso   1.000  H
  H109     1.0000 0.66510  0.17780  0.49920  Biso   1.000  H
  H110     1.0000 0.67750  0.18310  0.39430  Biso   1.000  H
  H111     1.0000 0.44320  0.36910  0.37610  Biso   1.000  H
  H112     1.0000 0.33220  0.44610  0.44390  Biso   1.000  H
  H113     1.0000 0.32860  0.44310  0.54610  Biso   1.000  H
  H114     1.0000 0.42810  0.36210  0.58230  Biso   1.000  H
  H115     1.0000 0.30950  0.20450  0.00770  Biso   1.000  H
  H116     1.0000 0.31350  0.20540  0.90600  Biso   1.000  H
  H117     1.0000 0.38070  0.38230  0.82090  Biso   1.000  H
  H118     1.0000 0.40090  0.46230  0.85710  Biso   1.000  H
  H119     1.0000 0.38290  0.47060  0.96060  Biso   1.000  H
  H120     1.0000 0.35520  0.39070  0.02770  Biso   1.000  H
  H121     1.0000 0.65410  0.04930  0.67530  Biso   1.000  H
  H122     1.0000 0.72550  0.94660  0.69520  Biso   1.000  H
  H123     1.0000 0.51960  0.90890  0.88230  Biso   1.000  H
  H124     1.0000 0.37520  0.96350  0.94990  Biso   1.000  H
  H125     1.0000 0.29770  0.06610  0.92570  Biso   1.000  H
  H126     1.0000 0.37050  0.11300  0.83720  Biso   1.000  H
  H127     1.0000 0.34210  0.82220  0.50080  Biso   1.000  H
  H128     1.0000 0.25490  0.81690  0.60570  Biso   1.000  H
  H129     1.0000 0.18840  0.63090  0.62390  Biso   1.000  H
  H130     1.0000 0.22220  0.55390  0.55610  Biso   1.000  H
  H131     1.0000 0.31780  0.55690  0.45390  Biso   1.000  H
  H132     1.0000 0.37250  0.63790  0.41770  Biso   1.000  H
  H133     1.0000 0.52170  0.79550  0.99230  Biso   1.000  H
  H134     1.0000 0.42490  0.79460  0.09400  Biso   1.000  H
  H135     1.0000 0.58390  0.61770  0.17910  Biso   1.000  H
  H136     1.0000 0.72030  0.53770  0.14290  Biso   1.000  H
  H137     1.0000 0.81410  0.52940  0.03940  Biso   1.000  H
  H138     1.0000 0.77360  0.60930  0.97230  Biso   1.000  H
  H139     1.0000 0.37870  0.95070  0.32470  Biso   1.000  H
  H140     1.0000 0.36730  0.05340  0.30480  Biso   1.000  H
  H141     1.0000 0.31080  0.09110  0.11770  Biso   1.000  H
  H142     1.0000 0.28860  0.03650  0.05010  Biso   1.000  H
  H143     1.0000 0.28950  0.93390  0.07430  Biso   1.000  H
  H144     1.0000 0.32070  0.88700  0.16280  Biso   1.000  H
  C1       1.0000 0.56940  0.24100  0.02340  Biso   1.000  C
  C2       1.0000 0.58770  0.28790  0.98430  Biso   1.000  C
  C3       1.0000 0.59860  0.28440  0.92060  Biso   1.000  C
  C4       1.0000 0.59190  0.23530  0.89710  Biso   1.000  C
  C5       1.0000 0.57100  0.18560  0.93700  Biso   1.000  C
  C6       1.0000 0.55760  0.13340  0.91740  Biso   1.000  C
  C7       1.0000 0.53800  0.08690  0.95770  Biso   1.000  C
  C8       1.0000 0.53290  0.08930  0.01930  Biso   1.000  C
  C9       1.0000 0.54390  0.13770  0.04090  Biso   1.000  C
  C10      1.0000 0.56120  0.18850  0.00170  Biso   1.000  C
  C11      1.0000 0.56570  0.24720  0.08880  Biso   1.000  C
  C12      1.0000 0.60450  0.23650  0.82970  Biso   1.000  C
  C13      1.0000 0.36870  0.21390  0.50550  Biso   1.000  C
  C14      1.0000 0.30810  0.26250  0.48190  Biso   1.000  C
  C15      1.0000 0.31240  0.26260  0.42020  Biso   1.000  C
  C16      1.0000 0.38000  0.21600  0.37960  Biso   1.000  C
  C17      1.0000 0.44140  0.16570  0.40150  Biso   1.000  C
  C18      1.0000 0.50870  0.11710  0.36250  Biso   1.000  C
  C19      1.0000 0.56770  0.06890  0.38450  Biso   1.000  C
  C20      1.0000 0.56350  0.06400  0.44640  Biso   1.000  C
  C21      1.0000 0.49830  0.11160  0.48640  Biso   1.000  C
  C22      1.0000 0.43540  0.16370  0.46630  Biso   1.000  C
  C23      1.0000 0.35650  0.22070  0.57290  Biso   1.000  C
  C24      1.0000 0.37800  0.22200  0.31380  Biso   1.000  C
  C25      1.0000 0.35230  0.43410  0.24810  Biso   1.000  C
  C26      1.0000 0.40400  0.46900  0.21080  Biso   1.000  C
  C27      1.0000 0.38670  0.53070  0.22290  Biso   1.000  C
  C28      1.0000 0.31600  0.55810  0.27690  Biso   1.000  C
  C29      1.0000 0.26170  0.52280  0.31860  Biso   1.000  C
  C30      1.0000 0.18950  0.55010  0.37330  Biso   1.000  C
  C31      1.0000 0.13540  0.51810  0.41350  Biso   1.000  C
  C32      1.0000 0.15130  0.45610  0.39910  Biso   1.000  C
  C33      1.0000 0.22260  0.42830  0.34550  Biso   1.000  C
  C34      1.0000 0.27890  0.46110  0.30330  Biso   1.000  C
  C35      1.0000 0.37670  0.36860  0.22840  Biso   1.000  C
  C36      1.0000 0.29990  0.62320  0.28980  Biso   1.000  C
  C37      1.0000 0.83380  0.75900  0.97660  Biso   1.000  C
  C38      1.0000 0.85990  0.71210  0.01570  Biso   1.000  C
  C39      1.0000 0.80360  0.71560  0.07940  Biso   1.000  C
  C40      1.0000 0.72430  0.76470  0.10290  Biso   1.000  C
  C41      1.0000 0.69360  0.81440  0.06300  Biso   1.000  C
  C42      1.0000 0.60840  0.86660  0.08260  Biso   1.000  C
  C43      1.0000 0.58260  0.91310  0.04230  Biso   1.000  C
  C44      1.0000 0.64150  0.91070  0.98070  Biso   1.000  C
  C45      1.0000 0.72250  0.86230  0.95910  Biso   1.000  C
  C46      1.0000 0.75140  0.81150  0.99830  Biso   1.000  C
  C47      1.0000 0.90170  0.75280  0.91120  Biso   1.000  C
  C48      1.0000 0.67070  0.76350  0.17030  Biso   1.000  C
  C49      1.0000 0.08810  0.78610  0.49450  Biso   1.000  C
  C50      1.0000 0.05250  0.73750  0.51810  Biso   1.000  C
  C51      1.0000 0.99520  0.73740  0.57980  Biso   1.000  C
  C52      1.0000 0.97560  0.78400  0.62040  Biso   1.000  C
  C53      1.0000 0.00860  0.83430  0.59850  Biso   1.000  C
  C54      1.0000 0.98830  0.88290  0.63750  Biso   1.000  C
  C55      1.0000 0.02110  0.93110  0.61550  Biso   1.000  C
  C56      1.0000 0.07390  0.93600  0.55360  Biso   1.000  C
  C57      1.0000 0.09630  0.88840  0.51360  Biso   1.000  C
  C58      1.0000 0.06540  0.83630  0.53370  Biso   1.000  C
  C59      1.0000 0.15010  0.77930  0.42710  Biso   1.000  C
  C60      1.0000 0.91380  0.77800  0.68620  Biso   1.000  C
  C61      1.0000 0.03450  0.56590  0.75190  Biso   1.000  C
  C62      1.0000 0.08380  0.53100  0.78920  Biso   1.000  C
  C63      1.0000 0.14030  0.46930  0.77710  Biso   1.000  C
  C64      1.0000 0.15100  0.44190  0.72310  Biso   1.000  C
  C65      1.0000 0.10310  0.47720  0.68140  Biso   1.000  C
  C66      1.0000 0.11290  0.44990  0.62670  Biso   1.000  C
  C67      1.0000 0.06700  0.48190  0.58650  Biso   1.000  C
  C68      1.0000 0.00650  0.54390  0.60090  Biso   1.000  C
  C69      1.0000 0.99640  0.57170  0.65450  Biso   1.000  C
  C70      1.0000 0.04330  0.53890  0.69670  Biso   1.000  C
  C71      1.0000 0.97370  0.63140  0.77160  Biso   1.000  C
  C72      1.0000 0.21290  0.37680  0.71020  Biso   1.000  C
  C73      1.0000 0.84280  0.47660  0.74100  Biso   1.000  C
  C74      1.0000 0.82200  0.51570  0.78790  Biso   1.000  C
  C75      1.0000 0.76920  0.57940  0.78440  Biso   1.000  C
  C76      1.0000 0.73900  0.60290  0.73530  Biso   1.000  C
  C77      1.0000 0.75800  0.56300  0.68560  Biso   1.000  C
  C78      1.0000 0.72500  0.58260  0.63340  Biso   1.000  C
  C79      1.0000 0.74570  0.54230  0.58690  Biso   1.000  C
  C80      1.0000 0.80220  0.48070  0.58930  Biso   1.000  C
  C81      1.0000 0.83480  0.45910  0.63770  Biso   1.000  C
  C82      1.0000 0.81290  0.49830  0.68850  Biso   1.000  C
  C83      1.0000 0.90450  0.41120  0.74720  Biso   1.000  C
  C84      1.0000 0.68420  0.67030  0.73650  Biso   1.000  C
  C85      1.0000 0.12420  0.99450  0.71390  Biso   1.000  C
  C86      1.0000 0.04000  0.01810  0.76250  Biso   1.000  C
  C87      1.0000 0.98260  0.07980  0.76260  Biso   1.000  C
  C88      1.0000 0.00960  0.12040  0.71600  Biso   1.000  C
  C89      1.0000 0.09290  0.09850  0.66570  Biso   1.000  C
  C90      1.0000 0.12120  0.13750  0.61710  Biso   1.000  C
  C91      1.0000 0.20220  0.11550  0.56890  Biso   1.000  C
  C92      1.0000 0.25990  0.05360  0.56400  Biso   1.000  C
  C93      1.0000 0.23470  0.01360  0.61160  Biso   1.000  C
  C94      1.0000 0.15170  0.03370  0.66370  Biso   1.000  C
  C95      1.0000 0.17940  0.92710  0.72070  Biso   1.000  C
  C96      1.0000 0.94180  0.18620  0.72200  Biso   1.000  C
  C97      1.0000 0.85040  0.25190  0.93410  Biso   1.000  C
  C98      1.0000 0.86480  0.28920  0.96900  Biso   1.000  C
  C99      1.0000 0.85960  0.27710  0.03070  Biso   1.000  C
  C100     1.0000 0.84290  0.22310  0.05810  Biso   1.000  C
  C101     1.0000 0.83030  0.18140  0.02280  Biso   1.000  C
  C102     1.0000 0.81280  0.12670  0.05010  Biso   1.000  C
  C103     1.0000 0.79890  0.08650  0.01810  Biso   1.000  C
  C104     1.0000 0.80040  0.10090  0.95610  Biso   1.000  C
  C105     1.0000 0.81810  0.15450  0.92830  Biso   1.000  C
  C106     1.0000 0.83220  0.19670  0.96110  Biso   1.000  C
  C107     1.0000 0.85510  0.27160  0.86860  Biso   1.000  C
  C108     1.0000 0.83970  0.21020  0.12320  Biso   1.000  C
  C109     1.0000 0.06040  0.52340  0.25900  Biso   1.000  C
  C110     1.0000 0.12560  0.48430  0.21210  Biso   1.000  C
  C111     1.0000 0.13300  0.42060  0.21560  Biso   1.000  C
  C112     1.0000 0.07720  0.39710  0.26470  Biso   1.000  C
  C113     1.0000 0.00660  0.43700  0.31440  Biso   1.000  C
  C114     1.0000 0.94100  0.41740  0.36660  Biso   1.000  C
  C115     1.0000 0.87490  0.45770  0.41310  Biso   1.000  C
  C116     1.0000 0.87220  0.51930  0.41070  Biso   1.000  C
  C117     1.0000 0.93160  0.54090  0.36230  Biso   1.000  C
  C118     1.0000 0.99970  0.50170  0.31150  Biso   1.000  C
  C119     1.0000 0.06290  0.58880  0.25280  Biso   1.000  C
  C120     1.0000 0.09100  0.32970  0.26350  Biso   1.000  C
  C121     1.0000 0.83260  0.00550  0.28610  Biso   1.000  C
  C122     1.0000 0.82060  0.98190  0.23750  Biso   1.000  C
  C123     1.0000 0.82500  0.92020  0.23740  Biso   1.000  C
  C124     1.0000 0.84600  0.87960  0.28400  Biso   1.000  C
  C125     1.0000 0.85710  0.90150  0.33430  Biso   1.000  C
  C126     1.0000 0.87580  0.86250  0.38290  Biso   1.000  C
  C127     1.0000 0.88660  0.88450  0.43110  Biso   1.000  C
  C128     1.0000 0.87750  0.94640  0.43600  Biso   1.000  C
  C129     1.0000 0.85990  0.98640  0.38840  Biso   1.000  C
  C130     1.0000 0.84910  0.96630  0.33630  Biso   1.000  C
  C131     1.0000 0.82720  0.07290  0.27930  Biso   1.000  C
  C132     1.0000 0.85000  0.81380  0.27800  Biso   1.000  C
  C133     1.0000 0.03640  0.74810  0.06590  Biso   1.000  C
  C134     1.0000 0.12300  0.71080  0.03100  Biso   1.000  C
  C135     1.0000 0.16740  0.72290  0.96930  Biso   1.000  C
  C136     1.0000 0.12410  0.77690  0.94190  Biso   1.000  C
  C137     1.0000 0.03450  0.81860  0.97720  Biso   1.000  C
  C138     1.0000 0.98960  0.87330  0.94990  Biso   1.000  C
  C139     1.0000 0.90350  0.91350  0.98190  Biso   1.000  C
  C140     1.0000 0.85740  0.89910  0.04390  Biso   1.000  C
  C141     1.0000 0.90090  0.84550  0.07170  Biso   1.000  C
  C142     1.0000 0.99000  0.80330  0.03890  Biso   1.000  C
  C143     1.0000 0.99530  0.72840  0.13140  Biso   1.000  C
  C144     1.0000 0.17310  0.78980  0.87680  Biso   1.000  C
  C145     1.0000 0.33380  0.97660  0.75900  Biso   1.000  C
  C146     1.0000 0.35990  0.01570  0.71210  Biso   1.000  C
  C147     1.0000 0.30360  0.07940  0.71560  Biso   1.000  C
  C148     1.0000 0.22430  0.10290  0.76470  Biso   1.000  C
  C149     1.0000 0.19360  0.06300  0.81440  Biso   1.000  C
  C150     1.0000 0.10840  0.08260  0.86660  Biso   1.000  C
  C151     1.0000 0.08260  0.04230  0.91310  Biso   1.000  C
  C152     1.0000 0.14150  0.98070  0.91070  Biso   1.000  C
  C153     1.0000 0.22250  0.95910  0.86230  Biso   1.000  C
  C154     1.0000 0.25140  0.99830  0.81150  Biso   1.000  C
  C155     1.0000 0.40170  0.91120  0.75280  Biso   1.000  C
  C156     1.0000 0.17070  0.17030  0.76350  Biso   1.000  C
  C157     1.0000 0.58810  0.49450  0.78610  Biso   1.000  C
  C158     1.0000 0.55250  0.51810  0.73750  Biso   1.000  C
  C159     1.0000 0.49520  0.57980  0.73740  Biso   1.000  C
  C160     1.0000 0.47560  0.62040  0.78400  Biso   1.000  C
  C161     1.0000 0.50860  0.59850  0.83430  Biso   1.000  C
  C162     1.0000 0.48830  0.63750  0.88290  Biso   1.000  C
  C163     1.0000 0.52110  0.61550  0.93110  Biso   1.000  C
  C164     1.0000 0.57390  0.55360  0.93600  Biso   1.000  C
  C165     1.0000 0.59630  0.51360  0.88840  Biso   1.000  C
  C166     1.0000 0.56540  0.53370  0.83630  Biso   1.000  C
  C167     1.0000 0.65010  0.42710  0.77930  Biso   1.000  C
  C168     1.0000 0.41380  0.68620  0.77800  Biso   1.000  C
  C169     1.0000 0.53450  0.75190  0.56590  Biso   1.000  C
  C170     1.0000 0.58380  0.78920  0.53100  Biso   1.000  C
  C171     1.0000 0.64030  0.77710  0.46930  Biso   1.000  C
  C172     1.0000 0.65100  0.72310  0.44190  Biso   1.000  C
  C173     1.0000 0.60310  0.68140  0.47720  Biso   1.000  C
  C174     1.0000 0.61290  0.62670  0.44990  Biso   1.000  C
  C175     1.0000 0.56700  0.58650  0.48190  Biso   1.000  C
  C176     1.0000 0.50650  0.60090  0.54390  Biso   1.000  C
  C177     1.0000 0.49640  0.65450  0.57170  Biso   1.000  C
  C178     1.0000 0.54330  0.69670  0.53890  Biso   1.000  C
  C179     1.0000 0.47370  0.77160  0.63140  Biso   1.000  C
  C180     1.0000 0.71290  0.71020  0.37680  Biso   1.000  C
  C181     1.0000 0.06940  0.02340  0.24100  Biso   1.000  C
  C182     1.0000 0.08770  0.98430  0.28790  Biso   1.000  C
  C183     1.0000 0.09860  0.92060  0.28440  Biso   1.000  C
  C184     1.0000 0.09190  0.89710  0.23530  Biso   1.000  C
  C185     1.0000 0.07100  0.93700  0.18560  Biso   1.000  C
  C186     1.0000 0.05760  0.91740  0.13340  Biso   1.000  C
  C187     1.0000 0.03800  0.95770  0.08690  Biso   1.000  C
  C188     1.0000 0.03290  0.01930  0.08930  Biso   1.000  C
  C189     1.0000 0.04390  0.04090  0.13770  Biso   1.000  C
  C190     1.0000 0.06120  0.00170  0.18850  Biso   1.000  C
  C191     1.0000 0.06570  0.08880  0.24720  Biso   1.000  C
  C192     1.0000 0.10450  0.82970  0.23650  Biso   1.000  C
  C193     1.0000 0.86870  0.50550  0.21390  Biso   1.000  C
  C194     1.0000 0.80810  0.48190  0.26250  Biso   1.000  C
  C195     1.0000 0.81240  0.42020  0.26260  Biso   1.000  C
  C196     1.0000 0.88000  0.37960  0.21600  Biso   1.000  C
  C197     1.0000 0.94140  0.40150  0.16570  Biso   1.000  C
  C198     1.0000 0.00870  0.36250  0.11710  Biso   1.000  C
  C199     1.0000 0.06770  0.38450  0.06890  Biso   1.000  C
  C200     1.0000 0.06350  0.44640  0.06400  Biso   1.000  C
  C201     1.0000 0.99830  0.48640  0.11160  Biso   1.000  C
  C202     1.0000 0.93540  0.46630  0.16370  Biso   1.000  C
  C203     1.0000 0.85650  0.57290  0.22070  Biso   1.000  C
  C204     1.0000 0.87800  0.31380  0.22200  Biso   1.000  C
  C205     1.0000 0.85230  0.24810  0.43410  Biso   1.000  C
  C206     1.0000 0.90400  0.21080  0.46900  Biso   1.000  C
  C207     1.0000 0.88670  0.22290  0.53070  Biso   1.000  C
  C208     1.0000 0.81600  0.27690  0.55810  Biso   1.000  C
  C209     1.0000 0.76170  0.31860  0.52280  Biso   1.000  C
  C210     1.0000 0.68950  0.37330  0.55010  Biso   1.000  C
  C211     1.0000 0.63540  0.41350  0.51810  Biso   1.000  C
  C212     1.0000 0.65130  0.39910  0.45610  Biso   1.000  C
  C213     1.0000 0.72260  0.34550  0.42830  Biso   1.000  C
  C214     1.0000 0.77890  0.30330  0.46110  Biso   1.000  C
  C215     1.0000 0.87670  0.22840  0.36860  Biso   1.000  C
  C216     1.0000 0.79990  0.28980  0.62320  Biso   1.000  C
  C217     1.0000 0.56040  0.25900  0.52340  Biso   1.000  C
  C218     1.0000 0.62560  0.21210  0.48430  Biso   1.000  C
  C219     1.0000 0.63300  0.21560  0.42060  Biso   1.000  C
  C220     1.0000 0.57720  0.26470  0.39710  Biso   1.000  C
  C221     1.0000 0.50660  0.31440  0.43700  Biso   1.000  C
  C222     1.0000 0.44100  0.36660  0.41740  Biso   1.000  C
  C223     1.0000 0.37490  0.41310  0.45770  Biso   1.000  C
  C224     1.0000 0.37220  0.41070  0.51930  Biso   1.000  C
  C225     1.0000 0.43160  0.36230  0.54090  Biso   1.000  C
  C226     1.0000 0.49970  0.31150  0.50170  Biso   1.000  C
  C227     1.0000 0.56290  0.25280  0.58880  Biso   1.000  C
  C228     1.0000 0.59100  0.26350  0.32970  Biso   1.000  C
  C229     1.0000 0.33260  0.28610  0.00550  Biso   1.000  C
  C230     1.0000 0.32060  0.23750  0.98190  Biso   1.000  C
  C231     1.0000 0.32500  0.23740  0.92020  Biso   1.000  C
  C232     1.0000 0.34600  0.28400  0.87960  Biso   1.000  C
  C233     1.0000 0.35710  0.33430  0.90150  Biso   1.000  C
  C234     1.0000 0.37580  0.38290  0.86250  Biso   1.000  C
  C235     1.0000 0.38660  0.43110  0.88450  Biso   1.000  C
  C236     1.0000 0.37750  0.43600  0.94640  Biso   1.000  C
  C237     1.0000 0.35990  0.38840  0.98640  Biso   1.000  C
  C238     1.0000 0.34910  0.33630  0.96630  Biso   1.000  C
  C239     1.0000 0.32720  0.27930  0.07290  Biso   1.000  C
  C240     1.0000 0.35000  0.27800  0.81380  Biso   1.000  C
  C241     1.0000 0.53640  0.06590  0.74810  Biso   1.000  C
  C242     1.0000 0.62300  0.03100  0.71080  Biso   1.000  C
  C243     1.0000 0.66740  0.96930  0.72290  Biso   1.000  C
  C244     1.0000 0.62410  0.94190  0.77690  Biso   1.000  C
  C245     1.0000 0.53450  0.97720  0.81860  Biso   1.000  C
  C246     1.0000 0.48960  0.94990  0.87330  Biso   1.000  C
  C247     1.0000 0.40350  0.98190  0.91350  Biso   1.000  C
  C248     1.0000 0.35740  0.04390  0.89910  Biso   1.000  C
  C249     1.0000 0.40090  0.07170  0.84550  Biso   1.000  C
  C250     1.0000 0.49000  0.03890  0.80330  Biso   1.000  C
  C251     1.0000 0.49530  0.13140  0.72840  Biso   1.000  C
  C252     1.0000 0.67310  0.87680  0.78980  Biso   1.000  C
  C253     1.0000 0.34280  0.74100  0.47660  Biso   1.000  C
  C254     1.0000 0.32200  0.78790  0.51570  Biso   1.000  C
  C255     1.0000 0.26920  0.78440  0.57940  Biso   1.000  C
  C256     1.0000 0.23900  0.73530  0.60290  Biso   1.000  C
  C257     1.0000 0.25800  0.68560  0.56300  Biso   1.000  C
  C258     1.0000 0.22500  0.63340  0.58260  Biso   1.000  C
  C259     1.0000 0.24570  0.58690  0.54230  Biso   1.000  C
  C260     1.0000 0.30220  0.58930  0.48070  Biso   1.000  C
  C261     1.0000 0.33480  0.63770  0.45910  Biso   1.000  C
  C262     1.0000 0.31290  0.68850  0.49830  Biso   1.000  C
  C263     1.0000 0.40450  0.74720  0.41120  Biso   1.000  C
  C264     1.0000 0.18420  0.73650  0.67030  Biso   1.000  C
  C265     1.0000 0.62420  0.71390  0.99450  Biso   1.000  C
  C266     1.0000 0.54000  0.76250  0.01810  Biso   1.000  C
  C267     1.0000 0.48260  0.76260  0.07980  Biso   1.000  C
  C268     1.0000 0.50960  0.71600  0.12040  Biso   1.000  C
  C269     1.0000 0.59290  0.66570  0.09850  Biso   1.000  C
  C270     1.0000 0.62120  0.61710  0.13750  Biso   1.000  C
  C271     1.0000 0.70220  0.56890  0.11550  Biso   1.000  C
  C272     1.0000 0.75990  0.56400  0.05360  Biso   1.000  C
  C273     1.0000 0.73470  0.61160  0.01360  Biso   1.000  C
  C274     1.0000 0.65170  0.66370  0.03370  Biso   1.000  C
  C275     1.0000 0.67940  0.72070  0.92710  Biso   1.000  C
  C276     1.0000 0.44180  0.72200  0.18620  Biso   1.000  C
  C277     1.0000 0.35040  0.93410  0.25190  Biso   1.000  C
  C278     1.0000 0.36480  0.96900  0.28920  Biso   1.000  C
  C279     1.0000 0.35960  0.03070  0.27710  Biso   1.000  C
  C280     1.0000 0.34290  0.05810  0.22310  Biso   1.000  C
  C281     1.0000 0.33030  0.02280  0.18140  Biso   1.000  C
  C282     1.0000 0.31280  0.05010  0.12670  Biso   1.000  C
  C283     1.0000 0.29890  0.01810  0.08650  Biso   1.000  C
  C284     1.0000 0.30040  0.95610  0.10090  Biso   1.000  C
  C285     1.0000 0.31810  0.92830  0.15450  Biso   1.000  C
  C286     1.0000 0.33220  0.96110  0.19670  Biso   1.000  C
  C287     1.0000 0.35510  0.86860  0.27160  Biso   1.000  C
  C288     1.0000 0.33970  0.12320  0.21020  Biso   1.000  C
  O1       1.0000 0.50684  0.22890  0.13522  Biso   1.000  O
  O2       1.0000 0.62094  0.26967  0.09765  Biso   1.000  O
  O3       1.0000 0.64356  0.27395  0.79353  Biso   1.000  O
  O4       1.0000 0.57843  0.20023  0.80811  Biso   1.000  O
  O5       1.0000 0.40717  0.18112  0.60114  Biso   1.000  O
  O6       1.0000 0.29449  0.26965  0.60237  Biso   1.000  O
  O7       1.0000 0.45163  0.22166  0.26788  Biso   1.000  O
  O8       1.0000 0.30075  0.22913  0.30577  Biso   1.000  O
  O9       1.0000 0.46360  0.34080  0.20060  Biso   1.000  O
  O10      1.0000 0.31450  0.34440  0.23860  Biso   1.000  O
  O11      1.0000 0.36014  0.63682  0.30390  Biso   1.000  O
  O12      1.0000 0.22829  0.66677  0.28285  Biso   1.000  O
  O13      1.0000 0.64798  0.14205  0.20319  Biso   1.000  O
  O14      1.0000 0.64720  0.34410  0.19090  Biso   1.000  O
  O15      1.0000 0.87096  0.77110  0.86478  Biso   1.000  O
  O16      1.0000 0.98826  0.73033  0.90235  Biso   1.000  O
  O17      1.0000 0.71104  0.72605  0.20647  Biso   1.000  O
  O18      1.0000 0.58677  0.79977  0.19189  Biso   1.000  O
  O19      1.0000 0.18943  0.81888  0.39886  Biso   1.000  O
  O20      1.0000 0.16651  0.73035  0.39763  Biso   1.000  O
  O21      1.0000 0.94117  0.77834  0.73212  Biso   1.000  O
  O22      1.0000 0.83565  0.77087  0.69423  Biso   1.000  O
  O23      1.0000 0.00500  0.65920  0.79940  Biso   1.000  O
  O24      1.0000 0.89750  0.65560  0.76140  Biso   1.000  O
  O25      1.0000 0.30086  0.36318  0.69610  Biso   1.000  O
  O26      1.0000 0.17791  0.33323  0.71715  Biso   1.000  O
  O27      1.0000 0.99322  0.85795  0.79681  Biso   1.000  O
  O28      1.0000 0.18220  0.65590  0.80910  Biso   1.000  O
  O29      1.0000 0.89206  0.36478  0.72890  Biso   1.000  O
  O30      1.0000 0.96859  0.40235  0.76967  Biso   1.000  O
  O31      1.0000 0.68709  0.70647  0.77395  Biso   1.000  O
  O32      1.0000 0.63654  0.69189  0.70023  Biso   1.000  O
  O33      1.0000 0.25831  0.89886  0.68112  Biso   1.000  O
  O34      1.0000 0.14686  0.89763  0.76965  Biso   1.000  O
  O35      1.0000 0.96951  0.23212  0.72166  Biso   1.000  O
  O36      1.0000 0.85652  0.19423  0.72913  Biso   1.000  O
  O37      1.0000 0.91420  0.29940  0.84080  Biso   1.000  O
  O38      1.0000 0.80310  0.26140  0.84440  Biso   1.000  O
  O39      1.0000 0.91404  0.19610  0.13682  Biso   1.000  O
  O40      1.0000 0.76114  0.21715  0.16677  Biso   1.000  O
  O41      1.0000 0.10117  0.29681  0.64205  Biso   1.000  O
  O42      1.0000 0.08810  0.30910  0.84410  Biso   1.000  O
  O43      1.0000 0.98574  0.63522  0.27110  Biso   1.000  O
  O44      1.0000 0.14061  0.59765  0.23033  Biso   1.000  O
  O45      1.0000 0.16751  0.29353  0.22605  Biso   1.000  O
  O46      1.0000 0.02866  0.30811  0.29977  Biso   1.000  O
  O47      1.0000 0.83829  0.10114  0.31888  Biso   1.000  O
  O48      1.0000 0.81414  0.10237  0.23035  Biso   1.000  O
  O49      1.0000 0.92329  0.76788  0.27834  Biso   1.000  O
  O50      1.0000 0.77988  0.80577  0.27087  Biso   1.000  O
  O51      1.0000 0.05440  0.70060  0.15920  Biso   1.000  O
  O52      1.0000 0.90890  0.73860  0.15560  Biso   1.000  O
  O53      1.0000 0.24696  0.80390  0.86318  Biso   1.000  O
  O54      1.0000 0.14506  0.78285  0.83323  Biso   1.000  O
  O55      1.0000 0.04003  0.70319  0.35795  Biso   1.000  O
  O56      1.0000 0.24130  0.69090  0.15590  Biso   1.000  O
  O57      1.0000 0.37096  0.86478  0.77110  Biso   1.000  O
  O58      1.0000 0.48826  0.90235  0.73033  Biso   1.000  O
  O59      1.0000 0.21104  0.20647  0.72605  Biso   1.000  O
  O60      1.0000 0.08677  0.19189  0.79977  Biso   1.000  O
  O61      1.0000 0.68943  0.39886  0.81888  Biso   1.000  O
  O62      1.0000 0.66651  0.39763  0.73035  Biso   1.000  O
  O63      1.0000 0.44117  0.73212  0.77834  Biso   1.000  O
  O64      1.0000 0.33565  0.69423  0.77087  Biso   1.000  O
  O65      1.0000 0.50500  0.79940  0.65920  Biso   1.000  O
  O66      1.0000 0.39750  0.76140  0.65560  Biso   1.000  O
  O67      1.0000 0.80086  0.69610  0.36318  Biso   1.000  O
  O68      1.0000 0.67791  0.71715  0.33323  Biso   1.000  O
  O69      1.0000 0.49322  0.79681  0.85795  Biso   1.000  O
  O70      1.0000 0.68220  0.80910  0.65590  Biso   1.000  O
  O71      1.0000 0.00684  0.13522  0.22890  Biso   1.000  O
  O72      1.0000 0.12094  0.09765  0.26967  Biso   1.000  O
  O73      1.0000 0.14356  0.79353  0.27395  Biso   1.000  O
  O74      1.0000 0.07843  0.80811  0.20023  Biso   1.000  O
  O75      1.0000 0.90717  0.60114  0.18112  Biso   1.000  O
  O76      1.0000 0.79449  0.60237  0.26965  Biso   1.000  O
  O77      1.0000 0.95163  0.26788  0.22166  Biso   1.000  O
  O78      1.0000 0.80075  0.30577  0.22913  Biso   1.000  O
  O79      1.0000 0.96360  0.20060  0.34080  Biso   1.000  O
  O80      1.0000 0.81450  0.23860  0.34440  Biso   1.000  O
  O81      1.0000 0.86014  0.30390  0.63682  Biso   1.000  O
  O82      1.0000 0.72829  0.28285  0.66677  Biso   1.000  O
  O83      1.0000 0.14798  0.20319  0.14205  Biso   1.000  O
  O84      1.0000 0.14720  0.19090  0.34410  Biso   1.000  O
  O85      1.0000 0.48574  0.27110  0.63522  Biso   1.000  O
  O86      1.0000 0.64061  0.23033  0.59765  Biso   1.000  O
  O87      1.0000 0.66751  0.22605  0.29353  Biso   1.000  O
  O88      1.0000 0.52866  0.29977  0.30811  Biso   1.000  O
  O89      1.0000 0.33829  0.31888  0.10114  Biso   1.000  O
  O90      1.0000 0.31414  0.23035  0.10237  Biso   1.000  O
  O91      1.0000 0.42329  0.27834  0.76788  Biso   1.000  O
  O92      1.0000 0.27988  0.27087  0.80577  Biso   1.000  O
  O93      1.0000 0.55440  0.15920  0.70060  Biso   1.000  O
  O94      1.0000 0.40890  0.15560  0.73860  Biso   1.000  O
  O95      1.0000 0.74696  0.86318  0.80390  Biso   1.000  O
  O96      1.0000 0.64506  0.83323  0.78285  Biso   1.000  O
  O97      1.0000 0.54003  0.35795  0.70319  Biso   1.000  O
  O98      1.0000 0.74130  0.15590  0.69090  Biso   1.000  O
  O99      1.0000 0.39206  0.72890  0.36478  Biso   1.000  O
  O100     1.0000 0.46859  0.76967  0.40235  Biso   1.000  O
  O101     1.0000 0.18709  0.77395  0.70647  Biso   1.000  O
  O102     1.0000 0.13654  0.70023  0.69189  Biso   1.000  O
  O103     1.0000 0.75831  0.68112  0.89886  Biso   1.000  O
  O104     1.0000 0.64686  0.76965  0.89763  Biso   1.000  O
  O105     1.0000 0.46951  0.72166  0.23212  Biso   1.000  O
  O106     1.0000 0.35652  0.72913  0.19423  Biso   1.000  O
  O107     1.0000 0.41420  0.84080  0.29940  Biso   1.000  O
  O108     1.0000 0.30310  0.84440  0.26140  Biso   1.000  O
  O109     1.0000 0.41404  0.13682  0.19610  Biso   1.000  O
  O110     1.0000 0.26114  0.16677  0.21715  Biso   1.000  O
  O111     1.0000 0.60117  0.64205  0.29681  Biso   1.000  O
  O112     1.0000 0.58810  0.84410  0.30910  Biso   1.000  O
