data_image0
_cell_length_a       14.24
_cell_length_b       15.185
_cell_length_c       22.191
_cell_angle_alpha    90
_cell_angle_beta     90
_cell_angle_gamma    102.98

_symmetry_space_group_name_H-M    P 1
_symmetry_int_tables_number       1

loop_
  _symmetry_equiv_pos_as_xyz
  'x, y, z'

loop_
  _atom_site_label
  _atom_site_occupancy
  _atom_site_fract_x
  _atom_site_fract_y
  _atom_site_fract_z
  _atom_site_thermal_displace_type
  _atom_site_B_iso_or_equiv
  _atom_site_type_symbol
  Eu1      1.0000 0.50156  0.43594  0.27568  Biso   1.000  Eu
  Eu2      1.0000 0.20225  0.33456  0.24588  Biso   1.000  Eu
  Eu3      1.0000 0.99844  0.06406  0.77568  Biso   1.000  Eu
  Eu4      1.0000 0.29775  0.16544  0.74588  Biso   1.000  Eu
  Eu5      1.0000 0.49844  0.56406  0.72432  Biso   1.000  Eu
  Eu6      1.0000 0.79775  0.66544  0.75412  Biso   1.000  Eu
  Eu7      1.0000 0.00156  0.93594  0.22432  Biso   1.000  Eu
  Eu8      1.0000 0.70225  0.83456  0.25412  Biso   1.000  Eu
  H1       1.0000 0.50250  0.54260  0.38560  Biso   1.000  H
  H2       1.0000 0.60770  0.55510  0.37380  Biso   1.000  H
  H3       1.0000 0.67650  0.50040  0.22770  Biso   1.000  H
  H4       1.0000 0.68430  0.58480  0.25710  Biso   1.000  H
  H5       1.0000 0.03000  0.19130  0.27690  Biso   1.000  H
  H6       1.0000 0.03780  0.25900  0.32710  Biso   1.000  H
  H7       1.0000 0.43810  0.28820  0.44240  Biso   1.000  H
  H8       1.0000 0.43250  0.23980  0.54220  Biso   1.000  H
  H9       1.0000 0.16000  0.39920  0.42110  Biso   1.000  H
  H10      1.0000 0.04340  0.42190  0.48450  Biso   1.000  H
  H11      1.0000 0.04640  0.38220  0.58620  Biso   1.000  H
  H12      1.0000 0.16270  0.31580  0.62110  Biso   1.000  H
  H13      1.0000 0.36470  0.70090  0.29340  Biso   1.000  H
  H14      1.0000 0.26410  0.80030  0.28720  Biso   1.000  H
  H15      1.0000 0.27890  0.50880  0.13120  Biso   1.000  H
  H16      1.0000 0.17370  0.49870  0.05360  Biso   1.000  H
  H17      1.0000 0.07820  0.60350  0.04390  Biso   1.000  H
  H18      1.0000 0.08190  0.71240  0.11450  Biso   1.000  H
  H19      1.0000 0.48850  0.19500  0.19480  Biso   1.000  H
  H20      1.0000 0.57350  0.07990  0.19250  Biso   1.000  H
  H21      1.0000 0.29200  0.13300  0.35980  Biso   1.000  H
  H22      1.0000 0.25840  0.02060  0.43170  Biso   1.000  H
  H23      1.0000 0.34040  0.90370  0.42840  Biso   1.000  H
  H24      1.0000 0.45070  0.89840  0.35640  Biso   1.000  H
  H25      1.0000 0.44220  0.34330  0.13760  Biso   1.000  H
  H26      1.0000 0.42860  0.36270  0.03540  Biso   1.000  H
  H27      1.0000 0.58390  0.61490  0.05650  Biso   1.000  H
  H28      1.0000 0.58610  0.58880  0.15670  Biso   1.000  H
  H29      1.0000 0.99750  0.95740  0.88560  Biso   1.000  H
  H30      1.0000 0.89230  0.94490  0.87380  Biso   1.000  H
  H31      1.0000 0.82350  0.99960  0.72770  Biso   1.000  H
  H32      1.0000 0.81570  0.91520  0.75710  Biso   1.000  H
  H33      1.0000 0.47000  0.30870  0.77690  Biso   1.000  H
  H34      1.0000 0.46220  0.24100  0.82710  Biso   1.000  H
  H35      1.0000 0.06190  0.21180  0.94240  Biso   1.000  H
  H36      1.0000 0.06750  0.26020  0.04220  Biso   1.000  H
  H37      1.0000 0.34000  0.10080  0.92110  Biso   1.000  H
  H38      1.0000 0.45660  0.07810  0.98450  Biso   1.000  H
  H39      1.0000 0.45360  0.11780  0.08620  Biso   1.000  H
  H40      1.0000 0.33730  0.18420  0.12110  Biso   1.000  H
  H41      1.0000 0.13530  0.79910  0.79340  Biso   1.000  H
  H42      1.0000 0.23590  0.69970  0.78720  Biso   1.000  H
  H43      1.0000 0.22110  0.99120  0.63120  Biso   1.000  H
  H44      1.0000 0.32630  0.00130  0.55360  Biso   1.000  H
  H45      1.0000 0.42180  0.89650  0.54390  Biso   1.000  H
  H46      1.0000 0.41810  0.78760  0.61450  Biso   1.000  H
  H47      1.0000 0.01150  0.30500  0.69480  Biso   1.000  H
  H48      1.0000 0.92650  0.42010  0.69250  Biso   1.000  H
  H49      1.0000 0.20800  0.36700  0.85980  Biso   1.000  H
  H50      1.0000 0.24160  0.47940  0.93170  Biso   1.000  H
  H51      1.0000 0.15960  0.59630  0.92840  Biso   1.000  H
  H52      1.0000 0.04930  0.60160  0.85640  Biso   1.000  H
  H53      1.0000 0.05780  0.15670  0.63760  Biso   1.000  H
  H54      1.0000 0.07140  0.13730  0.53540  Biso   1.000  H
  H55      1.0000 0.91610  0.88510  0.55650  Biso   1.000  H
  H56      1.0000 0.91390  0.91120  0.65670  Biso   1.000  H
  H57      1.0000 0.49750  0.45740  0.61440  Biso   1.000  H
  H58      1.0000 0.39230  0.44490  0.62620  Biso   1.000  H
  H59      1.0000 0.32350  0.49960  0.77230  Biso   1.000  H
  H60      1.0000 0.31570  0.41520  0.74290  Biso   1.000  H
  H61      1.0000 0.97000  0.80870  0.72310  Biso   1.000  H
  H62      1.0000 0.96220  0.74100  0.67290  Biso   1.000  H
  H63      1.0000 0.56190  0.71180  0.55760  Biso   1.000  H
  H64      1.0000 0.56750  0.76020  0.45780  Biso   1.000  H
  H65      1.0000 0.84000  0.60080  0.57890  Biso   1.000  H
  H66      1.0000 0.95660  0.57810  0.51550  Biso   1.000  H
  H67      1.0000 0.95360  0.61780  0.41380  Biso   1.000  H
  H68      1.0000 0.83730  0.68420  0.37890  Biso   1.000  H
  H69      1.0000 0.63530  0.29910  0.70660  Biso   1.000  H
  H70      1.0000 0.73590  0.19970  0.71280  Biso   1.000  H
  H71      1.0000 0.72110  0.49120  0.86880  Biso   1.000  H
  H72      1.0000 0.82630  0.50130  0.94640  Biso   1.000  H
  H73      1.0000 0.92180  0.39650  0.95610  Biso   1.000  H
  H74      1.0000 0.91810  0.28760  0.88550  Biso   1.000  H
  H75      1.0000 0.51150  0.80500  0.80520  Biso   1.000  H
  H76      1.0000 0.42650  0.92010  0.80750  Biso   1.000  H
  H77      1.0000 0.70800  0.86700  0.64020  Biso   1.000  H
  H78      1.0000 0.74160  0.97940  0.56830  Biso   1.000  H
  H79      1.0000 0.65960  0.09630  0.57160  Biso   1.000  H
  H80      1.0000 0.54930  0.10160  0.64360  Biso   1.000  H
  H81      1.0000 0.55780  0.65670  0.86240  Biso   1.000  H
  H82      1.0000 0.57140  0.63730  0.96460  Biso   1.000  H
  H83      1.0000 0.41610  0.38510  0.94350  Biso   1.000  H
  H84      1.0000 0.41390  0.41120  0.84330  Biso   1.000  H
  H85      1.0000 0.00250  0.04260  0.11440  Biso   1.000  H
  H86      1.0000 0.10770  0.05510  0.12620  Biso   1.000  H
  H87      1.0000 0.17650  0.00040  0.27230  Biso   1.000  H
  H88      1.0000 0.18430  0.08480  0.24290  Biso   1.000  H
  H89      1.0000 0.53000  0.69130  0.22310  Biso   1.000  H
  H90      1.0000 0.53780  0.75900  0.17290  Biso   1.000  H
  H91      1.0000 0.93810  0.78820  0.05760  Biso   1.000  H
  H92      1.0000 0.93250  0.73980  0.95780  Biso   1.000  H
  H93      1.0000 0.66000  0.89920  0.07890  Biso   1.000  H
  H94      1.0000 0.54340  0.92190  0.01550  Biso   1.000  H
  H95      1.0000 0.54640  0.88220  0.91380  Biso   1.000  H
  H96      1.0000 0.66270  0.81580  0.87890  Biso   1.000  H
  H97      1.0000 0.86470  0.20090  0.20660  Biso   1.000  H
  H98      1.0000 0.76410  0.30030  0.21280  Biso   1.000  H
  H99      1.0000 0.77890  0.00880  0.36880  Biso   1.000  H
  H100     1.0000 0.67370  0.99870  0.44640  Biso   1.000  H
  H101     1.0000 0.57820  0.10350  0.45610  Biso   1.000  H
  H102     1.0000 0.58190  0.21240  0.38550  Biso   1.000  H
  H103     1.0000 0.98850  0.69500  0.30520  Biso   1.000  H
  H104     1.0000 0.07350  0.57990  0.30750  Biso   1.000  H
  H105     1.0000 0.79200  0.63300  0.14020  Biso   1.000  H
  H106     1.0000 0.75840  0.52060  0.06830  Biso   1.000  H
  H107     1.0000 0.84040  0.40370  0.07160  Biso   1.000  H
  H108     1.0000 0.95070  0.39840  0.14360  Biso   1.000  H
  H109     1.0000 0.94220  0.84330  0.36240  Biso   1.000  H
  H110     1.0000 0.92860  0.86270  0.46460  Biso   1.000  H
  H111     1.0000 0.08390  0.11490  0.44350  Biso   1.000  H
  H112     1.0000 0.08610  0.08880  0.34330  Biso   1.000  H
  C1       1.0000 0.32130  0.35450  0.37800  Biso   1.000  C
  C2       1.0000 0.31430  0.32920  0.44380  Biso   1.000  C
  C3       1.0000 0.38670  0.29390  0.46680  Biso   1.000  C
  C4       1.0000 0.38400  0.26590  0.52750  Biso   1.000  C
  C5       1.0000 0.31190  0.27650  0.56470  Biso   1.000  C
  C6       1.0000 0.23710  0.31640  0.54280  Biso   1.000  C
  C7       1.0000 0.23700  0.34100  0.48120  Biso   1.000  C
  C8       1.0000 0.16140  0.38190  0.46120  Biso   1.000  C
  C9       1.0000 0.09230  0.39590  0.49880  Biso   1.000  C
  C10      1.0000 0.09370  0.37140  0.56010  Biso   1.000  C
  C11      1.0000 0.16320  0.33250  0.58080  Biso   1.000  C
  C12      1.0000 0.30960  0.24310  0.62840  Biso   1.000  C
  C13      1.0000 0.36730  0.55370  0.23760  Biso   1.000  C
  C14      1.0000 0.30850  0.62150  0.22430  Biso   1.000  C
  C15      1.0000 0.31790  0.69310  0.26340  Biso   1.000  C
  C16      1.0000 0.25830  0.75430  0.25880  Biso   1.000  C
  C17      1.0000 0.19190  0.74870  0.21390  Biso   1.000  C
  C18      1.0000 0.18590  0.68160  0.16840  Biso   1.000  C
  C19      1.0000 0.24460  0.61590  0.17500  Biso   1.000  C
  C20      1.0000 0.23900  0.54950  0.12890  Biso   1.000  C
  C21      1.0000 0.17760  0.54410  0.08220  Biso   1.000  C
  C22      1.0000 0.11950  0.60690  0.07680  Biso   1.000  C
  C23      1.0000 0.12240  0.67250  0.11860  Biso   1.000  C
  C24      1.0000 0.12760  0.81620  0.21650  Biso   1.000  C
  C25      1.0000 0.34850  0.21990  0.25840  Biso   1.000  C
  C26      1.0000 0.40720  0.14960  0.26490  Biso   1.000  C
  C27      1.0000 0.47520  0.14910  0.22340  Biso   1.000  C
  C28      1.0000 0.52740  0.07990  0.22220  Biso   1.000  C
  C29      1.0000 0.50990  0.01320  0.26490  Biso   1.000  C
  C30      1.0000 0.44090  0.01270  0.31040  Biso   1.000  C
  C31      1.0000 0.38840  0.08220  0.31130  Biso   1.000  C
  C32      1.0000 0.32290  0.08520  0.35810  Biso   1.000  C
  C33      1.0000 0.30340  0.01900  0.40160  Biso   1.000  C
  C34      1.0000 0.35320  0.94900  0.39930  Biso   1.000  C
  C35      1.0000 0.41890  0.94560  0.35620  Biso   1.000  C
  C36      1.0000 0.57490  0.94720  0.26090  Biso   1.000  C
  C37      1.0000 0.46870  0.39990  0.12140  Biso   1.000  C
  C38      1.0000 0.46130  0.41050  0.05900  Biso   1.000  C
  C39      1.0000 0.50320  0.49290  0.03240  Biso   1.000  C
  C40      1.0000 0.55200  0.55910  0.07160  Biso   1.000  C
  C41      1.0000 0.55330  0.54250  0.13210  Biso   1.000  C
  C42      1.0000 0.17870  0.14550  0.87800  Biso   1.000  C
  C43      1.0000 0.18570  0.17080  0.94380  Biso   1.000  C
  C44      1.0000 0.11330  0.20610  0.96680  Biso   1.000  C
  C45      1.0000 0.11600  0.23410  0.02750  Biso   1.000  C
  C46      1.0000 0.18810  0.22350  0.06470  Biso   1.000  C
  C47      1.0000 0.26290  0.18360  0.04280  Biso   1.000  C
  C48      1.0000 0.26300  0.15900  0.98120  Biso   1.000  C
  C49      1.0000 0.33860  0.11810  0.96120  Biso   1.000  C
  C50      1.0000 0.40770  0.10410  0.99880  Biso   1.000  C
  C51      1.0000 0.40630  0.12860  0.06010  Biso   1.000  C
  C52      1.0000 0.33680  0.16750  0.08080  Biso   1.000  C
  C53      1.0000 0.19040  0.25690  0.12840  Biso   1.000  C
  C54      1.0000 0.13270  0.94630  0.73760  Biso   1.000  C
  C55      1.0000 0.19150  0.87850  0.72430  Biso   1.000  C
  C56      1.0000 0.18210  0.80690  0.76340  Biso   1.000  C
  C57      1.0000 0.24170  0.74570  0.75880  Biso   1.000  C
  C58      1.0000 0.30810  0.75130  0.71390  Biso   1.000  C
  C59      1.0000 0.31410  0.81840  0.66840  Biso   1.000  C
  C60      1.0000 0.25540  0.88410  0.67500  Biso   1.000  C
  C61      1.0000 0.26100  0.95050  0.62890  Biso   1.000  C
  C62      1.0000 0.32240  0.95590  0.58220  Biso   1.000  C
  C63      1.0000 0.38050  0.89310  0.57680  Biso   1.000  C
  C64      1.0000 0.37760  0.82750  0.61860  Biso   1.000  C
  C65      1.0000 0.37240  0.68380  0.71650  Biso   1.000  C
  C66      1.0000 0.15150  0.28010  0.75840  Biso   1.000  C
  C67      1.0000 0.09280  0.35040  0.76490  Biso   1.000  C
  C68      1.0000 0.02480  0.35090  0.72340  Biso   1.000  C
  C69      1.0000 0.97260  0.42010  0.72220  Biso   1.000  C
  C70      1.0000 0.99010  0.48680  0.76490  Biso   1.000  C
  C71      1.0000 0.05910  0.48730  0.81040  Biso   1.000  C
  C72      1.0000 0.11160  0.41780  0.81130  Biso   1.000  C
  C73      1.0000 0.17710  0.41480  0.85810  Biso   1.000  C
  C74      1.0000 0.19660  0.48100  0.90160  Biso   1.000  C
  C75      1.0000 0.14680  0.55100  0.89930  Biso   1.000  C
  C76      1.0000 0.08110  0.55440  0.85620  Biso   1.000  C
  C77      1.0000 0.92510  0.55280  0.76090  Biso   1.000  C
  C78      1.0000 0.03130  0.10010  0.62140  Biso   1.000  C
  C79      1.0000 0.03870  0.08950  0.55900  Biso   1.000  C
  C80      1.0000 0.99680  0.00710  0.53240  Biso   1.000  C
  C81      1.0000 0.94800  0.94090  0.57160  Biso   1.000  C
  C82      1.0000 0.94670  0.95750  0.63210  Biso   1.000  C
  C83      1.0000 0.67870  0.64550  0.62200  Biso   1.000  C
  C84      1.0000 0.68570  0.67080  0.55620  Biso   1.000  C
  C85      1.0000 0.61330  0.70610  0.53320  Biso   1.000  C
  C86      1.0000 0.61600  0.73410  0.47250  Biso   1.000  C
  C87      1.0000 0.68810  0.72350  0.43530  Biso   1.000  C
  C88      1.0000 0.76290  0.68360  0.45720  Biso   1.000  C
  C89      1.0000 0.76300  0.65900  0.51880  Biso   1.000  C
  C90      1.0000 0.83860  0.61810  0.53880  Biso   1.000  C
  C91      1.0000 0.90770  0.60410  0.50120  Biso   1.000  C
  C92      1.0000 0.90630  0.62860  0.43990  Biso   1.000  C
  C93      1.0000 0.83680  0.66750  0.41920  Biso   1.000  C
  C94      1.0000 0.69040  0.75690  0.37160  Biso   1.000  C
  C95      1.0000 0.63270  0.44630  0.76240  Biso   1.000  C
  C96      1.0000 0.69150  0.37850  0.77570  Biso   1.000  C
  C97      1.0000 0.68210  0.30690  0.73660  Biso   1.000  C
  C98      1.0000 0.74170  0.24570  0.74120  Biso   1.000  C
  C99      1.0000 0.80810  0.25130  0.78610  Biso   1.000  C
  C100     1.0000 0.81410  0.31840  0.83160  Biso   1.000  C
  C101     1.0000 0.75540  0.38410  0.82500  Biso   1.000  C
  C102     1.0000 0.76100  0.45050  0.87110  Biso   1.000  C
  C103     1.0000 0.82240  0.45590  0.91780  Biso   1.000  C
  C104     1.0000 0.88050  0.39310  0.92320  Biso   1.000  C
  C105     1.0000 0.87760  0.32750  0.88140  Biso   1.000  C
  C106     1.0000 0.87240  0.18380  0.78350  Biso   1.000  C
  C107     1.0000 0.65150  0.78010  0.74160  Biso   1.000  C
  C108     1.0000 0.59280  0.85040  0.73510  Biso   1.000  C
  C109     1.0000 0.52480  0.85090  0.77660  Biso   1.000  C
  C110     1.0000 0.47260  0.92010  0.77780  Biso   1.000  C
  C111     1.0000 0.49010  0.98680  0.73510  Biso   1.000  C
  C112     1.0000 0.55910  0.98730  0.68960  Biso   1.000  C
  C113     1.0000 0.61160  0.91780  0.68870  Biso   1.000  C
  C114     1.0000 0.67710  0.91480  0.64190  Biso   1.000  C
  C115     1.0000 0.69660  0.98100  0.59840  Biso   1.000  C
  C116     1.0000 0.64680  0.05100  0.60070  Biso   1.000  C
  C117     1.0000 0.58110  0.05440  0.64380  Biso   1.000  C
  C118     1.0000 0.42510  0.05280  0.73910  Biso   1.000  C
  C119     1.0000 0.53130  0.60010  0.87860  Biso   1.000  C
  C120     1.0000 0.53870  0.58950  0.94100  Biso   1.000  C
  C121     1.0000 0.49680  0.50710  0.96760  Biso   1.000  C
  C122     1.0000 0.44800  0.44090  0.92840  Biso   1.000  C
  C123     1.0000 0.44670  0.45750  0.86790  Biso   1.000  C
  C124     1.0000 0.82130  0.85450  0.12200  Biso   1.000  C
  C125     1.0000 0.81430  0.82920  0.05620  Biso   1.000  C
  C126     1.0000 0.88670  0.79390  0.03320  Biso   1.000  C
  C127     1.0000 0.88400  0.76590  0.97250  Biso   1.000  C
  C128     1.0000 0.81190  0.77650  0.93530  Biso   1.000  C
  C129     1.0000 0.73710  0.81640  0.95720  Biso   1.000  C
  C130     1.0000 0.73700  0.84100  0.01880  Biso   1.000  C
  C131     1.0000 0.66140  0.88190  0.03880  Biso   1.000  C
  C132     1.0000 0.59230  0.89590  0.00120  Biso   1.000  C
  C133     1.0000 0.59370  0.87140  0.93990  Biso   1.000  C
  C134     1.0000 0.66320  0.83250  0.91920  Biso   1.000  C
  C135     1.0000 0.80960  0.74310  0.87160  Biso   1.000  C
  C136     1.0000 0.86730  0.05370  0.26240  Biso   1.000  C
  C137     1.0000 0.80850  0.12150  0.27570  Biso   1.000  C
  C138     1.0000 0.81790  0.19310  0.23660  Biso   1.000  C
  C139     1.0000 0.75830  0.25430  0.24120  Biso   1.000  C
  C140     1.0000 0.69190  0.24870  0.28610  Biso   1.000  C
  C141     1.0000 0.68590  0.18160  0.33160  Biso   1.000  C
  C142     1.0000 0.74460  0.11590  0.32500  Biso   1.000  C
  C143     1.0000 0.73900  0.04950  0.37110  Biso   1.000  C
  C144     1.0000 0.67760  0.04410  0.41780  Biso   1.000  C
  C145     1.0000 0.61950  0.10690  0.42320  Biso   1.000  C
  C146     1.0000 0.62240  0.17250  0.38140  Biso   1.000  C
  C147     1.0000 0.62760  0.31620  0.28350  Biso   1.000  C
  C148     1.0000 0.84850  0.71990  0.24160  Biso   1.000  C
  C149     1.0000 0.90720  0.64960  0.23510  Biso   1.000  C
  C150     1.0000 0.97520  0.64910  0.27660  Biso   1.000  C
  C151     1.0000 0.02740  0.57990  0.27780  Biso   1.000  C
  C152     1.0000 0.00990  0.51320  0.23510  Biso   1.000  C
  C153     1.0000 0.94090  0.51270  0.18960  Biso   1.000  C
  C154     1.0000 0.88840  0.58220  0.18870  Biso   1.000  C
  C155     1.0000 0.82290  0.58520  0.14190  Biso   1.000  C
  C156     1.0000 0.80340  0.51900  0.09840  Biso   1.000  C
  C157     1.0000 0.85320  0.44900  0.10070  Biso   1.000  C
  C158     1.0000 0.91890  0.44560  0.14380  Biso   1.000  C
  C159     1.0000 0.07490  0.44720  0.23910  Biso   1.000  C
  C160     1.0000 0.96870  0.89990  0.37860  Biso   1.000  C
  C161     1.0000 0.96130  0.91050  0.44100  Biso   1.000  C
  C162     1.0000 0.00320  0.99290  0.46760  Biso   1.000  C
  C163     1.0000 0.05200  0.05910  0.42840  Biso   1.000  C
  C164     1.0000 0.05330  0.04250  0.36790  Biso   1.000  C
  N1       1.0000 0.51020  0.46370  0.15850  Biso   1.000  N
  N2       1.0000 0.98980  0.03630  0.65850  Biso   1.000  N
  N3       1.0000 0.48980  0.53630  0.84150  Biso   1.000  N
  N4       1.0000 0.01020  0.96370  0.34150  Biso   1.000  N
  O1       1.0000 0.40360  0.38750  0.35778  Biso   1.000  O
  O2       1.0000 0.24630  0.34190  0.34762  Biso   1.000  O
  O3       1.0000 0.36980  0.28330  0.66575  Biso   1.000  O
  O4       1.0000 0.24640  0.17400  0.64230  Biso   1.000  O
  O5       1.0000 0.32980  0.46920  0.23692  Biso   1.000  O
  O6       1.0000 0.45360  0.58140  0.25311  Biso   1.000  O
  O7       1.0000 0.11450  0.84930  0.26728  Biso   1.000  O
  O8       1.0000 0.08920  0.83910  0.17050  Biso   1.000  O
  O9       1.0000 0.38920  0.30040  0.24448  Biso   1.000  O
  O10      1.0000 0.25910  0.19620  0.26340  Biso   1.000  O
  O11      1.0000 0.58170  0.89610  0.30410  Biso   1.000  O
  O12      1.0000 0.62250  0.94610  0.21336  Biso   1.000  O
  O13      1.0000 0.54350  0.53890  0.35900  Biso   1.000  O
  O14      1.0000 0.66300  0.52790  0.25884  Biso   1.000  O
  O15      1.0000 0.06310  0.24080  0.29059  Biso   1.000  O
  O16      1.0000 0.09640  0.11250  0.85778  Biso   1.000  O
  O17      1.0000 0.25370  0.15810  0.84762  Biso   1.000  O
  O18      1.0000 0.13020  0.21670  0.16575  Biso   1.000  O
  O19      1.0000 0.25360  0.32600  0.14230  Biso   1.000  O
  O20      1.0000 0.17020  0.03080  0.73692  Biso   1.000  O
  O21      1.0000 0.04640  0.91860  0.75311  Biso   1.000  O
  O22      1.0000 0.38550  0.65070  0.76728  Biso   1.000  O
  O23      1.0000 0.41080  0.66090  0.67050  Biso   1.000  O
  O24      1.0000 0.11080  0.19960  0.74448  Biso   1.000  O
  O25      1.0000 0.24090  0.30380  0.76340  Biso   1.000  O
  O26      1.0000 0.91830  0.60390  0.80410  Biso   1.000  O
  O27      1.0000 0.87750  0.55390  0.71336  Biso   1.000  O
  O28      1.0000 0.95650  0.96110  0.85900  Biso   1.000  O
  O29      1.0000 0.83700  0.97210  0.75884  Biso   1.000  O
  O30      1.0000 0.43690  0.25920  0.79059  Biso   1.000  O
  O31      1.0000 0.59640  0.61250  0.64222  Biso   1.000  O
  O32      1.0000 0.75370  0.65810  0.65238  Biso   1.000  O
  O33      1.0000 0.63020  0.71670  0.33425  Biso   1.000  O
  O34      1.0000 0.75360  0.82600  0.35770  Biso   1.000  O
  O35      1.0000 0.67020  0.53080  0.76308  Biso   1.000  O
  O36      1.0000 0.54640  0.41860  0.74689  Biso   1.000  O
  O37      1.0000 0.88550  0.15070  0.73272  Biso   1.000  O
  O38      1.0000 0.91080  0.16090  0.82950  Biso   1.000  O
  O39      1.0000 0.61080  0.69960  0.75552  Biso   1.000  O
  O40      1.0000 0.74090  0.80380  0.73660  Biso   1.000  O
  O41      1.0000 0.41830  0.10390  0.69590  Biso   1.000  O
  O42      1.0000 0.37750  0.05390  0.78664  Biso   1.000  O
  O43      1.0000 0.45650  0.46110  0.64100  Biso   1.000  O
  O44      1.0000 0.33700  0.47210  0.74116  Biso   1.000  O
  O45      1.0000 0.93690  0.75920  0.70941  Biso   1.000  O
  O46      1.0000 0.90360  0.88750  0.14222  Biso   1.000  O
  O47      1.0000 0.74630  0.84190  0.15238  Biso   1.000  O
  O48      1.0000 0.86980  0.78330  0.83425  Biso   1.000  O
  O49      1.0000 0.74640  0.67400  0.85770  Biso   1.000  O
  O50      1.0000 0.82980  0.96920  0.26308  Biso   1.000  O
  O51      1.0000 0.95360  0.08140  0.24689  Biso   1.000  O
  O52      1.0000 0.61450  0.34930  0.23272  Biso   1.000  O
  O53      1.0000 0.58920  0.33910  0.32950  Biso   1.000  O
  O54      1.0000 0.88920  0.80040  0.25552  Biso   1.000  O
  O55      1.0000 0.75910  0.69620  0.23660  Biso   1.000  O
  O56      1.0000 0.08170  0.39610  0.19590  Biso   1.000  O
  O57      1.0000 0.12250  0.44610  0.28664  Biso   1.000  O
  O58      1.0000 0.04350  0.03890  0.14100  Biso   1.000  O
  O59      1.0000 0.16300  0.02790  0.24116  Biso   1.000  O
  O60      1.0000 0.56310  0.74080  0.20941  Biso   1.000  O
