data_image0
_cell_length_a       15.737
_cell_length_b       22.8856
_cell_length_c       22.8856
_cell_angle_alpha    83.2111
_cell_angle_beta     69.8903
_cell_angle_gamma    69.8903

_symmetry_space_group_name_H-M    P 1
_symmetry_int_tables_number       1

loop_
  _symmetry_equiv_pos_as_xyz
  'x, y, z'

loop_
  _atom_site_label
  _atom_site_occupancy
  _atom_site_fract_x
  _atom_site_fract_y
  _atom_site_fract_z
  _atom_site_thermal_displace_type
  _atom_site_B_iso_or_equiv
  _atom_site_type_symbol
  Eu1      1.0000 0.58836  0.25256  0.20536  Biso   1.000  Eu
  Eu2      1.0000 0.34222  0.24973  0.19455  Biso   1.000  Eu
  Eu3      1.0000 0.04628  0.74744  0.79464  Biso   1.000  Eu
  Eu4      1.0000 0.78650  0.75027  0.80545  Biso   1.000  Eu
  Eu5      1.0000 0.04372  0.29464  0.75256  Biso   1.000  Eu
  Eu6      1.0000 0.78676  0.30546  0.74973  Biso   1.000  Eu
  Eu7      1.0000 0.09092  0.70536  0.24744  Biso   1.000  Eu
  Eu8      1.0000 0.84196  0.69454  0.25027  Biso   1.000  Eu
  Eu9      1.0000 0.54628  0.79464  0.74744  Biso   1.000  Eu
  Eu10     1.0000 0.28649  0.80546  0.75027  Biso   1.000  Eu
  Eu11     1.0000 0.08836  0.20536  0.25256  Biso   1.000  Eu
  Eu12     1.0000 0.84223  0.19454  0.24973  Biso   1.000  Eu
  Eu13     1.0000 0.59092  0.24744  0.70536  Biso   1.000  Eu
  Eu14     1.0000 0.34195  0.25027  0.69455  Biso   1.000  Eu
  Eu15     1.0000 0.54372  0.75256  0.29464  Biso   1.000  Eu
  Eu16     1.0000 0.28677  0.74973  0.30545  Biso   1.000  Eu
  H1       1.0000 0.59100  0.32190  0.99790  Biso   1.000  H
  H2       1.0000 0.60800  0.31720  0.89340  Biso   1.000  H
  H3       1.0000 0.56000  0.13020  0.87580  Biso   1.000  H
  H4       1.0000 0.52800  0.05340  0.94200  Biso   1.000  H
  H5       1.0000 0.52100  0.05590  0.04430  Biso   1.000  H
  H6       1.0000 0.54240  0.13590  0.08010  Biso   1.000  H
  H7       1.0000 0.26430  0.29340  0.50740  Biso   1.000  H
  H8       1.0000 0.27150  0.29290  0.40530  Biso   1.000  H
  H9       1.0000 0.51910  0.11430  0.32170  Biso   1.000  H
  H10      1.0000 0.61910  0.03520  0.35940  Biso   1.000  H
  H11      1.0000 0.60300  0.02710  0.46270  Biso   1.000  H
  H12      1.0000 0.49620  0.10840  0.53040  Biso   1.000  H
  H13      1.0000 0.45530  0.44500  0.18220  Biso   1.000  H
  H14      1.0000 0.42670  0.54820  0.19900  Biso   1.000  H
  H15      1.0000 0.17520  0.59130  0.38470  Biso   1.000  H
  H16      1.0000 0.08090  0.53890  0.45030  Biso   1.000  H
  H17      1.0000 0.10270  0.43680  0.42820  Biso   1.000  H
  H18      1.0000 0.22780  0.38670  0.34330  Biso   1.000  H
  H19      1.0000 0.91080  0.67810  0.00210  Biso   1.000  H
  H20      1.0000 0.81860  0.68280  0.10660  Biso   1.000  H
  H21      1.0000 0.56600  0.86980  0.12420  Biso   1.000  H
  H22      1.0000 0.52340  0.94660  0.05800  Biso   1.000  H
  H23      1.0000 0.62120  0.94410  0.95570  Biso   1.000  H
  H24      1.0000 0.75840  0.86410  0.91990  Biso   1.000  H
  H25      1.0000 0.06510  0.70660  0.49260  Biso   1.000  H
  H26      1.0000 0.96970  0.70710  0.59470  Biso   1.000  H
  H27      1.0000 0.95510  0.88570  0.67830  Biso   1.000  H
  H28      1.0000 0.01370  0.96480  0.64060  Biso   1.000  H
  H29      1.0000 0.09280  0.97290  0.53730  Biso   1.000  H
  H30      1.0000 0.13500  0.89160  0.46960  Biso   1.000  H
  H31      1.0000 0.08250  0.55500  0.81780  Biso   1.000  H
  H32      1.0000 0.17390  0.45180  0.80100  Biso   1.000  H
  H33      1.0000 0.15120  0.40870  0.61530  Biso   1.000  H
  H34      1.0000 0.07010  0.46110  0.54970  Biso   1.000  H
  H35      1.0000 0.96770  0.56320  0.57180  Biso   1.000  H
  H36      1.0000 0.95780  0.61330  0.65670  Biso   1.000  H
  H37      1.0000 0.83890  0.50210  0.82190  Biso   1.000  H
  H38      1.0000 0.75140  0.60660  0.81720  Biso   1.000  H
  H39      1.0000 0.68580  0.62420  0.63020  Biso   1.000  H
  H40      1.0000 0.72000  0.55800  0.55340  Biso   1.000  H
  H41      1.0000 0.81530  0.45570  0.55590  Biso   1.000  H
  H42      1.0000 0.87250  0.41990  0.63590  Biso   1.000  H
  H43      1.0000 0.02170  0.99260  0.79340  Biso   1.000  H
  H44      1.0000 0.92680  0.09470  0.79290  Biso   1.000  H
  H45      1.0000 0.09080  0.17830  0.61430  Biso   1.000  H
  H46      1.0000 0.22850  0.14060  0.53520  Biso   1.000  H
  H47      1.0000 0.31570  0.03730  0.52710  Biso   1.000  H
  H48      1.0000 0.27660  0.96960  0.60840  Biso   1.000  H
  H49      1.0000 0.88750  0.31780  0.94500  Biso   1.000  H
  H50      1.0000 0.87570  0.30100  0.04820  Biso   1.000  H
  H51      1.0000 0.80990  0.11530  0.09130  Biso   1.000  H
  H52      1.0000 0.78120  0.04970  0.03890  Biso   1.000  H
  H53      1.0000 0.78090  0.07180  0.93680  Biso   1.000  H
  H54      1.0000 0.82110  0.15670  0.88670  Biso   1.000  H
  H55      1.0000 0.16290  0.49790  0.17810  Biso   1.000  H
  H56      1.0000 0.17520  0.39340  0.18280  Biso   1.000  H
  H57      1.0000 0.94020  0.37580  0.36980  Biso   1.000  H
  H58      1.0000 0.83140  0.44200  0.44660  Biso   1.000  H
  H59      1.0000 0.82690  0.54430  0.44410  Biso   1.000  H
  H60      1.0000 0.92830  0.58010  0.36410  Biso   1.000  H
  H61      1.0000 0.80770  0.00740  0.20660  Biso   1.000  H
  H62      1.0000 0.81440  0.90530  0.20710  Biso   1.000  H
  H63      1.0000 0.88340  0.82170  0.38570  Biso   1.000  H
  H64      1.0000 0.90430  0.85940  0.46480  Biso   1.000  H
  H65      1.0000 0.88010  0.96270  0.47290  Biso   1.000  H
  H66      1.0000 0.85460  0.03040  0.39160  Biso   1.000  H
  H67      1.0000 0.15030  0.68220  0.05500  Biso   1.000  H
  H68      1.0000 0.22490  0.69900  0.95180  Biso   1.000  H
  H69      1.0000 0.01650  0.88470  0.90870  Biso   1.000  H
  H70      1.0000 0.86980  0.95030  0.96110  Biso   1.000  H
  H71      1.0000 0.78950  0.92820  0.06320  Biso   1.000  H
  H72      1.0000 0.86450  0.84330  0.11330  Biso   1.000  H
  H73      1.0000 0.41080  0.00210  0.67810  Biso   1.000  H
  H74      1.0000 0.31860  0.10660  0.68280  Biso   1.000  H
  H75      1.0000 0.06600  0.12420  0.86980  Biso   1.000  H
  H76      1.0000 0.02340  0.05800  0.94660  Biso   1.000  H
  H77      1.0000 0.12120  0.95570  0.94410  Biso   1.000  H
  H78      1.0000 0.25840  0.91990  0.86410  Biso   1.000  H
  H79      1.0000 0.56510  0.49260  0.70660  Biso   1.000  H
  H80      1.0000 0.46970  0.59470  0.70710  Biso   1.000  H
  H81      1.0000 0.45510  0.67830  0.88570  Biso   1.000  H
  H82      1.0000 0.51370  0.64060  0.96480  Biso   1.000  H
  H83      1.0000 0.59280  0.53730  0.97290  Biso   1.000  H
  H84      1.0000 0.63500  0.46960  0.89160  Biso   1.000  H
  H85      1.0000 0.58250  0.81780  0.55500  Biso   1.000  H
  H86      1.0000 0.67390  0.80100  0.45180  Biso   1.000  H
  H87      1.0000 0.65120  0.61530  0.40870  Biso   1.000  H
  H88      1.0000 0.57010  0.54970  0.46110  Biso   1.000  H
  H89      1.0000 0.46770  0.57180  0.56320  Biso   1.000  H
  H90      1.0000 0.45780  0.65670  0.61330  Biso   1.000  H
  H91      1.0000 0.09100  0.99790  0.32190  Biso   1.000  H
  H92      1.0000 0.10800  0.89340  0.31720  Biso   1.000  H
  H93      1.0000 0.06000  0.87580  0.13020  Biso   1.000  H
  H94      1.0000 0.02800  0.94200  0.05340  Biso   1.000  H
  H95      1.0000 0.02100  0.04430  0.05590  Biso   1.000  H
  H96      1.0000 0.04240  0.08010  0.13590  Biso   1.000  H
  H97      1.0000 0.76430  0.50740  0.29340  Biso   1.000  H
  H98      1.0000 0.77150  0.40530  0.29290  Biso   1.000  H
  H99      1.0000 0.01910  0.32170  0.11430  Biso   1.000  H
  H100     1.0000 0.11910  0.35940  0.03520  Biso   1.000  H
  H101     1.0000 0.10300  0.46270  0.02710  Biso   1.000  H
  H102     1.0000 0.99620  0.53040  0.10840  Biso   1.000  H
  H103     1.0000 0.95530  0.18220  0.44500  Biso   1.000  H
  H104     1.0000 0.92670  0.19900  0.54820  Biso   1.000  H
  H105     1.0000 0.67520  0.38470  0.59130  Biso   1.000  H
  H106     1.0000 0.58090  0.45030  0.53890  Biso   1.000  H
  H107     1.0000 0.60270  0.42820  0.43680  Biso   1.000  H
  H108     1.0000 0.72780  0.34330  0.38670  Biso   1.000  H
  H109     1.0000 0.66290  0.17810  0.49790  Biso   1.000  H
  H110     1.0000 0.67520  0.18280  0.39340  Biso   1.000  H
  H111     1.0000 0.44020  0.36980  0.37580  Biso   1.000  H
  H112     1.0000 0.33140  0.44660  0.44200  Biso   1.000  H
  H113     1.0000 0.32690  0.44410  0.54430  Biso   1.000  H
  H114     1.0000 0.42830  0.36410  0.58010  Biso   1.000  H
  H115     1.0000 0.30770  0.20660  0.00740  Biso   1.000  H
  H116     1.0000 0.31440  0.20710  0.90530  Biso   1.000  H
  H117     1.0000 0.38340  0.38570  0.82170  Biso   1.000  H
  H118     1.0000 0.40430  0.46480  0.85940  Biso   1.000  H
  H119     1.0000 0.38010  0.47290  0.96270  Biso   1.000  H
  H120     1.0000 0.35460  0.39160  0.03040  Biso   1.000  H
  H121     1.0000 0.65030  0.05500  0.68220  Biso   1.000  H
  H122     1.0000 0.72490  0.95180  0.69900  Biso   1.000  H
  H123     1.0000 0.51650  0.90870  0.88470  Biso   1.000  H
  H124     1.0000 0.36980  0.96110  0.95030  Biso   1.000  H
  H125     1.0000 0.28950  0.06320  0.92820  Biso   1.000  H
  H126     1.0000 0.36450  0.11330  0.84330  Biso   1.000  H
  H127     1.0000 0.33890  0.82190  0.50210  Biso   1.000  H
  H128     1.0000 0.25140  0.81720  0.60660  Biso   1.000  H
  H129     1.0000 0.18580  0.63020  0.62420  Biso   1.000  H
  H130     1.0000 0.22000  0.55340  0.55800  Biso   1.000  H
  H131     1.0000 0.31530  0.55590  0.45570  Biso   1.000  H
  H132     1.0000 0.37250  0.63590  0.41990  Biso   1.000  H
  H133     1.0000 0.52170  0.79340  0.99260  Biso   1.000  H
  H134     1.0000 0.42680  0.79290  0.09470  Biso   1.000  H
  H135     1.0000 0.59080  0.61430  0.17830  Biso   1.000  H
  H136     1.0000 0.72850  0.53520  0.14060  Biso   1.000  H
  H137     1.0000 0.81570  0.52710  0.03730  Biso   1.000  H
  H138     1.0000 0.77660  0.60840  0.96960  Biso   1.000  H
  H139     1.0000 0.38750  0.94500  0.31780  Biso   1.000  H
  H140     1.0000 0.37570  0.04820  0.30100  Biso   1.000  H
  H141     1.0000 0.30990  0.09130  0.11530  Biso   1.000  H
  H142     1.0000 0.28120  0.03890  0.04970  Biso   1.000  H
  H143     1.0000 0.28090  0.93680  0.07180  Biso   1.000  H
  H144     1.0000 0.32110  0.88670  0.15670  Biso   1.000  H
  C1       1.0000 0.57030  0.23990  0.02210  Biso   1.000  C
  C2       1.0000 0.58650  0.28740  0.98280  Biso   1.000  C
  C3       1.0000 0.59650  0.28450  0.91970  Biso   1.000  C
  C4       1.0000 0.58980  0.23480  0.89600  Biso   1.000  C
  C5       1.0000 0.56850  0.18490  0.93650  Biso   1.000  C
  C6       1.0000 0.55570  0.13250  0.91710  Biso   1.000  C
  C7       1.0000 0.53740  0.08650  0.95610  Biso   1.000  C
  C8       1.0000 0.53270  0.08830  0.01750  Biso   1.000  C
  C9       1.0000 0.54490  0.13630  0.03890  Biso   1.000  C
  C10      1.0000 0.56140  0.18710  0.00070  Biso   1.000  C
  C11      1.0000 0.56680  0.24570  0.08730  Biso   1.000  C
  C12      1.0000 0.60580  0.23490  0.82790  Biso   1.000  C
  C13      1.0000 0.36760  0.21220  0.50680  Biso   1.000  C
  C14      1.0000 0.30870  0.26020  0.48200  Biso   1.000  C
  C15      1.0000 0.31360  0.26030  0.42010  Biso   1.000  C
  C16      1.0000 0.37960  0.21310  0.38110  Biso   1.000  C
  C17      1.0000 0.44280  0.16350  0.40270  Biso   1.000  C
  C18      1.0000 0.51320  0.11400  0.36360  Biso   1.000  C
  C19      1.0000 0.57190  0.06630  0.38650  Biso   1.000  C
  C20      1.0000 0.56430  0.06220  0.44800  Biso   1.000  C
  C21      1.0000 0.49860  0.11030  0.48910  Biso   1.000  C
  C22      1.0000 0.43630  0.16170  0.46750  Biso   1.000  C
  C23      1.0000 0.35760  0.21950  0.57350  Biso   1.000  C
  C24      1.0000 0.37900  0.21880  0.31420  Biso   1.000  C
  C25      1.0000 0.35060  0.42990  0.25210  Biso   1.000  C
  C26      1.0000 0.40420  0.46440  0.21640  Biso   1.000  C
  C27      1.0000 0.38900  0.52680  0.22680  Biso   1.000  C
  C28      1.0000 0.31720  0.55540  0.27880  Biso   1.000  C
  C29      1.0000 0.25810  0.52130  0.32090  Biso   1.000  C
  C30      1.0000 0.18480  0.55050  0.37570  Biso   1.000  C
  C31      1.0000 0.12890  0.51930  0.41470  Biso   1.000  C
  C32      1.0000 0.14270  0.45780  0.40200  Biso   1.000  C
  C33      1.0000 0.21720  0.42840  0.34980  Biso   1.000  C
  C34      1.0000 0.27750  0.45810  0.30610  Biso   1.000  C
  C35      1.0000 0.37140  0.36540  0.23340  Biso   1.000  C
  C36      1.0000 0.30080  0.62150  0.29050  Biso   1.000  C
  C37      1.0000 0.83230  0.76010  0.97790  Biso   1.000  C
  C38      1.0000 0.85670  0.71260  0.01720  Biso   1.000  C
  C39      1.0000 0.80070  0.71550  0.08030  Biso   1.000  C
  C40      1.0000 0.72060  0.76520  0.10400  Biso   1.000  C
  C41      1.0000 0.68990  0.81510  0.06350  Biso   1.000  C
  C42      1.0000 0.60530  0.86750  0.08290  Biso   1.000  C
  C43      1.0000 0.58000  0.91350  0.04390  Biso   1.000  C
  C44      1.0000 0.63850  0.91170  0.98250  Biso   1.000  C
  C45      1.0000 0.72010  0.86370  0.96110  Biso   1.000  C
  C46      1.0000 0.74920  0.81290  0.99930  Biso   1.000  C
  C47      1.0000 0.89980  0.75430  0.91270  Biso   1.000  C
  C48      1.0000 0.66860  0.76510  0.17210  Biso   1.000  C
  C49      1.0000 0.08660  0.78780  0.49320  Biso   1.000  C
  C50      1.0000 0.05090  0.73980  0.51800  Biso   1.000  C
  C51      1.0000 0.99400  0.73970  0.57990  Biso   1.000  C
  C52      1.0000 0.97380  0.78690  0.61890  Biso   1.000  C
  C53      1.0000 0.00900  0.83650  0.59730  Biso   1.000  C
  C54      1.0000 0.99080  0.88600  0.63640  Biso   1.000  C
  C55      1.0000 0.02470  0.93370  0.61350  Biso   1.000  C
  C56      1.0000 0.07450  0.93780  0.55200  Biso   1.000  C
  C57      1.0000 0.09800  0.88970  0.51090  Biso   1.000  C
  C58      1.0000 0.06550  0.83830  0.53250  Biso   1.000  C
  C59      1.0000 0.15060  0.78050  0.42650  Biso   1.000  C
  C60      1.0000 0.91200  0.78120  0.68580  Biso   1.000  C
  C61      1.0000 0.03260  0.57010  0.74790  Biso   1.000  C
  C62      1.0000 0.08500  0.53560  0.78360  Biso   1.000  C
  C63      1.0000 0.14260  0.47320  0.77320  Biso   1.000  C
  C64      1.0000 0.15140  0.44460  0.72120  Biso   1.000  C
  C65      1.0000 0.10030  0.47870  0.67910  Biso   1.000  C
  C66      1.0000 0.11100  0.44950  0.62430  Biso   1.000  C
  C67      1.0000 0.06290  0.48070  0.58530  Biso   1.000  C
  C68      1.0000 0.00250  0.54220  0.59800  Biso   1.000  C
  C69      1.0000 0.99540  0.57160  0.65020  Biso   1.000  C
  C70      1.0000 0.04170  0.54190  0.69390  Biso   1.000  C
  C71      1.0000 0.97020  0.63460  0.76660  Biso   1.000  C
  C72      1.0000 0.21280  0.37850  0.70950  Biso   1.000  C
  C73      1.0000 0.84240  0.47790  0.73990  Biso   1.000  C
  C74      1.0000 0.81930  0.51720  0.78740  Biso   1.000  C
  C75      1.0000 0.76620  0.58030  0.78450  Biso   1.000  C
  C76      1.0000 0.73580  0.60400  0.73480  Biso   1.000  C
  C77      1.0000 0.75500  0.56350  0.68490  Biso   1.000  C
  C78      1.0000 0.72280  0.58290  0.63250  Biso   1.000  C
  C79      1.0000 0.74350  0.54390  0.58650  Biso   1.000  C
  C80      1.0000 0.80020  0.48250  0.58830  Biso   1.000  C
  C81      1.0000 0.83380  0.46110  0.63630  Biso   1.000  C
  C82      1.0000 0.81210  0.49930  0.68710  Biso   1.000  C
  C83      1.0000 0.90410  0.41270  0.74570  Biso   1.000  C
  C84      1.0000 0.68370  0.67210  0.73490  Biso   1.000  C
  C85      1.0000 0.12440  0.99320  0.71220  Biso   1.000  C
  C86      1.0000 0.04070  0.01800  0.76020  Biso   1.000  C
  C87      1.0000 0.98370  0.07990  0.76030  Biso   1.000  C
  C88      1.0000 0.01070  0.11890  0.71310  Biso   1.000  C
  C89      1.0000 0.09550  0.09730  0.66350  Biso   1.000  C
  C90      1.0000 0.12680  0.13640  0.61400  Biso   1.000  C
  C91      1.0000 0.20840  0.11350  0.56630  Biso   1.000  C
  C92      1.0000 0.26230  0.05200  0.56220  Biso   1.000  C
  C93      1.0000 0.23770  0.01090  0.61030  Biso   1.000  C
  C94      1.0000 0.15380  0.03250  0.66170  Biso   1.000  C
  C95      1.0000 0.18110  0.92650  0.71950  Biso   1.000  C
  C96      1.0000 0.94320  0.18580  0.71880  Biso   1.000  C
  C97      1.0000 0.85270  0.24790  0.92990  Biso   1.000  C
  C98      1.0000 0.87060  0.28360  0.96440  Biso   1.000  C
  C99      1.0000 0.86580  0.27320  0.02680  Biso   1.000  C
  C100     1.0000 0.84600  0.22120  0.05540  Biso   1.000  C
  C101     1.0000 0.82900  0.17910  0.02130  Biso   1.000  C
  C102     1.0000 0.81050  0.12430  0.05050  Biso   1.000  C
  C103     1.0000 0.79360  0.08530  0.01930  Biso   1.000  C
  C104     1.0000 0.79470  0.09800  0.95780  Biso   1.000  C
  C105     1.0000 0.81700  0.15020  0.92840  Biso   1.000  C
  C106     1.0000 0.83360  0.19390  0.95810  Biso   1.000  C
  C107     1.0000 0.85480  0.26660  0.86540  Biso   1.000  C
  C108     1.0000 0.84130  0.20950  0.12150  Biso   1.000  C
  C109     1.0000 0.06020  0.52210  0.26010  Biso   1.000  C
  C110     1.0000 0.12390  0.48280  0.21260  Biso   1.000  C
  C111     1.0000 0.13100  0.41970  0.21550  Biso   1.000  C
  C112     1.0000 0.07460  0.39600  0.26520  Biso   1.000  C
  C113     1.0000 0.00340  0.43650  0.31510  Biso   1.000  C
  C114     1.0000 0.93820  0.41710  0.36750  Biso   1.000  C
  C115     1.0000 0.87390  0.45610  0.41350  Biso   1.000  C
  C116     1.0000 0.87100  0.51750  0.41170  Biso   1.000  C
  C117     1.0000 0.93120  0.53890  0.36370  Biso   1.000  C
  C118     1.0000 0.99850  0.50070  0.31290  Biso   1.000  C
  C119     1.0000 0.06250  0.58730  0.25430  Biso   1.000  C
  C120     1.0000 0.09070  0.32790  0.26510  Biso   1.000  C
  C121     1.0000 0.82980  0.00680  0.28780  Biso   1.000  C
  C122     1.0000 0.81890  0.98200  0.23980  Biso   1.000  C
  C123     1.0000 0.82390  0.92010  0.23970  Biso   1.000  C
  C124     1.0000 0.84270  0.88110  0.28690  Biso   1.000  C
  C125     1.0000 0.85630  0.90270  0.33650  Biso   1.000  C
  C126     1.0000 0.87720  0.86360  0.38600  Biso   1.000  C
  C127     1.0000 0.88820  0.88650  0.43370  Biso   1.000  C
  C128     1.0000 0.87650  0.94800  0.43780  Biso   1.000  C
  C129     1.0000 0.85890  0.98910  0.38970  Biso   1.000  C
  C130     1.0000 0.84800  0.96750  0.33830  Biso   1.000  C
  C131     1.0000 0.82710  0.07350  0.28050  Biso   1.000  C
  C132     1.0000 0.84780  0.81420  0.28120  Biso   1.000  C
  C133     1.0000 0.03050  0.75210  0.07010  Biso   1.000  C
  C134     1.0000 0.11860  0.71640  0.03560  Biso   1.000  C
  C135     1.0000 0.16580  0.72680  0.97320  Biso   1.000  C
  C136     1.0000 0.12260  0.77880  0.94460  Biso   1.000  C
  C137     1.0000 0.02940  0.82090  0.97870  Biso   1.000  C
  C138     1.0000 0.98530  0.87570  0.94950  Biso   1.000  C
  C139     1.0000 0.89820  0.91470  0.98070  Biso   1.000  C
  C140     1.0000 0.85050  0.90200  0.04220  Biso   1.000  C
  C141     1.0000 0.89560  0.84980  0.07160  Biso   1.000  C
  C142     1.0000 0.98560  0.80610  0.04190  Biso   1.000  C
  C143     1.0000 0.98680  0.73340  0.13460  Biso   1.000  C
  C144     1.0000 0.17230  0.79050  0.87850  Biso   1.000  C
  C145     1.0000 0.33230  0.97790  0.76010  Biso   1.000  C
  C146     1.0000 0.35670  0.01720  0.71260  Biso   1.000  C
  C147     1.0000 0.30070  0.08030  0.71550  Biso   1.000  C
  C148     1.0000 0.22060  0.10400  0.76520  Biso   1.000  C
  C149     1.0000 0.18990  0.06350  0.81510  Biso   1.000  C
  C150     1.0000 0.10530  0.08290  0.86750  Biso   1.000  C
  C151     1.0000 0.08000  0.04390  0.91350  Biso   1.000  C
  C152     1.0000 0.13850  0.98250  0.91170  Biso   1.000  C
  C153     1.0000 0.22010  0.96110  0.86370  Biso   1.000  C
  C154     1.0000 0.24920  0.99930  0.81290  Biso   1.000  C
  C155     1.0000 0.39980  0.91270  0.75430  Biso   1.000  C
  C156     1.0000 0.16860  0.17210  0.76510  Biso   1.000  C
  C157     1.0000 0.58660  0.49320  0.78780  Biso   1.000  C
  C158     1.0000 0.55090  0.51800  0.73980  Biso   1.000  C
  C159     1.0000 0.49400  0.57990  0.73970  Biso   1.000  C
  C160     1.0000 0.47380  0.61890  0.78690  Biso   1.000  C
  C161     1.0000 0.50900  0.59730  0.83650  Biso   1.000  C
  C162     1.0000 0.49080  0.63640  0.88600  Biso   1.000  C
  C163     1.0000 0.52470  0.61350  0.93370  Biso   1.000  C
  C164     1.0000 0.57450  0.55200  0.93780  Biso   1.000  C
  C165     1.0000 0.59800  0.51090  0.88970  Biso   1.000  C
  C166     1.0000 0.56550  0.53250  0.83830  Biso   1.000  C
  C167     1.0000 0.65060  0.42650  0.78050  Biso   1.000  C
  C168     1.0000 0.41200  0.68580  0.78120  Biso   1.000  C
  C169     1.0000 0.53260  0.74790  0.57010  Biso   1.000  C
  C170     1.0000 0.58500  0.78360  0.53560  Biso   1.000  C
  C171     1.0000 0.64260  0.77320  0.47320  Biso   1.000  C
  C172     1.0000 0.65140  0.72120  0.44460  Biso   1.000  C
  C173     1.0000 0.60030  0.67910  0.47870  Biso   1.000  C
  C174     1.0000 0.61100  0.62430  0.44950  Biso   1.000  C
  C175     1.0000 0.56290  0.58530  0.48070  Biso   1.000  C
  C176     1.0000 0.50250  0.59800  0.54220  Biso   1.000  C
  C177     1.0000 0.49540  0.65020  0.57160  Biso   1.000  C
  C178     1.0000 0.54170  0.69390  0.54190  Biso   1.000  C
  C179     1.0000 0.47020  0.76660  0.63460  Biso   1.000  C
  C180     1.0000 0.71280  0.70950  0.37850  Biso   1.000  C
  C181     1.0000 0.07030  0.02210  0.23990  Biso   1.000  C
  C182     1.0000 0.08650  0.98280  0.28740  Biso   1.000  C
  C183     1.0000 0.09650  0.91970  0.28450  Biso   1.000  C
  C184     1.0000 0.08980  0.89600  0.23480  Biso   1.000  C
  C185     1.0000 0.06850  0.93650  0.18490  Biso   1.000  C
  C186     1.0000 0.05570  0.91710  0.13250  Biso   1.000  C
  C187     1.0000 0.03740  0.95610  0.08650  Biso   1.000  C
  C188     1.0000 0.03270  0.01750  0.08830  Biso   1.000  C
  C189     1.0000 0.04490  0.03890  0.13630  Biso   1.000  C
  C190     1.0000 0.06140  0.00070  0.18710  Biso   1.000  C
  C191     1.0000 0.06680  0.08730  0.24570  Biso   1.000  C
  C192     1.0000 0.10580  0.82790  0.23490  Biso   1.000  C
  C193     1.0000 0.86760  0.50680  0.21220  Biso   1.000  C
  C194     1.0000 0.80870  0.48200  0.26020  Biso   1.000  C
  C195     1.0000 0.81360  0.42010  0.26030  Biso   1.000  C
  C196     1.0000 0.87960  0.38110  0.21310  Biso   1.000  C
  C197     1.0000 0.94280  0.40270  0.16350  Biso   1.000  C
  C198     1.0000 0.01320  0.36360  0.11400  Biso   1.000  C
  C199     1.0000 0.07190  0.38650  0.06630  Biso   1.000  C
  C200     1.0000 0.06430  0.44800  0.06220  Biso   1.000  C
  C201     1.0000 0.99860  0.48910  0.11030  Biso   1.000  C
  C202     1.0000 0.93630  0.46750  0.16170  Biso   1.000  C
  C203     1.0000 0.85760  0.57350  0.21950  Biso   1.000  C
  C204     1.0000 0.87900  0.31420  0.21880  Biso   1.000  C
  C205     1.0000 0.85060  0.25210  0.42990  Biso   1.000  C
  C206     1.0000 0.90420  0.21640  0.46440  Biso   1.000  C
  C207     1.0000 0.88900  0.22680  0.52680  Biso   1.000  C
  C208     1.0000 0.81720  0.27880  0.55540  Biso   1.000  C
  C209     1.0000 0.75810  0.32090  0.52130  Biso   1.000  C
  C210     1.0000 0.68480  0.37570  0.55050  Biso   1.000  C
  C211     1.0000 0.62890  0.41470  0.51930  Biso   1.000  C
  C212     1.0000 0.64270  0.40200  0.45780  Biso   1.000  C
  C213     1.0000 0.71720  0.34980  0.42840  Biso   1.000  C
  C214     1.0000 0.77750  0.30610  0.45810  Biso   1.000  C
  C215     1.0000 0.87140  0.23340  0.36540  Biso   1.000  C
  C216     1.0000 0.80080  0.29050  0.62150  Biso   1.000  C
  C217     1.0000 0.56020  0.26010  0.52210  Biso   1.000  C
  C218     1.0000 0.62390  0.21260  0.48280  Biso   1.000  C
  C219     1.0000 0.63100  0.21550  0.41970  Biso   1.000  C
  C220     1.0000 0.57460  0.26520  0.39600  Biso   1.000  C
  C221     1.0000 0.50340  0.31510  0.43650  Biso   1.000  C
  C222     1.0000 0.43820  0.36750  0.41710  Biso   1.000  C
  C223     1.0000 0.37390  0.41350  0.45610  Biso   1.000  C
  C224     1.0000 0.37100  0.41170  0.51750  Biso   1.000  C
  C225     1.0000 0.43120  0.36370  0.53890  Biso   1.000  C
  C226     1.0000 0.49850  0.31290  0.50070  Biso   1.000  C
  C227     1.0000 0.56250  0.25430  0.58730  Biso   1.000  C
  C228     1.0000 0.59070  0.26510  0.32790  Biso   1.000  C
  C229     1.0000 0.32980  0.28780  0.00680  Biso   1.000  C
  C230     1.0000 0.31890  0.23980  0.98200  Biso   1.000  C
  C231     1.0000 0.32390  0.23970  0.92010  Biso   1.000  C
  C232     1.0000 0.34270  0.28690  0.88110  Biso   1.000  C
  C233     1.0000 0.35630  0.33650  0.90270  Biso   1.000  C
  C234     1.0000 0.37720  0.38600  0.86360  Biso   1.000  C
  C235     1.0000 0.38820  0.43370  0.88650  Biso   1.000  C
  C236     1.0000 0.37650  0.43780  0.94800  Biso   1.000  C
  C237     1.0000 0.35890  0.38970  0.98910  Biso   1.000  C
  C238     1.0000 0.34800  0.33830  0.96750  Biso   1.000  C
  C239     1.0000 0.32710  0.28050  0.07350  Biso   1.000  C
  C240     1.0000 0.34780  0.28120  0.81420  Biso   1.000  C
  C241     1.0000 0.53050  0.07010  0.75210  Biso   1.000  C
  C242     1.0000 0.61860  0.03560  0.71640  Biso   1.000  C
  C243     1.0000 0.66580  0.97320  0.72680  Biso   1.000  C
  C244     1.0000 0.62260  0.94460  0.77880  Biso   1.000  C
  C245     1.0000 0.52940  0.97870  0.82090  Biso   1.000  C
  C246     1.0000 0.48530  0.94950  0.87570  Biso   1.000  C
  C247     1.0000 0.39820  0.98070  0.91470  Biso   1.000  C
  C248     1.0000 0.35050  0.04220  0.90200  Biso   1.000  C
  C249     1.0000 0.39560  0.07160  0.84980  Biso   1.000  C
  C250     1.0000 0.48560  0.04190  0.80610  Biso   1.000  C
  C251     1.0000 0.48680  0.13460  0.73340  Biso   1.000  C
  C252     1.0000 0.67230  0.87850  0.79050  Biso   1.000  C
  C253     1.0000 0.34240  0.73990  0.47790  Biso   1.000  C
  C254     1.0000 0.31930  0.78740  0.51720  Biso   1.000  C
  C255     1.0000 0.26620  0.78450  0.58030  Biso   1.000  C
  C256     1.0000 0.23580  0.73480  0.60400  Biso   1.000  C
  C257     1.0000 0.25500  0.68490  0.56350  Biso   1.000  C
  C258     1.0000 0.22280  0.63250  0.58290  Biso   1.000  C
  C259     1.0000 0.24350  0.58650  0.54390  Biso   1.000  C
  C260     1.0000 0.30020  0.58830  0.48250  Biso   1.000  C
  C261     1.0000 0.33380  0.63630  0.46110  Biso   1.000  C
  C262     1.0000 0.31210  0.68710  0.49930  Biso   1.000  C
  C263     1.0000 0.40410  0.74570  0.41270  Biso   1.000  C
  C264     1.0000 0.18370  0.73490  0.67210  Biso   1.000  C
  C265     1.0000 0.62440  0.71220  0.99320  Biso   1.000  C
  C266     1.0000 0.54070  0.76020  0.01800  Biso   1.000  C
  C267     1.0000 0.48370  0.76030  0.07990  Biso   1.000  C
  C268     1.0000 0.51070  0.71310  0.11890  Biso   1.000  C
  C269     1.0000 0.59550  0.66350  0.09730  Biso   1.000  C
  C270     1.0000 0.62680  0.61400  0.13640  Biso   1.000  C
  C271     1.0000 0.70840  0.56630  0.11350  Biso   1.000  C
  C272     1.0000 0.76230  0.56220  0.05200  Biso   1.000  C
  C273     1.0000 0.73770  0.61030  0.01090  Biso   1.000  C
  C274     1.0000 0.65380  0.66170  0.03250  Biso   1.000  C
  C275     1.0000 0.68110  0.71950  0.92650  Biso   1.000  C
  C276     1.0000 0.44320  0.71880  0.18580  Biso   1.000  C
  C277     1.0000 0.35270  0.92990  0.24790  Biso   1.000  C
  C278     1.0000 0.37060  0.96440  0.28360  Biso   1.000  C
  C279     1.0000 0.36580  0.02680  0.27320  Biso   1.000  C
  C280     1.0000 0.34600  0.05540  0.22120  Biso   1.000  C
  C281     1.0000 0.32900  0.02130  0.17910  Biso   1.000  C
  C282     1.0000 0.31050  0.05050  0.12430  Biso   1.000  C
  C283     1.0000 0.29360  0.01930  0.08530  Biso   1.000  C
  C284     1.0000 0.29470  0.95780  0.09800  Biso   1.000  C
  C285     1.0000 0.31700  0.92840  0.15020  Biso   1.000  C
  C286     1.0000 0.33360  0.95810  0.19390  Biso   1.000  C
  C287     1.0000 0.35480  0.86540  0.26660  Biso   1.000  C
  C288     1.0000 0.34130  0.12150  0.20950  Biso   1.000  C
  O1       1.0000 0.51011  0.22593  0.13405  Biso   1.000  O
  O2       1.0000 0.61894  0.27196  0.09576  Biso   1.000  O
  O3       1.0000 0.64373  0.27353  0.79161  Biso   1.000  O
  O4       1.0000 0.57960  0.19942  0.80558  Biso   1.000  O
  O5       1.0000 0.40886  0.18051  0.60217  Biso   1.000  O
  O6       1.0000 0.29590  0.26880  0.60240  Biso   1.000  O
  O7       1.0000 0.45100  0.21986  0.26894  Biso   1.000  O
  O8       1.0000 0.30210  0.22439  0.30641  Biso   1.000  O
  O9       1.0000 0.45540  0.33670  0.20050  Biso   1.000  O
  O10      1.0000 0.30660  0.34230  0.24630  Biso   1.000  O
  O11      1.0000 0.36100  0.63482  0.30478  Biso   1.000  O
  O12      1.0000 0.22966  0.66443  0.28305  Biso   1.000  O
  O13      1.0000 0.64914  0.14051  0.20301  Biso   1.000  O
  O14      1.0000 0.64320  0.34580  0.18860  Biso   1.000  O
  O15      1.0000 0.87009  0.77407  0.86595  Biso   1.000  O
  O16      1.0000 0.98666  0.72804  0.90424  Biso   1.000  O
  O17      1.0000 0.70887  0.72647  0.20839  Biso   1.000  O
  O18      1.0000 0.58460  0.80058  0.19442  Biso   1.000  O
  O19      1.0000 0.19154  0.81949  0.39783  Biso   1.000  O
  O20      1.0000 0.16710  0.73120  0.39760  Biso   1.000  O
  O21      1.0000 0.93980  0.78014  0.73106  Biso   1.000  O
  O22      1.0000 0.83290  0.77561  0.69359  Biso   1.000  O
  O23      1.0000 0.99260  0.66330  0.79950  Biso   1.000  O
  O24      1.0000 0.89520  0.65770  0.75370  Biso   1.000  O
  O25      1.0000 0.30060  0.36518  0.69522  Biso   1.000  O
  O26      1.0000 0.17714  0.33557  0.71695  Biso   1.000  O
  O27      1.0000 0.99266  0.85949  0.79699  Biso   1.000  O
  O28      1.0000 0.17760  0.65420  0.81140  Biso   1.000  O
  O29      1.0000 0.89416  0.36595  0.72593  Biso   1.000  O
  O30      1.0000 0.96470  0.40424  0.77196  Biso   1.000  O
  O31      1.0000 0.68534  0.70839  0.77353  Biso   1.000  O
  O32      1.0000 0.63518  0.69442  0.69942  Biso   1.000  O
  O33      1.0000 0.26103  0.89783  0.68051  Biso   1.000  O
  O34      1.0000 0.14830  0.89760  0.76880  Biso   1.000  O
  O35      1.0000 0.96994  0.23106  0.71986  Biso   1.000  O
  O36      1.0000 0.85851  0.19359  0.72439  Biso   1.000  O
  O37      1.0000 0.90590  0.29950  0.83670  Biso   1.000  O
  O38      1.0000 0.80290  0.25370  0.84230  Biso   1.000  O
  O39      1.0000 0.91578  0.19522  0.13482  Biso   1.000  O
  O40      1.0000 0.76271  0.21695  0.16443  Biso   1.000  O
  O41      1.0000 0.10215  0.29699  0.64051  Biso   1.000  O
  O42      1.0000 0.08180  0.31140  0.84580  Biso   1.000  O
  O43      1.0000 0.98604  0.63405  0.27407  Biso   1.000  O
  O44      1.0000 0.14090  0.59576  0.22804  Biso   1.000  O
  O45      1.0000 0.16726  0.29161  0.22647  Biso   1.000  O
  O46      1.0000 0.02902  0.30558  0.30058  Biso   1.000  O
  O47      1.0000 0.83937  0.10217  0.31949  Biso   1.000  O
  O48      1.0000 0.81470  0.10240  0.23120  Biso   1.000  O
  O49      1.0000 0.92086  0.76894  0.28014  Biso   1.000  O
  O50      1.0000 0.77649  0.80641  0.27561  Biso   1.000  O
  O51      1.0000 0.04210  0.70050  0.16330  Biso   1.000  O
  O52      1.0000 0.89890  0.74630  0.15770  Biso   1.000  O
  O53      1.0000 0.24582  0.80478  0.86518  Biso   1.000  O
  O54      1.0000 0.14409  0.78305  0.83557  Biso   1.000  O
  O55      1.0000 0.03965  0.70301  0.35949  Biso   1.000  O
  O56      1.0000 0.23900  0.68860  0.15420  Biso   1.000  O
  O57      1.0000 0.37009  0.86595  0.77407  Biso   1.000  O
  O58      1.0000 0.48666  0.90424  0.72804  Biso   1.000  O
  O59      1.0000 0.20887  0.20839  0.72647  Biso   1.000  O
  O60      1.0000 0.08460  0.19442  0.80058  Biso   1.000  O
  O61      1.0000 0.69154  0.39783  0.81949  Biso   1.000  O
  O62      1.0000 0.66710  0.39760  0.73120  Biso   1.000  O
  O63      1.0000 0.43980  0.73106  0.78014  Biso   1.000  O
  O64      1.0000 0.33290  0.69359  0.77561  Biso   1.000  O
  O65      1.0000 0.49260  0.79950  0.66330  Biso   1.000  O
  O66      1.0000 0.39520  0.75370  0.65770  Biso   1.000  O
  O67      1.0000 0.80060  0.69522  0.36518  Biso   1.000  O
  O68      1.0000 0.67714  0.71695  0.33557  Biso   1.000  O
  O69      1.0000 0.49266  0.79699  0.85949  Biso   1.000  O
  O70      1.0000 0.67760  0.81140  0.65420  Biso   1.000  O
  O71      1.0000 0.01011  0.13405  0.22593  Biso   1.000  O
  O72      1.0000 0.11894  0.09576  0.27196  Biso   1.000  O
  O73      1.0000 0.14373  0.79161  0.27353  Biso   1.000  O
  O74      1.0000 0.07960  0.80558  0.19942  Biso   1.000  O
  O75      1.0000 0.90886  0.60217  0.18051  Biso   1.000  O
  O76      1.0000 0.79590  0.60240  0.26880  Biso   1.000  O
  O77      1.0000 0.95100  0.26894  0.21986  Biso   1.000  O
  O78      1.0000 0.80210  0.30641  0.22439  Biso   1.000  O
  O79      1.0000 0.95540  0.20050  0.33670  Biso   1.000  O
  O80      1.0000 0.80660  0.24630  0.34230  Biso   1.000  O
  O81      1.0000 0.86100  0.30478  0.63482  Biso   1.000  O
  O82      1.0000 0.72966  0.28305  0.66443  Biso   1.000  O
  O83      1.0000 0.14914  0.20301  0.14051  Biso   1.000  O
  O84      1.0000 0.14320  0.18860  0.34580  Biso   1.000  O
  O85      1.0000 0.48604  0.27407  0.63405  Biso   1.000  O
  O86      1.0000 0.64090  0.22804  0.59576  Biso   1.000  O
  O87      1.0000 0.66726  0.22647  0.29161  Biso   1.000  O
  O88      1.0000 0.52902  0.30058  0.30558  Biso   1.000  O
  O89      1.0000 0.33937  0.31949  0.10217  Biso   1.000  O
  O90      1.0000 0.31470  0.23120  0.10240  Biso   1.000  O
  O91      1.0000 0.42086  0.28014  0.76894  Biso   1.000  O
  O92      1.0000 0.27649  0.27561  0.80641  Biso   1.000  O
  O93      1.0000 0.54210  0.16330  0.70050  Biso   1.000  O
  O94      1.0000 0.39890  0.15770  0.74630  Biso   1.000  O
  O95      1.0000 0.74582  0.86518  0.80478  Biso   1.000  O
  O96      1.0000 0.64409  0.83557  0.78305  Biso   1.000  O
  O97      1.0000 0.53965  0.35949  0.70301  Biso   1.000  O
  O98      1.0000 0.73900  0.15420  0.68860  Biso   1.000  O
  O99      1.0000 0.39416  0.72593  0.36595  Biso   1.000  O
  O100     1.0000 0.46470  0.77196  0.40424  Biso   1.000  O
  O101     1.0000 0.18534  0.77353  0.70839  Biso   1.000  O
  O102     1.0000 0.13518  0.69942  0.69442  Biso   1.000  O
  O103     1.0000 0.76103  0.68051  0.89783  Biso   1.000  O
  O104     1.0000 0.64830  0.76880  0.89760  Biso   1.000  O
  O105     1.0000 0.46994  0.71986  0.23106  Biso   1.000  O
  O106     1.0000 0.35851  0.72439  0.19359  Biso   1.000  O
  O107     1.0000 0.40590  0.83670  0.29950  Biso   1.000  O
  O108     1.0000 0.30290  0.84230  0.25370  Biso   1.000  O
  O109     1.0000 0.41578  0.13482  0.19522  Biso   1.000  O
  O110     1.0000 0.26271  0.16443  0.21695  Biso   1.000  O
  O111     1.0000 0.60215  0.64051  0.29699  Biso   1.000  O
  O112     1.0000 0.58180  0.84580  0.31140  Biso   1.000  O
