data_image0
_cell_length_a       14.6206
_cell_length_b       14.6206
_cell_length_c       14.6206
_cell_angle_alpha    109.38
_cell_angle_beta     109.38
_cell_angle_gamma    109.38

_symmetry_space_group_name_H-M    P 1
_symmetry_int_tables_number       1

loop_
  _symmetry_equiv_pos_as_xyz
  'x, y, z'

loop_
  _atom_site_label
  _atom_site_occupancy
  _atom_site_fract_x
  _atom_site_fract_y
  _atom_site_fract_z
  _atom_site_thermal_displace_type
  _atom_site_B_iso_or_equiv
  _atom_site_type_symbol
  Zn1      1.0000 0.19922  0.44964  0.69352  Biso   1.000  Zn
  Zn2      1.0000 0.69352  0.19922  0.44964  Biso   1.000  Zn
  Zn3      1.0000 0.44964  0.69352  0.19922  Biso   1.000  Zn
  Zn4      1.0000 0.80078  0.55036  0.30648  Biso   1.000  Zn
  Zn5      1.0000 0.30648  0.80078  0.55036  Biso   1.000  Zn
  Zn6      1.0000 0.55036  0.30648  0.80078  Biso   1.000  Zn
  H1       1.0000 0.69280  0.69430  0.06000  Biso   1.000  H
  H2       1.0000 0.06000  0.69280  0.69430  Biso   1.000  H
  H3       1.0000 0.69430  0.06000  0.69280  Biso   1.000  H
  H4       1.0000 0.30720  0.30570  0.94000  Biso   1.000  H
  H5       1.0000 0.94000  0.30720  0.30570  Biso   1.000  H
  H6       1.0000 0.30570  0.94000  0.30720  Biso   1.000  H
  C1       1.0000 0.44952  0.58276  0.94952  Biso   1.000  C
  C2       1.0000 0.47143  0.51628  0.87589  Biso   1.000  C
  C3       1.0000 0.34609  0.57077  0.94794  Biso   1.000  C
  C4       1.0000 0.39848  0.41187  0.77005  Biso   1.000  C
  C5       1.0000 0.94952  0.44952  0.58276  Biso   1.000  C
  C6       1.0000 0.87589  0.47143  0.51628  Biso   1.000  C
  C7       1.0000 0.94794  0.34609  0.57077  Biso   1.000  C
  C8       1.0000 0.77005  0.39848  0.41187  Biso   1.000  C
  C9       1.0000 0.58276  0.94952  0.44952  Biso   1.000  C
  C10      1.0000 0.51628  0.87589  0.47143  Biso   1.000  C
  C11      1.0000 0.57077  0.94794  0.34609  Biso   1.000  C
  C12      1.0000 0.41187  0.77005  0.39848  Biso   1.000  C
  C13      1.0000 0.55048  0.41724  0.05048  Biso   1.000  C
  C14      1.0000 0.52857  0.48372  0.12411  Biso   1.000  C
  C15      1.0000 0.65391  0.42923  0.05206  Biso   1.000  C
  C16      1.0000 0.60152  0.58813  0.22995  Biso   1.000  C
  C17      1.0000 0.05048  0.55048  0.41724  Biso   1.000  C
  C18      1.0000 0.12411  0.52857  0.48372  Biso   1.000  C
  C19      1.0000 0.05206  0.65391  0.42923  Biso   1.000  C
  C20      1.0000 0.22995  0.60152  0.58813  Biso   1.000  C
  C21      1.0000 0.41724  0.05048  0.55048  Biso   1.000  C
  C22      1.0000 0.48372  0.12411  0.52857  Biso   1.000  C
  C23      1.0000 0.42923  0.05206  0.65391  Biso   1.000  C
  C24      1.0000 0.58813  0.22995  0.60152  Biso   1.000  C
  N1       1.0000 0.54651  0.66707  0.03822  Biso   1.000  N
  N2       1.0000 0.62230  0.64990  0.01530  Biso   1.000  N
  N3       1.0000 0.58229  0.56107  0.92034  Biso   1.000  N
  N4       1.0000 0.42720  0.33521  0.73459  Biso   1.000  N
  N5       1.0000 0.34050  0.25380  0.63180  Biso   1.000  N
  N6       1.0000 0.26270  0.27970  0.60690  Biso   1.000  N
  N7       1.0000 0.29633  0.37894  0.69303  Biso   1.000  N
  N8       1.0000 0.33755  0.60937  0.03878  Biso   1.000  N
  N9       1.0000 0.22973  0.58146  0.00321  Biso   1.000  N
  N10      1.0000 0.17501  0.52836  0.89533  Biso   1.000  N
  N11      1.0000 0.24704  0.51978  0.85738  Biso   1.000  N
  N12      1.0000 0.03822  0.54651  0.66707  Biso   1.000  N
  N13      1.0000 0.01530  0.62230  0.64990  Biso   1.000  N
  N14      1.0000 0.92034  0.58229  0.56107  Biso   1.000  N
  N15      1.0000 0.73459  0.42720  0.33521  Biso   1.000  N
  N16      1.0000 0.63180  0.34050  0.25380  Biso   1.000  N
  N17      1.0000 0.60690  0.26270  0.27970  Biso   1.000  N
  N18      1.0000 0.69303  0.29633  0.37894  Biso   1.000  N
  N19      1.0000 0.03878  0.33755  0.60937  Biso   1.000  N
  N20      1.0000 0.00321  0.22973  0.58146  Biso   1.000  N
  N21      1.0000 0.89533  0.17501  0.52836  Biso   1.000  N
  N22      1.0000 0.85738  0.24704  0.51978  Biso   1.000  N
  N23      1.0000 0.66707  0.03822  0.54651  Biso   1.000  N
  N24      1.0000 0.64990  0.01530  0.62230  Biso   1.000  N
  N25      1.0000 0.56107  0.92034  0.58229  Biso   1.000  N
  N26      1.0000 0.33521  0.73459  0.42720  Biso   1.000  N
  N27      1.0000 0.25380  0.63180  0.34050  Biso   1.000  N
  N28      1.0000 0.27970  0.60690  0.26270  Biso   1.000  N
  N29      1.0000 0.37894  0.69303  0.29633  Biso   1.000  N
  N30      1.0000 0.60937  0.03878  0.33755  Biso   1.000  N
  N31      1.0000 0.58146  0.00321  0.22973  Biso   1.000  N
  N32      1.0000 0.52836  0.89533  0.17501  Biso   1.000  N
  N33      1.0000 0.51978  0.85738  0.24704  Biso   1.000  N
  N34      1.0000 0.45349  0.33293  0.96178  Biso   1.000  N
  N35      1.0000 0.37770  0.35010  0.98470  Biso   1.000  N
  N36      1.0000 0.41771  0.43893  0.07966  Biso   1.000  N
  N37      1.0000 0.57280  0.66479  0.26541  Biso   1.000  N
  N38      1.0000 0.65950  0.74620  0.36820  Biso   1.000  N
  N39      1.0000 0.73730  0.72030  0.39310  Biso   1.000  N
  N40      1.0000 0.70367  0.62106  0.30697  Biso   1.000  N
  N41      1.0000 0.66245  0.39063  0.96122  Biso   1.000  N
  N42      1.0000 0.77027  0.41854  0.99679  Biso   1.000  N
  N43      1.0000 0.82499  0.47164  0.10467  Biso   1.000  N
  N44      1.0000 0.75296  0.48022  0.14262  Biso   1.000  N
  N45      1.0000 0.96178  0.45349  0.33293  Biso   1.000  N
  N46      1.0000 0.98470  0.37770  0.35010  Biso   1.000  N
  N47      1.0000 0.07966  0.41771  0.43893  Biso   1.000  N
  N48      1.0000 0.26541  0.57280  0.66479  Biso   1.000  N
  N49      1.0000 0.36820  0.65950  0.74620  Biso   1.000  N
  N50      1.0000 0.39310  0.73730  0.72030  Biso   1.000  N
  N51      1.0000 0.30697  0.70367  0.62106  Biso   1.000  N
  N52      1.0000 0.96122  0.66245  0.39063  Biso   1.000  N
  N53      1.0000 0.99679  0.77027  0.41854  Biso   1.000  N
  N54      1.0000 0.10467  0.82499  0.47164  Biso   1.000  N
  N55      1.0000 0.14262  0.75296  0.48022  Biso   1.000  N
  N56      1.0000 0.33293  0.96178  0.45349  Biso   1.000  N
  N57      1.0000 0.35010  0.98470  0.37770  Biso   1.000  N
  N58      1.0000 0.43893  0.07966  0.41771  Biso   1.000  N
  N59      1.0000 0.66479  0.26541  0.57280  Biso   1.000  N
  N60      1.0000 0.74620  0.36820  0.65950  Biso   1.000  N
  N61      1.0000 0.72030  0.39310  0.73730  Biso   1.000  N
  N62      1.0000 0.62106  0.30697  0.70367  Biso   1.000  N
  N63      1.0000 0.39063  0.96122  0.66245  Biso   1.000  N
  N64      1.0000 0.41854  0.99679  0.77027  Biso   1.000  N
  N65      1.0000 0.47164  0.10467  0.82499  Biso   1.000  N
  N66      1.0000 0.48022  0.14262  0.75296  Biso   1.000  N
