data_image0
_cell_length_a       10.299
_cell_length_b       11.824
_cell_length_c       20.372
_cell_angle_alpha    90
_cell_angle_beta     90
_cell_angle_gamma    90

_symmetry_space_group_name_H-M    P 1
_symmetry_int_tables_number       1

loop_
  _symmetry_equiv_pos_as_xyz
  'x, y, z'

loop_
  _atom_site_label
  _atom_site_occupancy
  _atom_site_fract_x
  _atom_site_fract_y
  _atom_site_fract_z
  _atom_site_thermal_displace_type
  _atom_site_B_iso_or_equiv
  _atom_site_type_symbol
  Zn1      1.0000 0.03799  0.91988  0.00865  Biso   1.000  Zn
  Zn2      1.0000 0.35120  0.82453  0.00779  Biso   1.000  Zn
  Zn3      1.0000 0.46201  0.08012  0.50865  Biso   1.000  Zn
  Zn4      1.0000 0.14880  0.17547  0.50779  Biso   1.000  Zn
  Zn5      1.0000 0.96201  0.41988  0.49135  Biso   1.000  Zn
  Zn6      1.0000 0.64880  0.32453  0.49221  Biso   1.000  Zn
  Zn7      1.0000 0.53799  0.58012  0.99135  Biso   1.000  Zn
  Zn8      1.0000 0.85120  0.67547  0.99221  Biso   1.000  Zn
  H1       1.0000 0.25890  0.52860  0.98980  Biso   1.000  H
  H2       1.0000 0.34460  0.54910  0.88220  Biso   1.000  H
  H3       1.0000 0.19090  0.55060  0.87950  Biso   1.000  H
  H4       1.0000 0.26970  0.66530  0.87400  Biso   1.000  H
  H5       1.0000 0.04630  0.00920  0.21030  Biso   1.000  H
  H6       1.0000 0.40680  0.88800  0.20910  Biso   1.000  H
  H7       1.0000 0.42570  0.92890  0.31760  Biso   1.000  H
  H8       1.0000 0.06820  0.04820  0.32070  Biso   1.000  H
  H9       1.0000 0.02950  0.14730  0.94000  Biso   1.000  H
  H10      1.0000 0.75080  0.34300  0.00790  Biso   1.000  H
  H11      1.0000 0.74160  0.21220  0.02400  Biso   1.000  H
  H12      1.0000 0.84880  0.28770  0.05850  Biso   1.000  H
  H13      1.0000 0.84800  0.39290  0.92280  Biso   1.000  H
  H14      1.0000 0.99430  0.38520  0.94650  Biso   1.000  H
  H15      1.0000 0.94970  0.32110  0.88210  Biso   1.000  H
  H16      1.0000 0.24110  0.47140  0.48980  Biso   1.000  H
  H17      1.0000 0.15540  0.45090  0.38220  Biso   1.000  H
  H18      1.0000 0.30910  0.44940  0.37950  Biso   1.000  H
  H19      1.0000 0.23030  0.33470  0.37400  Biso   1.000  H
  H20      1.0000 0.45370  0.99080  0.71030  Biso   1.000  H
  H21      1.0000 0.09320  0.11200  0.70910  Biso   1.000  H
  H22      1.0000 0.07430  0.07110  0.81760  Biso   1.000  H
  H23      1.0000 0.43180  0.95180  0.82070  Biso   1.000  H
  H24      1.0000 0.47050  0.85270  0.44000  Biso   1.000  H
  H25      1.0000 0.74920  0.65700  0.50790  Biso   1.000  H
  H26      1.0000 0.75840  0.78780  0.52400  Biso   1.000  H
  H27      1.0000 0.65120  0.71230  0.55850  Biso   1.000  H
  H28      1.0000 0.65200  0.60710  0.42280  Biso   1.000  H
  H29      1.0000 0.50570  0.61480  0.44650  Biso   1.000  H
  H30      1.0000 0.55030  0.67890  0.38210  Biso   1.000  H
  H31      1.0000 0.74110  0.02860  0.51020  Biso   1.000  H
  H32      1.0000 0.65540  0.04910  0.61780  Biso   1.000  H
  H33      1.0000 0.80910  0.05060  0.62050  Biso   1.000  H
  H34      1.0000 0.73030  0.16530  0.62600  Biso   1.000  H
  H35      1.0000 0.95370  0.50920  0.28970  Biso   1.000  H
  H36      1.0000 0.59320  0.38800  0.29090  Biso   1.000  H
  H37      1.0000 0.57430  0.42890  0.18240  Biso   1.000  H
  H38      1.0000 0.93180  0.54820  0.17930  Biso   1.000  H
  H39      1.0000 0.97050  0.64730  0.56000  Biso   1.000  H
  H40      1.0000 0.24920  0.84300  0.49210  Biso   1.000  H
  H41      1.0000 0.25840  0.71220  0.47600  Biso   1.000  H
  H42      1.0000 0.15120  0.78770  0.44150  Biso   1.000  H
  H43      1.0000 0.15200  0.89290  0.57720  Biso   1.000  H
  H44      1.0000 0.00570  0.88520  0.55350  Biso   1.000  H
  H45      1.0000 0.05030  0.82110  0.61790  Biso   1.000  H
  H46      1.0000 0.75890  0.97140  0.01020  Biso   1.000  H
  H47      1.0000 0.84460  0.95090  0.11780  Biso   1.000  H
  H48      1.0000 0.69090  0.94940  0.12050  Biso   1.000  H
  H49      1.0000 0.76970  0.83470  0.12600  Biso   1.000  H
  H50      1.0000 0.54630  0.49080  0.78970  Biso   1.000  H
  H51      1.0000 0.90680  0.61200  0.79090  Biso   1.000  H
  H52      1.0000 0.92570  0.57110  0.68240  Biso   1.000  H
  H53      1.0000 0.56820  0.45180  0.67930  Biso   1.000  H
  H54      1.0000 0.52950  0.35270  0.06000  Biso   1.000  H
  H55      1.0000 0.25080  0.15700  0.99210  Biso   1.000  H
  H56      1.0000 0.24160  0.28780  0.97600  Biso   1.000  H
  H57      1.0000 0.34880  0.21230  0.94150  Biso   1.000  H
  H58      1.0000 0.34800  0.10710  0.07720  Biso   1.000  H
  H59      1.0000 0.49430  0.11480  0.05350  Biso   1.000  H
  H60      1.0000 0.44970  0.17890  0.11790  Biso   1.000  H
  C1       1.0000 0.14050  0.67000  0.98680  Biso   1.000  C
  C2       1.0000 0.26240  0.60430  0.96910  Biso   1.000  C
  C3       1.0000 0.26740  0.59110  0.89430  Biso   1.000  C
  C4       1.0000 0.21680  0.93390  0.12250  Biso   1.000  C
  C5       1.0000 0.23210  0.96280  0.19350  Biso   1.000  C
  C6       1.0000 0.12780  0.00050  0.23040  Biso   1.000  C
  C7       1.0000 0.34060  0.92930  0.22990  Biso   1.000  C
  C8       1.0000 0.27400  0.05030  0.39740  Biso   1.000  C
  C9       1.0000 0.25930  0.01780  0.32590  Biso   1.000  C
  C10      1.0000 0.35280  0.95460  0.29420  Biso   1.000  C
  C11      1.0000 0.14110  0.02560  0.29620  Biso   1.000  C
  C12      1.0000 0.96270  0.15690  0.97090  Biso   1.000  C
  C13      1.0000 0.80000  0.27560  0.01830  Biso   1.000  C
  C14      1.0000 0.92400  0.34400  0.92580  Biso   1.000  C
  C15      1.0000 0.35950  0.33000  0.48680  Biso   1.000  C
  C16      1.0000 0.23760  0.39570  0.46910  Biso   1.000  C
  C17      1.0000 0.23260  0.40890  0.39430  Biso   1.000  C
  C18      1.0000 0.28320  0.06610  0.62250  Biso   1.000  C
  C19      1.0000 0.26790  0.03720  0.69350  Biso   1.000  C
  C20      1.0000 0.37220  0.99950  0.73040  Biso   1.000  C
  C21      1.0000 0.15940  0.07070  0.72990  Biso   1.000  C
  C22      1.0000 0.22600  0.94970  0.89740  Biso   1.000  C
  C23      1.0000 0.24070  0.98220  0.82590  Biso   1.000  C
  C24      1.0000 0.14720  0.04540  0.79420  Biso   1.000  C
  C25      1.0000 0.35890  0.97440  0.79620  Biso   1.000  C
  C26      1.0000 0.53730  0.84310  0.47090  Biso   1.000  C
  C27      1.0000 0.70000  0.72440  0.51830  Biso   1.000  C
  C28      1.0000 0.57600  0.65600  0.42580  Biso   1.000  C
  C29      1.0000 0.85950  0.17000  0.51320  Biso   1.000  C
  C30      1.0000 0.73760  0.10430  0.53090  Biso   1.000  C
  C31      1.0000 0.73260  0.09110  0.60570  Biso   1.000  C
  C32      1.0000 0.78320  0.43390  0.37750  Biso   1.000  C
  C33      1.0000 0.76790  0.46280  0.30650  Biso   1.000  C
  C34      1.0000 0.87220  0.50050  0.26960  Biso   1.000  C
  C35      1.0000 0.65940  0.42930  0.27010  Biso   1.000  C
  C36      1.0000 0.72600  0.55030  0.10260  Biso   1.000  C
  C37      1.0000 0.74070  0.51780  0.17410  Biso   1.000  C
  C38      1.0000 0.64720  0.45460  0.20580  Biso   1.000  C
  C39      1.0000 0.85890  0.52560  0.20380  Biso   1.000  C
  C40      1.0000 0.03730  0.65690  0.52910  Biso   1.000  C
  C41      1.0000 0.20000  0.77560  0.48170  Biso   1.000  C
  C42      1.0000 0.07600  0.84400  0.57420  Biso   1.000  C
  C43      1.0000 0.64050  0.83000  0.01320  Biso   1.000  C
  C44      1.0000 0.76240  0.89570  0.03090  Biso   1.000  C
  C45      1.0000 0.76740  0.90890  0.10570  Biso   1.000  C
  C46      1.0000 0.71680  0.56610  0.87750  Biso   1.000  C
  C47      1.0000 0.73210  0.53720  0.80650  Biso   1.000  C
  C48      1.0000 0.62780  0.49950  0.76960  Biso   1.000  C
  C49      1.0000 0.84060  0.57070  0.77010  Biso   1.000  C
  C50      1.0000 0.77400  0.44970  0.60260  Biso   1.000  C
  C51      1.0000 0.75930  0.48220  0.67410  Biso   1.000  C
  C52      1.0000 0.85280  0.54540  0.70580  Biso   1.000  C
  C53      1.0000 0.64110  0.47440  0.70380  Biso   1.000  C
  C54      1.0000 0.46270  0.34310  0.02910  Biso   1.000  C
  C55      1.0000 0.30000  0.22440  0.98170  Biso   1.000  C
  C56      1.0000 0.42400  0.15600  0.07420  Biso   1.000  C
  N1       1.0000 0.89400  0.25000  0.96260  Biso   1.000  N
  N2       1.0000 0.60600  0.75000  0.46260  Biso   1.000  N
  N3       1.0000 0.10600  0.75000  0.53740  Biso   1.000  N
  N4       1.0000 0.39400  0.25000  0.03740  Biso   1.000  N
  O1       1.0000 0.15320  0.77070  0.00609  Biso   1.000  O
  O2       1.0000 0.37460  0.66200  0.99116  Biso   1.000  O
  O3       1.0000 0.03370  0.62000  0.98080  Biso   1.000  O
  O4       1.0000 0.11090  0.95450  0.09592  Biso   1.000  O
  O5       1.0000 0.31540  0.89130  0.09500  Biso   1.000  O
  O6       1.0000 0.38580  0.04090  0.42169  Biso   1.000  O
  O7       1.0000 0.17350  0.08250  0.42727  Biso   1.000  O
  O8       1.0000 0.95570  0.08250  0.01040  Biso   1.000  O
  O9       1.0000 0.34680  0.22930  0.50609  Biso   1.000  O
  O10      1.0000 0.12540  0.33800  0.49116  Biso   1.000  O
  O11      1.0000 0.46630  0.38000  0.48080  Biso   1.000  O
  O12      1.0000 0.38910  0.04550  0.59592  Biso   1.000  O
  O13      1.0000 0.18460  0.10870  0.59500  Biso   1.000  O
  O14      1.0000 0.11420  0.95910  0.92169  Biso   1.000  O
  O15      1.0000 0.32650  0.91750  0.92727  Biso   1.000  O
  O16      1.0000 0.54430  0.91750  0.51040  Biso   1.000  O
  O17      1.0000 0.84680  0.27070  0.49391  Biso   1.000  O
  O18      1.0000 0.62540  0.16200  0.50884  Biso   1.000  O
  O19      1.0000 0.96630  0.12000  0.51920  Biso   1.000  O
  O20      1.0000 0.88910  0.45450  0.40408  Biso   1.000  O
  O21      1.0000 0.68460  0.39130  0.40500  Biso   1.000  O
  O22      1.0000 0.61420  0.54090  0.07831  Biso   1.000  O
  O23      1.0000 0.82650  0.58250  0.07273  Biso   1.000  O
  O24      1.0000 0.04430  0.58250  0.48960  Biso   1.000  O
  O25      1.0000 0.65320  0.72930  0.99391  Biso   1.000  O
  O26      1.0000 0.87460  0.83800  0.00884  Biso   1.000  O
  O27      1.0000 0.53370  0.88000  0.01920  Biso   1.000  O
  O28      1.0000 0.61090  0.54550  0.90408  Biso   1.000  O
  O29      1.0000 0.81540  0.60870  0.90500  Biso   1.000  O
  O30      1.0000 0.88580  0.45910  0.57831  Biso   1.000  O
  O31      1.0000 0.67350  0.41750  0.57273  Biso   1.000  O
  O32      1.0000 0.45570  0.41750  0.98960  Biso   1.000  O
