data_image0
_cell_length_a       4.80132
_cell_length_b       19.4951
_cell_length_c       19.4951
_cell_angle_alpha    60.6666
_cell_angle_beta     85.291
_cell_angle_gamma    94.709

_symmetry_space_group_name_H-M    P 1
_symmetry_int_tables_number       1

loop_
  _symmetry_equiv_pos_as_xyz
  'x, y, z'

loop_
  _atom_site_label
  _atom_site_occupancy
  _atom_site_fract_x
  _atom_site_fract_y
  _atom_site_fract_z
  _atom_site_thermal_displace_type
  _atom_site_B_iso_or_equiv
  _atom_site_type_symbol
  Cu1      1.0000 0.50000  0.50000  0.50000  Biso   1.000  Cu
  Cu2      1.0000 0.00000  0.50000  0.00000  Biso   1.000  Cu
  Cu3      1.0000 0.00000  0.00000  0.50000  Biso   1.000  Cu
  H1       1.0000 0.51700  0.55750  0.62940  Biso   1.000  H
  H2       1.0000 0.18460  0.34020  0.74090  Biso   1.000  H
  H3       1.0000 0.70870  0.52510  0.78210  Biso   1.000  H
  H4       1.0000 0.22800  0.35480  0.85120  Biso   1.000  H
  H5       1.0000 0.91630  0.40980  0.59990  Biso   1.000  H
  H6       1.0000 0.14640  0.62940  0.81310  Biso   1.000  H
  H7       1.0000 0.92550  0.74090  0.91890  Biso   1.000  H
  H8       1.0000 0.49080  0.78210  0.69280  Biso   1.000  H
  H9       1.0000 0.07920  0.85120  0.79400  Biso   1.000  H
  H10      1.0000 0.51620  0.59990  0.99030  Biso   1.000  H
  H11      1.0000 0.95950  0.81310  0.55750  Biso   1.000  H
  H12      1.0000 0.84440  0.91890  0.34020  Biso   1.000  H
  H13      1.0000 0.18360  0.69280  0.52510  Biso   1.000  H
  H14      1.0000 0.87320  0.79400  0.35480  Biso   1.000  H
  H15      1.0000 0.50650  0.99030  0.40980  Biso   1.000  H
  H16      1.0000 0.48300  0.44250  0.37060  Biso   1.000  H
  H17      1.0000 0.81540  0.65980  0.25910  Biso   1.000  H
  H18      1.0000 0.29130  0.47490  0.21790  Biso   1.000  H
  H19      1.0000 0.77200  0.64520  0.14880  Biso   1.000  H
  H20      1.0000 0.08370  0.59020  0.40010  Biso   1.000  H
  H21      1.0000 0.85360  0.37060  0.18690  Biso   1.000  H
  H22      1.0000 0.07450  0.25910  0.08110  Biso   1.000  H
  H23      1.0000 0.50920  0.21790  0.30720  Biso   1.000  H
  H24      1.0000 0.92080  0.14880  0.20600  Biso   1.000  H
  H25      1.0000 0.48380  0.40010  0.00970  Biso   1.000  H
  H26      1.0000 0.04050  0.18690  0.44250  Biso   1.000  H
  H27      1.0000 0.15560  0.08110  0.65980  Biso   1.000  H
  H28      1.0000 0.81640  0.30720  0.47490  Biso   1.000  H
  H29      1.0000 0.12680  0.20600  0.64520  Biso   1.000  H
  H30      1.0000 0.49350  0.00970  0.59020  Biso   1.000  H
  C1       1.0000 0.63185  0.51692  0.63937  Biso   1.000  C
  C2       1.0000 0.97179  0.44069  0.82672  Biso   1.000  C
  C3       1.0000 0.09014  0.37715  0.74893  Biso   1.000  C
  C4       1.0000 0.80397  0.48851  0.77350  Biso   1.000  C
  C5       1.0000 0.77979  0.48125  0.70558  Biso   1.000  C
  C6       1.0000 0.11289  0.38620  0.81363  Biso   1.000  C
  C7       1.0000 0.91856  0.42593  0.69475  Biso   1.000  C
  C8       1.0000 0.56362  0.65371  0.44715  Biso   1.000  C
  C9       1.0000 0.27122  0.63937  0.84371  Biso   1.000  C
  C10      1.0000 0.79851  0.82672  0.73259  Biso   1.000  C
  C11      1.0000 0.83907  0.74893  0.87392  Biso   1.000  C
  C12      1.0000 0.57747  0.77350  0.73799  Biso   1.000  C
  C13      1.0000 0.48537  0.70558  0.81317  Biso   1.000  C
  C14      1.0000 0.92652  0.81363  0.80017  Biso   1.000  C
  C15      1.0000 0.61331  0.69475  0.87932  Biso   1.000  C
  C16      1.0000 0.01077  0.44715  0.89914  Biso   1.000  C
  C17      1.0000 0.11493  0.84371  0.51692  Biso   1.000  C
  C18      1.0000 0.53110  0.73259  0.44069  Biso   1.000  C
  C19      1.0000 0.71299  0.87392  0.37715  Biso   1.000  C
  C20      1.0000 0.31546  0.73799  0.48851  Biso   1.000  C
  C21      1.0000 0.29854  0.81317  0.48125  Biso   1.000  C
  C22      1.0000 0.72669  0.80017  0.38620  Biso   1.000  C
  C23      1.0000 0.49263  0.87932  0.42593  Biso   1.000  C
  C24      1.0000 0.90991  0.89914  0.65371  Biso   1.000  C
  C25      1.0000 0.36815  0.48308  0.36063  Biso   1.000  C
  C26      1.0000 0.02821  0.55931  0.17328  Biso   1.000  C
  C27      1.0000 0.90986  0.62285  0.25107  Biso   1.000  C
  C28      1.0000 0.19603  0.51149  0.22650  Biso   1.000  C
  C29      1.0000 0.22021  0.51875  0.29442  Biso   1.000  C
  C30      1.0000 0.88711  0.61380  0.18637  Biso   1.000  C
  C31      1.0000 0.08144  0.57407  0.30525  Biso   1.000  C
  C32      1.0000 0.43638  0.34629  0.55285  Biso   1.000  C
  C33      1.0000 0.72878  0.36063  0.15629  Biso   1.000  C
  C34      1.0000 0.20149  0.17328  0.26741  Biso   1.000  C
  C35      1.0000 0.16093  0.25107  0.12608  Biso   1.000  C
  C36      1.0000 0.42253  0.22650  0.26201  Biso   1.000  C
  C37      1.0000 0.51463  0.29442  0.18683  Biso   1.000  C
  C38      1.0000 0.07348  0.18637  0.19983  Biso   1.000  C
  C39      1.0000 0.38669  0.30525  0.12068  Biso   1.000  C
  C40      1.0000 0.98923  0.55285  0.10086  Biso   1.000  C
  C41      1.0000 0.88507  0.15629  0.48308  Biso   1.000  C
  C42      1.0000 0.46890  0.26741  0.55931  Biso   1.000  C
  C43      1.0000 0.28701  0.12608  0.62285  Biso   1.000  C
  C44      1.0000 0.68454  0.26201  0.51149  Biso   1.000  C
  C45      1.0000 0.70146  0.18683  0.51875  Biso   1.000  C
  C46      1.0000 0.27331  0.19983  0.61380  Biso   1.000  C
  C47      1.0000 0.50737  0.12068  0.57407  Biso   1.000  C
  C48      1.0000 0.09009  0.10086  0.34629  Biso   1.000  C
  N1       1.0000 0.67716  0.48569  0.59341  Biso   1.000  N
  N2       1.0000 0.85037  0.43012  0.62721  Biso   1.000  N
  N3       1.0000 0.27057  0.59341  0.92090  Biso   1.000  N
  N4       1.0000 0.47758  0.62721  0.94267  Biso   1.000  N
  N5       1.0000 0.19147  0.92090  0.48569  Biso   1.000  N
  N6       1.0000 0.42025  0.94267  0.43012  Biso   1.000  N
  N7       1.0000 0.32284  0.51431  0.40659  Biso   1.000  N
  N8       1.0000 0.14963  0.56988  0.37279  Biso   1.000  N
  N9       1.0000 0.72943  0.40659  0.07910  Biso   1.000  N
  N10      1.0000 0.52242  0.37279  0.05733  Biso   1.000  N
  N11      1.0000 0.80853  0.07910  0.51431  Biso   1.000  N
  N12      1.0000 0.57975  0.05733  0.56988  Biso   1.000  N
  O1       1.0000 0.37097  0.59584  0.49173  Biso   1.000  O
  O2       1.0000 0.77477  0.64811  0.40990  Biso   1.000  O
  O3       1.0000 0.86270  0.49173  0.91243  Biso   1.000  O
  O4       1.0000 0.18467  0.40990  0.94199  Biso   1.000  O
  O5       1.0000 0.77513  0.91243  0.59584  Biso   1.000  O
  O6       1.0000 0.12666  0.94199  0.64811  Biso   1.000  O
  O7       1.0000 0.62903  0.40416  0.50827  Biso   1.000  O
  O8       1.0000 0.22523  0.35189  0.59010  Biso   1.000  O
  O9       1.0000 0.13730  0.50827  0.08757  Biso   1.000  O
  O10      1.0000 0.81533  0.59010  0.05801  Biso   1.000  O
  O11      1.0000 0.22487  0.08757  0.40416  Biso   1.000  O
  O12      1.0000 0.87334  0.05801  0.35189  Biso   1.000  O
