data_image0
_cell_length_a       8.32
_cell_length_b       11.375
_cell_length_c       12.9347
_cell_angle_alpha    104.395
_cell_angle_beta     108.761
_cell_angle_gamma    90

_symmetry_space_group_name_H-M    P 1
_symmetry_int_tables_number       1

loop_
  _symmetry_equiv_pos_as_xyz
  'x, y, z'

loop_
  _atom_site_label
  _atom_site_occupancy
  _atom_site_fract_x
  _atom_site_fract_y
  _atom_site_fract_z
  _atom_site_thermal_displace_type
  _atom_site_B_iso_or_equiv
  _atom_site_type_symbol
  Co1      1.0000 0.32291  0.06344  0.62960  Biso   1.000  Co
  Co2      1.0000 0.69331  0.93656  0.37040  Biso   1.000  Co
  H1       1.0000 0.13980  0.18630  0.04040  Biso   1.000  H
  H2       1.0000 0.09770  0.28190  0.21160  Biso   1.000  H
  H3       1.0000 0.19180  0.20510  0.36360  Biso   1.000  H
  H4       1.0000 0.14660  0.80220  0.47160  Biso   1.000  H
  H5       1.0000 0.14580  0.60680  0.47780  Biso   1.000  H
  H6       1.0000 0.48720  0.69890  0.78620  Biso   1.000  H
  H7       1.0000 0.49330  0.90120  0.77760  Biso   1.000  H
  H8       1.0000 0.06620  0.47460  0.57480  Biso   1.000  H
  H9       1.0000 0.04410  0.27390  0.58280  Biso   1.000  H
  H10      1.0000 0.55410  0.27420  0.68100  Biso   1.000  H
  H11      1.0000 0.57600  0.47490  0.67320  Biso   1.000  H
  H12      1.0000 0.64300  0.10800  0.64400  Biso   1.000  H
  H13      1.0000 0.63600  0.99700  0.67800  Biso   1.000  H
  H14      1.0000 0.09940  0.81370  0.95960  Biso   1.000  H
  H15      1.0000 0.88610  0.71810  0.78840  Biso   1.000  H
  H16      1.0000 0.82820  0.79490  0.63640  Biso   1.000  H
  H17      1.0000 0.67500  0.19780  0.52840  Biso   1.000  H
  H18      1.0000 0.66800  0.39320  0.52220  Biso   1.000  H
  H19      1.0000 0.70100  0.30110  0.21380  Biso   1.000  H
  H20      1.0000 0.71570  0.09880  0.22240  Biso   1.000  H
  H21      1.0000 0.49140  0.52540  0.42520  Biso   1.000  H
  H22      1.0000 0.46130  0.72610  0.41720  Biso   1.000  H
  H23      1.0000 0.87310  0.72580  0.31900  Biso   1.000  H
  H24      1.0000 0.90280  0.52510  0.32680  Biso   1.000  H
  H25      1.0000 0.99900  0.89200  0.35600  Biso   1.000  H
  H26      1.0000 0.95800  0.00300  0.32200  Biso   1.000  H
  C1       1.0000 0.34050  0.00570  0.39020  Biso   1.000  C
  C2       1.0000 0.28000  0.05230  0.28760  Biso   1.000  C
  C3       1.0000 0.31600  0.00130  0.19240  Biso   1.000  C
  C4       1.0000 0.25480  0.04920  0.09640  Biso   1.000  C
  C5       1.0000 0.17640  0.15330  0.10220  Biso   1.000  C
  C6       1.0000 0.15190  0.21030  0.20560  Biso   1.000  C
  C7       1.0000 0.20490  0.16360  0.29560  Biso   1.000  C
  C8       1.0000 0.21830  0.78250  0.53560  Biso   1.000  C
  C9       1.0000 0.21760  0.66550  0.53920  Biso   1.000  C
  C10      1.0000 0.32060  0.62930  0.63180  Biso   1.000  C
  C11      1.0000 0.41990  0.71890  0.72120  Biso   1.000  C
  C12      1.0000 0.42210  0.84150  0.71660  Biso   1.000  C
  C13      1.0000 0.32330  0.49470  0.62320  Biso   1.000  C
  C14      1.0000 0.16400  0.43450  0.59620  Biso   1.000  C
  C15      1.0000 0.15070  0.31420  0.60080  Biso   1.000  C
  C16      1.0000 0.45630  0.31440  0.65980  Biso   1.000  C
  C17      1.0000 0.46930  0.43460  0.65500  Biso   1.000  C
  C18      1.0000 0.39420  0.88270  0.17100  Biso   1.000  C
  C19      1.0000 0.95030  0.99430  0.60980  Biso   1.000  C
  C20      1.0000 0.99240  0.94770  0.71240  Biso   1.000  C
  C21      1.0000 0.12360  0.99870  0.80760  Biso   1.000  C
  C22      1.0000 0.15840  0.95080  0.90360  Biso   1.000  C
  C23      1.0000 0.07420  0.84670  0.89780  Biso   1.000  C
  C24      1.0000 0.94630  0.78970  0.79440  Biso   1.000  C
  C25      1.0000 0.90930  0.83640  0.70440  Biso   1.000  C
  C26      1.0000 0.68270  0.21750  0.46440  Biso   1.000  C
  C27      1.0000 0.67840  0.33450  0.46080  Biso   1.000  C
  C28      1.0000 0.68880  0.37070  0.36820  Biso   1.000  C
  C29      1.0000 0.69870  0.28110  0.27880  Biso   1.000  C
  C30      1.0000 0.70550  0.15850  0.28340  Biso   1.000  C
  C31      1.0000 0.70010  0.50530  0.37680  Biso   1.000  C
  C32      1.0000 0.56780  0.56550  0.40380  Biso   1.000  C
  C33      1.0000 0.54990  0.68580  0.39920  Biso   1.000  C
  C34      1.0000 0.79650  0.68560  0.34020  Biso   1.000  C
  C35      1.0000 0.81430  0.56540  0.34500  Biso   1.000  C
  C36      1.0000 0.22320  0.11730  0.82900  Biso   1.000  C
  N1       1.0000 0.29670  0.25420  0.63260  Biso   1.000  N
  N2       1.0000 0.31870  0.87170  0.62100  Biso   1.000  N
  N3       1.0000 0.66410  0.74580  0.36740  Biso   1.000  N
  N4       1.0000 0.69770  0.12830  0.37900  Biso   1.000  N
  O1       1.0000 0.26728  0.03480  0.45676  Biso   1.000  O
  O2       1.0000 0.46459  0.94950  0.40438  Biso   1.000  O
  O3       1.0000 0.29453  0.79000  0.13646  Biso   1.000  O
  O4       1.0000 0.55693  0.88880  0.19746  Biso   1.000  O
  O5       1.0000 0.58128  0.07380  0.68116  Biso   1.000  O
  O6       1.0000 0.81052  0.96520  0.54324  Biso   1.000  O
  O7       1.0000 0.06021  0.05050  0.59562  Biso   1.000  O
  O8       1.0000 0.15807  0.21000  0.86354  Biso   1.000  O
  O9       1.0000 0.35947  0.11120  0.80254  Biso   1.000  O
  O10      1.0000 0.90012  0.92620  0.31884  Biso   1.000  O
  O11      1.0000 0.29820  0.00000  0.00000  Biso   1.000  O
