data_image0
_cell_length_a       8.24202
_cell_length_b       11.259
_cell_length_c       12.8981
_cell_angle_alpha    104.239
_cell_angle_beta     108.633
_cell_angle_gamma    90

_symmetry_space_group_name_H-M    P 1
_symmetry_int_tables_number       1

loop_
  _symmetry_equiv_pos_as_xyz
  'x, y, z'

loop_
  _atom_site_label
  _atom_site_occupancy
  _atom_site_fract_x
  _atom_site_fract_y
  _atom_site_fract_z
  _atom_site_thermal_displace_type
  _atom_site_B_iso_or_equiv
  _atom_site_type_symbol
  Ni1      1.0000 0.49144  0.43674  0.37130  Biso   1.000  Ni
  Ni2      1.0000 0.12014  0.56326  0.62870  Biso   1.000  Ni
  H1       1.0000 0.99850  0.70070  0.35680  Biso   1.000  H
  H2       1.0000 0.92640  0.78790  0.20520  Biso   1.000  H
  H3       1.0000 0.70750  0.69330  0.03980  Biso   1.000  H
  H4       1.0000 0.32030  0.59800  0.22340  Biso   1.000  H
  H5       1.0000 0.31420  0.79560  0.21680  Biso   1.000  H
  H6       1.0000 0.66180  0.88950  0.52860  Biso   1.000  H
  H7       1.0000 0.64850  0.68940  0.52900  Biso   1.000  H
  H8       1.0000 0.73620  0.25530  0.46400  Biso   1.000  H
  H9       1.0000 0.73900  0.05420  0.46960  Biso   1.000  H
  H10      1.0000 0.25310  0.99300  0.26180  Biso   1.000  H
  H11      1.0000 0.26460  0.19700  0.25820  Biso   1.000  H
  H12      1.0000 0.19920  0.49830  0.34800  Biso   1.000  H
  H13      1.0000 0.18430  0.38330  0.27760  Biso   1.000  H
  H14      1.0000 0.64170  0.29930  0.64320  Biso   1.000  H
  H15      1.0000 0.72120  0.21210  0.79480  Biso   1.000  H
  H16      1.0000 0.66770  0.30670  0.96020  Biso   1.000  H
  H17      1.0000 0.09690  0.40200  0.77660  Biso   1.000  H
  H18      1.0000 0.09740  0.20440  0.78320  Biso   1.000  H
  H19      1.0000 0.13320  0.11050  0.47140  Biso   1.000  H
  H20      1.0000 0.11950  0.31060  0.47100  Biso   1.000  H
  H21      1.0000 0.27220  0.74470  0.53600  Biso   1.000  H
  H22      1.0000 0.26940  0.94580  0.53040  Biso   1.000  H
  H23      1.0000 0.99130  0.00700  0.73820  Biso   1.000  H
  H24      1.0000 0.00640  0.80300  0.74180  Biso   1.000  H
  H25      1.0000 0.85120  0.50170  0.65200  Biso   1.000  H
  H26      1.0000 0.90670  0.61670  0.72240  Biso   1.000  H
  C1       1.0000 0.64320  0.55530  0.09660  Biso   1.000  C
  C2       1.0000 0.68390  0.50030  0.18860  Biso   1.000  C
  C3       1.0000 0.81630  0.55880  0.28700  Biso   1.000  C
  C4       1.0000 0.90760  0.66410  0.29140  Biso   1.000  C
  C5       1.0000 0.86590  0.71580  0.20020  Biso   1.000  C
  C6       1.0000 0.73430  0.66020  0.10180  Biso   1.000  C
  C7       1.0000 0.58540  0.38270  0.17760  Biso   1.000  C
  C8       1.0000 0.86040  0.50960  0.39120  Biso   1.000  C
  C9       1.0000 0.38980  0.65750  0.28580  Biso   1.000  C
  C10      1.0000 0.38790  0.77560  0.28020  Biso   1.000  C
  C11      1.0000 0.49640  0.86880  0.36960  Biso   1.000  C
  C12      1.0000 0.59200  0.83190  0.46480  Biso   1.000  C
  C13      1.0000 0.58300  0.71120  0.46420  Biso   1.000  C
  C14      1.0000 0.63700  0.20300  0.42300  Biso   1.000  C
  C15      1.0000 0.63930  0.08070  0.42640  Biso   1.000  C
  C16      1.0000 0.50060  0.99900  0.36840  Biso   1.000  C
  C17      1.0000 0.35290  0.04440  0.30340  Biso   1.000  C
  C18      1.0000 0.36070  0.16830  0.30300  Biso   1.000  C
  C19      1.0000 0.54660  0.44470  0.90340  Biso   1.000  C
  C20      1.0000 0.49530  0.49970  0.81140  Biso   1.000  C
  C21      1.0000 0.52930  0.44120  0.71300  Biso   1.000  C
  C22      1.0000 0.61620  0.33590  0.70860  Biso   1.000  C
  C23      1.0000 0.66570  0.28420  0.79980  Biso   1.000  C
  C24      1.0000 0.63250  0.33980  0.89820  Biso   1.000  C
  C25      1.0000 0.40780  0.61730  0.82240  Biso   1.000  C
  C26      1.0000 0.46920  0.49040  0.60880  Biso   1.000  C
  C27      1.0000 0.10400  0.34250  0.71420  Biso   1.000  C
  C28      1.0000 0.10770  0.22440  0.71980  Biso   1.000  C
  C29      1.0000 0.12680  0.13120  0.63040  Biso   1.000  C
  C30      1.0000 0.12720  0.16810  0.53520  Biso   1.000  C
  C31      1.0000 0.11880  0.28880  0.53580  Biso   1.000  C
  C32      1.0000 0.21400  0.79700  0.57700  Biso   1.000  C
  C33      1.0000 0.21290  0.91930  0.57360  Biso   1.000  C
  C34      1.0000 0.13220  0.00100  0.63160  Biso   1.000  C
  C35      1.0000 0.04950  0.95560  0.69660  Biso   1.000  C
  C36      1.0000 0.05770  0.83170  0.69700  Biso   1.000  C
  N1       1.0000 0.48602  0.62070  0.37624  Biso   1.000  N
  N2       1.0000 0.49931  0.24890  0.36402  Biso   1.000  N
  N3       1.0000 0.10978  0.37930  0.62376  Biso   1.000  N
  N4       1.0000 0.13529  0.75110  0.63598  Biso   1.000  N
  O1       1.0000 0.44471  0.38610  0.19722  Biso   1.000  O
  O2       1.0000 0.64405  0.28440  0.13890  Biso   1.000  O
  O3       1.0000 0.75352  0.44800  0.40824  Biso   1.000  O
  O4       1.0000 0.01337  0.53760  0.45694  Biso   1.000  O
  O5       1.0000 0.23351  0.42650  0.34162  Biso   1.000  O
  O6       1.0000 0.24749  0.61390  0.80278  Biso   1.000  O
  O7       1.0000 0.50515  0.71560  0.86110  Biso   1.000  O
  O8       1.0000 0.34528  0.55200  0.59176  Biso   1.000  O
  O9       1.0000 0.55643  0.46240  0.54306  Biso   1.000  O
  O10      1.0000 0.89189  0.57350  0.65838  Biso   1.000  O
  O11      1.0000 0.50360  0.50000  1.00000  Biso   1.000  O
