data_image0
_cell_length_a       22.0306
_cell_length_b       22.0306
_cell_length_c       22.0306
_cell_angle_alpha    109.471
_cell_angle_beta     109.471
_cell_angle_gamma    109.471

_symmetry_space_group_name_H-M    P 1
_symmetry_int_tables_number       1

loop_
  _symmetry_equiv_pos_as_xyz
  'x, y, z'

loop_
  _atom_site_label
  _atom_site_occupancy
  _atom_site_fract_x
  _atom_site_fract_y
  _atom_site_fract_z
  _atom_site_thermal_displace_type
  _atom_site_B_iso_or_equiv
  _atom_site_type_symbol
  Co1      1.0000 0.40760  0.90760  0.50000  Biso   1.000  Co
  Co2      1.0000 0.59240  0.09240  0.50000  Biso   1.000  Co
  Co3      1.0000 0.50000  0.59240  0.09240  Biso   1.000  Co
  Co4      1.0000 0.50000  0.40760  0.90760  Biso   1.000  Co
  Co5      1.0000 0.90760  0.50000  0.40760  Biso   1.000  Co
  Co6      1.0000 0.09240  0.50000  0.59240  Biso   1.000  Co
  Co7      1.0000 0.09240  0.59240  0.50000  Biso   1.000  Co
  Co8      1.0000 0.90760  0.40760  0.50000  Biso   1.000  Co
  Co9      1.0000 0.40760  0.50000  0.90760  Biso   1.000  Co
  Co10     1.0000 0.59240  0.50000  0.09240  Biso   1.000  Co
  Co11     1.0000 0.50000  0.09240  0.59240  Biso   1.000  Co
  Co12     1.0000 0.50000  0.90760  0.40760  Biso   1.000  Co
  H1       1.0000 0.80100  0.56270  0.11210  Biso   1.000  H
  H2       1.0000 0.90850  0.57300  0.10710  Biso   1.000  H
  H3       1.0000 0.45060  0.68890  0.88790  Biso   1.000  H
  H4       1.0000 0.46590  0.80140  0.89290  Biso   1.000  H
  H5       1.0000 0.54940  0.43730  0.23830  Biso   1.000  H
  H6       1.0000 0.53410  0.42700  0.33550  Biso   1.000  H
  H7       1.0000 0.19900  0.31110  0.76170  Biso   1.000  H
  H8       1.0000 0.09150  0.19860  0.66450  Biso   1.000  H
  H9       1.0000 0.23830  0.54940  0.43730  Biso   1.000  H
  H10      1.0000 0.33550  0.53410  0.42700  Biso   1.000  H
  H11      1.0000 0.76170  0.19900  0.31110  Biso   1.000  H
  H12      1.0000 0.66450  0.09150  0.19860  Biso   1.000  H
  H13      1.0000 0.11210  0.80100  0.56270  Biso   1.000  H
  H14      1.0000 0.10710  0.90850  0.57300  Biso   1.000  H
  H15      1.0000 0.88790  0.45060  0.68890  Biso   1.000  H
  H16      1.0000 0.89290  0.46590  0.80140  Biso   1.000  H
  H17      1.0000 0.68890  0.88790  0.45060  Biso   1.000  H
  H18      1.0000 0.80140  0.89290  0.46590  Biso   1.000  H
  H19      1.0000 0.56270  0.11210  0.80100  Biso   1.000  H
  H20      1.0000 0.57300  0.10710  0.90850  Biso   1.000  H
  H21      1.0000 0.31110  0.76170  0.19900  Biso   1.000  H
  H22      1.0000 0.19860  0.66450  0.09150  Biso   1.000  H
  H23      1.0000 0.43730  0.23830  0.54940  Biso   1.000  H
  H24      1.0000 0.42700  0.33550  0.53410  Biso   1.000  H
  H25      1.0000 0.43730  0.19900  0.88790  Biso   1.000  H
  H26      1.0000 0.42700  0.09150  0.89290  Biso   1.000  H
  H27      1.0000 0.31110  0.54940  0.11210  Biso   1.000  H
  H28      1.0000 0.19860  0.53410  0.10710  Biso   1.000  H
  H29      1.0000 0.56270  0.45060  0.76170  Biso   1.000  H
  H30      1.0000 0.57300  0.46590  0.66450  Biso   1.000  H
  H31      1.0000 0.68890  0.80100  0.23830  Biso   1.000  H
  H32      1.0000 0.80140  0.90850  0.33550  Biso   1.000  H
  H33      1.0000 0.45060  0.76170  0.56270  Biso   1.000  H
  H34      1.0000 0.46590  0.66450  0.57300  Biso   1.000  H
  H35      1.0000 0.80100  0.23830  0.68890  Biso   1.000  H
  H36      1.0000 0.90850  0.33550  0.80140  Biso   1.000  H
  H37      1.0000 0.19900  0.88790  0.43730  Biso   1.000  H
  H38      1.0000 0.09150  0.89290  0.42700  Biso   1.000  H
  H39      1.0000 0.54940  0.11210  0.31110  Biso   1.000  H
  H40      1.0000 0.53410  0.10710  0.19860  Biso   1.000  H
  H41      1.0000 0.11210  0.31110  0.54940  Biso   1.000  H
  H42      1.0000 0.10710  0.19860  0.53410  Biso   1.000  H
  H43      1.0000 0.88790  0.43730  0.19900  Biso   1.000  H
  H44      1.0000 0.89290  0.42700  0.09150  Biso   1.000  H
  H45      1.0000 0.23830  0.68890  0.80100  Biso   1.000  H
  H46      1.0000 0.33550  0.80140  0.90850  Biso   1.000  H
  H47      1.0000 0.76170  0.56270  0.45060  Biso   1.000  H
  H48      1.0000 0.66450  0.57300  0.46590  Biso   1.000  H
  H49      1.0000 0.19900  0.43730  0.88790  Biso   1.000  H
  H50      1.0000 0.09150  0.42700  0.89290  Biso   1.000  H
  H51      1.0000 0.54940  0.31110  0.11210  Biso   1.000  H
  H52      1.0000 0.53410  0.19860  0.10710  Biso   1.000  H
  H53      1.0000 0.45060  0.56270  0.76170  Biso   1.000  H
  H54      1.0000 0.46590  0.57300  0.66450  Biso   1.000  H
  H55      1.0000 0.80100  0.68890  0.23830  Biso   1.000  H
  H56      1.0000 0.90850  0.80140  0.33550  Biso   1.000  H
  H57      1.0000 0.76170  0.45060  0.56270  Biso   1.000  H
  H58      1.0000 0.66450  0.46590  0.57300  Biso   1.000  H
  H59      1.0000 0.23830  0.80100  0.68890  Biso   1.000  H
  H60      1.0000 0.33550  0.90850  0.80140  Biso   1.000  H
  H61      1.0000 0.88790  0.19900  0.43730  Biso   1.000  H
  H62      1.0000 0.89290  0.09150  0.42700  Biso   1.000  H
  H63      1.0000 0.11210  0.54940  0.31110  Biso   1.000  H
  H64      1.0000 0.10710  0.53410  0.19860  Biso   1.000  H
  H65      1.0000 0.31110  0.11210  0.54940  Biso   1.000  H
  H66      1.0000 0.19860  0.10710  0.53410  Biso   1.000  H
  H67      1.0000 0.43730  0.88790  0.19900  Biso   1.000  H
  H68      1.0000 0.42700  0.89290  0.09150  Biso   1.000  H
  H69      1.0000 0.68890  0.23830  0.80100  Biso   1.000  H
  H70      1.0000 0.80140  0.33550  0.90850  Biso   1.000  H
  H71      1.0000 0.56270  0.76170  0.45060  Biso   1.000  H
  H72      1.0000 0.57300  0.66450  0.46590  Biso   1.000  H
  H73      1.0000 0.56270  0.80100  0.11210  Biso   1.000  H
  H74      1.0000 0.57300  0.90850  0.10710  Biso   1.000  H
  H75      1.0000 0.68890  0.45060  0.88790  Biso   1.000  H
  H76      1.0000 0.80140  0.46590  0.89290  Biso   1.000  H
  H77      1.0000 0.43730  0.54940  0.23830  Biso   1.000  H
  H78      1.0000 0.42700  0.53410  0.33550  Biso   1.000  H
  H79      1.0000 0.31110  0.19900  0.76170  Biso   1.000  H
  H80      1.0000 0.19860  0.09150  0.66450  Biso   1.000  H
  H81      1.0000 0.54940  0.23830  0.43730  Biso   1.000  H
  H82      1.0000 0.53410  0.33550  0.42700  Biso   1.000  H
  H83      1.0000 0.19900  0.76170  0.31110  Biso   1.000  H
  H84      1.0000 0.09150  0.66450  0.19860  Biso   1.000  H
  H85      1.0000 0.80100  0.11210  0.56270  Biso   1.000  H
  H86      1.0000 0.90850  0.10710  0.57300  Biso   1.000  H
  H87      1.0000 0.45060  0.88790  0.68890  Biso   1.000  H
  H88      1.0000 0.46590  0.89290  0.80140  Biso   1.000  H
  H89      1.0000 0.88790  0.68890  0.45060  Biso   1.000  H
  H90      1.0000 0.89290  0.80140  0.46590  Biso   1.000  H
  H91      1.0000 0.11210  0.56270  0.80100  Biso   1.000  H
  H92      1.0000 0.10710  0.57300  0.90850  Biso   1.000  H
  H93      1.0000 0.76170  0.31110  0.19900  Biso   1.000  H
  H94      1.0000 0.66450  0.19860  0.09150  Biso   1.000  H
  H95      1.0000 0.23830  0.43730  0.54940  Biso   1.000  H
  H96      1.0000 0.33550  0.42700  0.53410  Biso   1.000  H
  C1       1.0000 0.80020  0.54370  0.06710  Biso   1.000  C
  C2       1.0000 0.86520  0.55470  0.06370  Biso   1.000  C
  C3       1.0000 0.47660  0.73310  0.93290  Biso   1.000  C
  C4       1.0000 0.49100  0.80150  0.93630  Biso   1.000  C
  C5       1.0000 0.52340  0.45630  0.25650  Biso   1.000  C
  C6       1.0000 0.50900  0.44530  0.31050  Biso   1.000  C
  C7       1.0000 0.19980  0.26690  0.74350  Biso   1.000  C
  C8       1.0000 0.13480  0.19850  0.68950  Biso   1.000  C
  C9       1.0000 0.25650  0.52340  0.45630  Biso   1.000  C
  C10      1.0000 0.31050  0.50900  0.44530  Biso   1.000  C
  C11      1.0000 0.74350  0.19980  0.26690  Biso   1.000  C
  C12      1.0000 0.68950  0.13480  0.19850  Biso   1.000  C
  C13      1.0000 0.06710  0.80020  0.54370  Biso   1.000  C
  C14      1.0000 0.06370  0.86520  0.55470  Biso   1.000  C
  C15      1.0000 0.93290  0.47660  0.73310  Biso   1.000  C
  C16      1.0000 0.93630  0.49100  0.80150  Biso   1.000  C
  C17      1.0000 0.73310  0.93290  0.47660  Biso   1.000  C
  C18      1.0000 0.80150  0.93630  0.49100  Biso   1.000  C
  C19      1.0000 0.54370  0.06710  0.80020  Biso   1.000  C
  C20      1.0000 0.55470  0.06370  0.86520  Biso   1.000  C
  C21      1.0000 0.26690  0.74350  0.19980  Biso   1.000  C
  C22      1.0000 0.19850  0.68950  0.13480  Biso   1.000  C
  C23      1.0000 0.45630  0.25650  0.52340  Biso   1.000  C
  C24      1.0000 0.44530  0.31050  0.50900  Biso   1.000  C
  C25      1.0000 0.45630  0.19980  0.93290  Biso   1.000  C
  C26      1.0000 0.44530  0.13480  0.93630  Biso   1.000  C
  C27      1.0000 0.26690  0.52340  0.06710  Biso   1.000  C
  C28      1.0000 0.19850  0.50900  0.06370  Biso   1.000  C
  C29      1.0000 0.54370  0.47660  0.74350  Biso   1.000  C
  C30      1.0000 0.55470  0.49100  0.68950  Biso   1.000  C
  C31      1.0000 0.73310  0.80020  0.25650  Biso   1.000  C
  C32      1.0000 0.80150  0.86520  0.31050  Biso   1.000  C
  C33      1.0000 0.47660  0.74350  0.54370  Biso   1.000  C
  C34      1.0000 0.49100  0.68950  0.55470  Biso   1.000  C
  C35      1.0000 0.80020  0.25650  0.73310  Biso   1.000  C
  C36      1.0000 0.86520  0.31050  0.80150  Biso   1.000  C
  C37      1.0000 0.19980  0.93290  0.45630  Biso   1.000  C
  C38      1.0000 0.13480  0.93630  0.44530  Biso   1.000  C
  C39      1.0000 0.52340  0.06710  0.26690  Biso   1.000  C
  C40      1.0000 0.50900  0.06370  0.19850  Biso   1.000  C
  C41      1.0000 0.06710  0.26690  0.52340  Biso   1.000  C
  C42      1.0000 0.06370  0.19850  0.50900  Biso   1.000  C
  C43      1.0000 0.93290  0.45630  0.19980  Biso   1.000  C
  C44      1.0000 0.93630  0.44530  0.13480  Biso   1.000  C
  C45      1.0000 0.25650  0.73310  0.80020  Biso   1.000  C
  C46      1.0000 0.31050  0.80150  0.86520  Biso   1.000  C
  C47      1.0000 0.74350  0.54370  0.47660  Biso   1.000  C
  C48      1.0000 0.68950  0.55470  0.49100  Biso   1.000  C
  C49      1.0000 0.19980  0.45630  0.93290  Biso   1.000  C
  C50      1.0000 0.13480  0.44530  0.93630  Biso   1.000  C
  C51      1.0000 0.52340  0.26690  0.06710  Biso   1.000  C
  C52      1.0000 0.50900  0.19850  0.06370  Biso   1.000  C
  C53      1.0000 0.47660  0.54370  0.74350  Biso   1.000  C
  C54      1.0000 0.49100  0.55470  0.68950  Biso   1.000  C
  C55      1.0000 0.80020  0.73310  0.25650  Biso   1.000  C
  C56      1.0000 0.86520  0.80150  0.31050  Biso   1.000  C
  C57      1.0000 0.74350  0.47660  0.54370  Biso   1.000  C
  C58      1.0000 0.68950  0.49100  0.55470  Biso   1.000  C
  C59      1.0000 0.25650  0.80020  0.73310  Biso   1.000  C
  C60      1.0000 0.31050  0.86520  0.80150  Biso   1.000  C
  C61      1.0000 0.93290  0.19980  0.45630  Biso   1.000  C
  C62      1.0000 0.93630  0.13480  0.44530  Biso   1.000  C
  C63      1.0000 0.06710  0.52340  0.26690  Biso   1.000  C
  C64      1.0000 0.06370  0.50900  0.19850  Biso   1.000  C
  C65      1.0000 0.26690  0.06710  0.52340  Biso   1.000  C
  C66      1.0000 0.19850  0.06370  0.50900  Biso   1.000  C
  C67      1.0000 0.45630  0.93290  0.19980  Biso   1.000  C
  C68      1.0000 0.44530  0.93630  0.13480  Biso   1.000  C
  C69      1.0000 0.73310  0.25650  0.80020  Biso   1.000  C
  C70      1.0000 0.80150  0.31050  0.86520  Biso   1.000  C
  C71      1.0000 0.54370  0.74350  0.47660  Biso   1.000  C
  C72      1.0000 0.55470  0.68950  0.49100  Biso   1.000  C
  C73      1.0000 0.54370  0.80020  0.06710  Biso   1.000  C
  C74      1.0000 0.55470  0.86520  0.06370  Biso   1.000  C
  C75      1.0000 0.73310  0.47660  0.93290  Biso   1.000  C
  C76      1.0000 0.80150  0.49100  0.93630  Biso   1.000  C
  C77      1.0000 0.45630  0.52340  0.25650  Biso   1.000  C
  C78      1.0000 0.44530  0.50900  0.31050  Biso   1.000  C
  C79      1.0000 0.26690  0.19980  0.74350  Biso   1.000  C
  C80      1.0000 0.19850  0.13480  0.68950  Biso   1.000  C
  C81      1.0000 0.52340  0.25650  0.45630  Biso   1.000  C
  C82      1.0000 0.50900  0.31050  0.44530  Biso   1.000  C
  C83      1.0000 0.19980  0.74350  0.26690  Biso   1.000  C
  C84      1.0000 0.13480  0.68950  0.19850  Biso   1.000  C
  C85      1.0000 0.80020  0.06710  0.54370  Biso   1.000  C
  C86      1.0000 0.86520  0.06370  0.55470  Biso   1.000  C
  C87      1.0000 0.47660  0.93290  0.73310  Biso   1.000  C
  C88      1.0000 0.49100  0.93630  0.80150  Biso   1.000  C
  C89      1.0000 0.93290  0.73310  0.47660  Biso   1.000  C
  C90      1.0000 0.93630  0.80150  0.49100  Biso   1.000  C
  C91      1.0000 0.06710  0.54370  0.80020  Biso   1.000  C
  C92      1.0000 0.06370  0.55470  0.86520  Biso   1.000  C
  C93      1.0000 0.74350  0.26690  0.19980  Biso   1.000  C
  C94      1.0000 0.68950  0.19850  0.13480  Biso   1.000  C
  C95      1.0000 0.25650  0.45630  0.52340  Biso   1.000  C
  C96      1.0000 0.31050  0.44530  0.50900  Biso   1.000  C
  C97      1.0000 0.66400  0.48000  0.00000  Biso   1.000  C
  C98      1.0000 0.73510  0.50310  0.00000  Biso   1.000  C
  C99      1.0000 0.86760  0.53980  0.00000  Biso   1.000  C
  C100     1.0000 0.93840  0.55700  0.00000  Biso   1.000  C
  C101     1.0000 0.48000  0.66400  0.00000  Biso   1.000  C
  C102     1.0000 0.50310  0.73510  0.00000  Biso   1.000  C
  C103     1.0000 0.53980  0.86760  0.00000  Biso   1.000  C
  C104     1.0000 0.55700  0.93840  0.00000  Biso   1.000  C
  C105     1.0000 0.52000  0.52000  0.18400  Biso   1.000  C
  C106     1.0000 0.49690  0.49690  0.23200  Biso   1.000  C
  C107     1.0000 0.46020  0.46020  0.32780  Biso   1.000  C
  C108     1.0000 0.44300  0.44300  0.38140  Biso   1.000  C
  C109     1.0000 0.33600  0.33600  0.81600  Biso   1.000  C
  C110     1.0000 0.26490  0.26490  0.76800  Biso   1.000  C
  C111     1.0000 0.13240  0.13240  0.67220  Biso   1.000  C
  C112     1.0000 0.06160  0.06160  0.61860  Biso   1.000  C
  C113     1.0000 0.18400  0.52000  0.52000  Biso   1.000  C
  C114     1.0000 0.23200  0.49690  0.49690  Biso   1.000  C
  C115     1.0000 0.32780  0.46020  0.46020  Biso   1.000  C
  C116     1.0000 0.38140  0.44300  0.44300  Biso   1.000  C
  C117     1.0000 0.81600  0.33600  0.33600  Biso   1.000  C
  C118     1.0000 0.76800  0.26490  0.26490  Biso   1.000  C
  C119     1.0000 0.67220  0.13240  0.13240  Biso   1.000  C
  C120     1.0000 0.61860  0.06160  0.06160  Biso   1.000  C
  C121     1.0000 0.00000  0.66400  0.48000  Biso   1.000  C
  C122     1.0000 0.00000  0.73510  0.50310  Biso   1.000  C
  C123     1.0000 0.00000  0.86760  0.53980  Biso   1.000  C
  C124     1.0000 0.00000  0.93840  0.55700  Biso   1.000  C
  C125     1.0000 0.00000  0.48000  0.66400  Biso   1.000  C
  C126     1.0000 0.00000  0.50310  0.73510  Biso   1.000  C
  C127     1.0000 0.00000  0.53980  0.86760  Biso   1.000  C
  C128     1.0000 0.00000  0.55700  0.93840  Biso   1.000  C
  C129     1.0000 0.66400  0.00000  0.48000  Biso   1.000  C
  C130     1.0000 0.73510  0.00000  0.50310  Biso   1.000  C
  C131     1.0000 0.86760  0.00000  0.53980  Biso   1.000  C
  C132     1.0000 0.93840  1.00000  0.55700  Biso   1.000  C
  C133     1.0000 0.48000  0.00000  0.66400  Biso   1.000  C
  C134     1.0000 0.50310  1.00000  0.73510  Biso   1.000  C
  C135     1.0000 0.53980  0.00000  0.86760  Biso   1.000  C
  C136     1.0000 0.55700  0.00000  0.93840  Biso   1.000  C
  C137     1.0000 0.33600  0.81600  0.33600  Biso   1.000  C
  C138     1.0000 0.26490  0.76800  0.26490  Biso   1.000  C
  C139     1.0000 0.13240  0.67220  0.13240  Biso   1.000  C
  C140     1.0000 0.06160  0.61860  0.06160  Biso   1.000  C
  C141     1.0000 0.52000  0.18400  0.52000  Biso   1.000  C
  C142     1.0000 0.49690  0.23200  0.49690  Biso   1.000  C
  C143     1.0000 0.46020  0.32780  0.46020  Biso   1.000  C
  C144     1.0000 0.44300  0.38140  0.44300  Biso   1.000  C
  C145     1.0000 0.52000  0.33600  0.00000  Biso   1.000  C
  C146     1.0000 0.49690  0.26490  0.00000  Biso   1.000  C
  C147     1.0000 0.46020  0.13240  0.00000  Biso   1.000  C
  C148     1.0000 0.44300  0.06160  0.00000  Biso   1.000  C
  C149     1.0000 0.33600  0.52000  0.00000  Biso   1.000  C
  C150     1.0000 0.26490  0.49690  0.00000  Biso   1.000  C
  C151     1.0000 0.13240  0.46020  0.00000  Biso   1.000  C
  C152     1.0000 0.06160  0.44300  0.00000  Biso   1.000  C
  C153     1.0000 0.48000  0.48000  0.81600  Biso   1.000  C
  C154     1.0000 0.50310  0.50310  0.76800  Biso   1.000  C
  C155     1.0000 0.53980  0.53980  0.67220  Biso   1.000  C
  C156     1.0000 0.55700  0.55700  0.61860  Biso   1.000  C
  C157     1.0000 0.66400  0.66400  0.18400  Biso   1.000  C
  C158     1.0000 0.73510  0.73510  0.23200  Biso   1.000  C
  C159     1.0000 0.86760  0.86760  0.32780  Biso   1.000  C
  C160     1.0000 0.93840  0.93840  0.38140  Biso   1.000  C
  C161     1.0000 0.48000  0.81600  0.48000  Biso   1.000  C
  C162     1.0000 0.50310  0.76800  0.50310  Biso   1.000  C
  C163     1.0000 0.53980  0.67220  0.53980  Biso   1.000  C
  C164     1.0000 0.55700  0.61860  0.55700  Biso   1.000  C
  C165     1.0000 0.66400  0.18400  0.66400  Biso   1.000  C
  C166     1.0000 0.73510  0.23200  0.73510  Biso   1.000  C
  C167     1.0000 0.86760  0.32780  0.86760  Biso   1.000  C
  C168     1.0000 0.93840  0.38140  0.93840  Biso   1.000  C
  C169     1.0000 0.33600  0.00000  0.52000  Biso   1.000  C
  C170     1.0000 0.26490  0.00000  0.49690  Biso   1.000  C
  C171     1.0000 0.13240  0.00000  0.46020  Biso   1.000  C
  C172     1.0000 0.06160  0.00000  0.44300  Biso   1.000  C
  C173     1.0000 0.52000  0.00000  0.33600  Biso   1.000  C
  C174     1.0000 0.49690  0.00000  0.26490  Biso   1.000  C
  C175     1.0000 0.46020  0.00000  0.13240  Biso   1.000  C
  C176     1.0000 0.44300  0.00000  0.06160  Biso   1.000  C
  C177     1.0000 0.00000  0.33600  0.52000  Biso   1.000  C
  C178     1.0000 0.00000  0.26490  0.49690  Biso   1.000  C
  C179     1.0000 0.00000  0.13240  0.46020  Biso   1.000  C
  C180     1.0000 0.00000  0.06160  0.44300  Biso   1.000  C
  C181     1.0000 0.00000  0.52000  0.33600  Biso   1.000  C
  C182     1.0000 0.00000  0.49690  0.26490  Biso   1.000  C
  C183     1.0000 0.00000  0.46020  0.13240  Biso   1.000  C
  C184     1.0000 0.00000  0.44300  0.06160  Biso   1.000  C
  C185     1.0000 0.18400  0.66400  0.66400  Biso   1.000  C
  C186     1.0000 0.23200  0.73510  0.73510  Biso   1.000  C
  C187     1.0000 0.32780  0.86760  0.86760  Biso   1.000  C
  C188     1.0000 0.38140  0.93840  0.93840  Biso   1.000  C
  C189     1.0000 0.81600  0.48000  0.48000  Biso   1.000  C
  C190     1.0000 0.76800  0.50310  0.50310  Biso   1.000  C
  C191     1.0000 0.67220  0.53980  0.53980  Biso   1.000  C
  C192     1.0000 0.61860  0.55700  0.55700  Biso   1.000  C
  N1       1.0000 0.00000  0.60110  0.06470  Biso   1.000  N
  N2       1.0000 0.53640  0.93530  0.93530  Biso   1.000  N
  N3       1.0000 0.46360  0.39890  0.39890  Biso   1.000  N
  N4       1.0000 0.00000  0.06470  0.60110  Biso   1.000  N
  N5       1.0000 0.39890  0.46360  0.39890  Biso   1.000  N
  N6       1.0000 0.60110  0.00000  0.06470  Biso   1.000  N
  N7       1.0000 0.06470  0.00000  0.60110  Biso   1.000  N
  N8       1.0000 0.93530  0.53640  0.93530  Biso   1.000  N
  N9       1.0000 0.93530  0.93530  0.53640  Biso   1.000  N
  N10      1.0000 0.60110  0.06470  0.00000  Biso   1.000  N
  N11      1.0000 0.06470  0.60110  0.00000  Biso   1.000  N
  N12      1.0000 0.39890  0.39890  0.46360  Biso   1.000  N
  N13      1.0000 0.39890  0.00000  0.93530  Biso   1.000  N
  N14      1.0000 0.06470  0.46360  0.06470  Biso   1.000  N
  N15      1.0000 0.60110  0.53640  0.60110  Biso   1.000  N
  N16      1.0000 0.93530  1.00000  0.39890  Biso   1.000  N
  N17      1.0000 0.53640  0.60110  0.60110  Biso   1.000  N
  N18      1.0000 0.00000  0.39890  0.93530  Biso   1.000  N
  N19      1.0000 0.00000  0.93530  0.39890  Biso   1.000  N
  N20      1.0000 0.46360  0.06470  0.06470  Biso   1.000  N
  N21      1.0000 0.06470  0.06470  0.46360  Biso   1.000  N
  N22      1.0000 0.93530  0.39890  0.00000  Biso   1.000  N
  N23      1.0000 0.39890  0.93530  0.00000  Biso   1.000  N
  N24      1.0000 0.60110  0.60110  0.53640  Biso   1.000  N
  O1       1.0000 0.66300  0.49920  0.05680  Biso   1.000  O
  O2       1.0000 0.44240  0.60620  0.94320  Biso   1.000  O
  O3       1.0000 0.55760  0.50080  0.16380  Biso   1.000  O
  O4       1.0000 0.33700  0.39380  0.83620  Biso   1.000  O
  O5       1.0000 0.16380  0.55760  0.50080  Biso   1.000  O
  O6       1.0000 0.83620  0.33700  0.39380  Biso   1.000  O
  O7       1.0000 0.05680  0.66300  0.49920  Biso   1.000  O
  O8       1.0000 0.94320  0.44240  0.60620  Biso   1.000  O
  O9       1.0000 0.60620  0.94320  0.44240  Biso   1.000  O
  O10      1.0000 0.49920  0.05680  0.66300  Biso   1.000  O
  O11      1.0000 0.39380  0.83620  0.33700  Biso   1.000  O
  O12      1.0000 0.50080  0.16380  0.55760  Biso   1.000  O
  O13      1.0000 0.50080  0.33700  0.94320  Biso   1.000  O
  O14      1.0000 0.39380  0.55760  0.05680  Biso   1.000  O
  O15      1.0000 0.49920  0.44240  0.83620  Biso   1.000  O
  O16      1.0000 0.60620  0.66300  0.16380  Biso   1.000  O
  O17      1.0000 0.44240  0.83620  0.49920  Biso   1.000  O
  O18      1.0000 0.66300  0.16380  0.60620  Biso   1.000  O
  O19      1.0000 0.33700  0.94320  0.50080  Biso   1.000  O
  O20      1.0000 0.55760  0.05680  0.39380  Biso   1.000  O
  O21      1.0000 0.05680  0.39380  0.55760  Biso   1.000  O
  O22      1.0000 0.94320  0.50080  0.33700  Biso   1.000  O
  O23      1.0000 0.16380  0.60620  0.66300  Biso   1.000  O
  O24      1.0000 0.83620  0.49920  0.44240  Biso   1.000  O
  O25      1.0000 0.33700  0.50080  0.94320  Biso   1.000  O
  O26      1.0000 0.55760  0.39380  0.05680  Biso   1.000  O
  O27      1.0000 0.44240  0.49920  0.83620  Biso   1.000  O
  O28      1.0000 0.66300  0.60620  0.16380  Biso   1.000  O
  O29      1.0000 0.83620  0.44240  0.49920  Biso   1.000  O
  O30      1.0000 0.16380  0.66300  0.60620  Biso   1.000  O
  O31      1.0000 0.94320  0.33700  0.50080  Biso   1.000  O
  O32      1.0000 0.05680  0.55760  0.39380  Biso   1.000  O
  O33      1.0000 0.39380  0.05680  0.55760  Biso   1.000  O
  O34      1.0000 0.50080  0.94320  0.33700  Biso   1.000  O
  O35      1.0000 0.60620  0.16380  0.66300  Biso   1.000  O
  O36      1.0000 0.49920  0.83620  0.44240  Biso   1.000  O
  O37      1.0000 0.49920  0.66300  0.05680  Biso   1.000  O
  O38      1.0000 0.60620  0.44240  0.94320  Biso   1.000  O
  O39      1.0000 0.50080  0.55760  0.16380  Biso   1.000  O
  O40      1.0000 0.39380  0.33700  0.83620  Biso   1.000  O
  O41      1.0000 0.55760  0.16380  0.50080  Biso   1.000  O
  O42      1.0000 0.33700  0.83620  0.39380  Biso   1.000  O
  O43      1.0000 0.66300  0.05680  0.49920  Biso   1.000  O
  O44      1.0000 0.44240  0.94320  0.60620  Biso   1.000  O
  O45      1.0000 0.94320  0.60620  0.44240  Biso   1.000  O
  O46      1.0000 0.05680  0.49920  0.66300  Biso   1.000  O
  O47      1.0000 0.83620  0.39380  0.33700  Biso   1.000  O
  O48      1.0000 0.16380  0.50080  0.55760  Biso   1.000  O
