data_image0
_cell_length_a       11.0778
_cell_length_b       11.0778
_cell_length_c       27.8793
_cell_angle_alpha    90
_cell_angle_beta     90
_cell_angle_gamma    120

_symmetry_space_group_name_H-M    P 1
_symmetry_int_tables_number       1

loop_
  _symmetry_equiv_pos_as_xyz
  'x, y, z'

loop_
  _atom_site_label
  _atom_site_occupancy
  _atom_site_fract_x
  _atom_site_fract_y
  _atom_site_fract_z
  _atom_site_thermal_displace_type
  _atom_site_B_iso_or_equiv
  _atom_site_type_symbol
  Co1      1.0000 0.92015  0.17075  0.02920  Biso   1.000  Co
  Co2      1.0000 0.25060  0.07985  0.36253  Biso   1.000  Co
  Co3      1.0000 0.82925  0.74940  0.69586  Biso   1.000  Co
  Co4      1.0000 0.74940  0.82925  0.97080  Biso   1.000  Co
  Co5      1.0000 0.17075  0.92015  0.63747  Biso   1.000  Co
  Co6      1.0000 0.07985  0.25060  0.30414  Biso   1.000  Co
  H1       1.0000 0.93570  0.44140  0.00030  Biso   1.000  H
  H2       1.0000 0.65740  0.50240  0.07230  Biso   1.000  H
  H3       1.0000 0.74510  0.20780  0.11060  Biso   1.000  H
  H4       1.0000 0.68900  0.24540  0.18460  Biso   1.000  H
  H5       1.0000 0.54470  0.19710  0.25030  Biso   1.000  H
  H6       1.0000 0.30110  0.29710  0.17450  Biso   1.000  H
  H7       1.0000 0.44470  0.34730  0.10890  Biso   1.000  H
  H8       1.0000 0.50570  0.06430  0.33363  Biso   1.000  H
  H9       1.0000 0.84500  0.34260  0.40563  Biso   1.000  H
  H10      1.0000 0.46270  0.25490  0.44393  Biso   1.000  H
  H11      1.0000 0.55640  0.31100  0.51793  Biso   1.000  H
  H12      1.0000 0.65240  0.45530  0.58363  Biso   1.000  H
  H13      1.0000 0.99600  0.69890  0.50783  Biso   1.000  H
  H14      1.0000 0.90260  0.55530  0.44223  Biso   1.000  H
  H15      1.0000 0.55860  0.49430  0.66697  Biso   1.000  H
  H16      1.0000 0.49760  0.15500  0.73897  Biso   1.000  H
  H17      1.0000 0.79220  0.53730  0.77727  Biso   1.000  H
  H18      1.0000 0.75460  0.44360  0.85127  Biso   1.000  H
  H19      1.0000 0.80290  0.34760  0.91697  Biso   1.000  H
  H20      1.0000 0.70290  0.00400  0.84117  Biso   1.000  H
  H21      1.0000 0.65270  0.09740  0.77557  Biso   1.000  H
  H22      1.0000 0.49430  0.55860  0.99970  Biso   1.000  H
  H23      1.0000 0.15500  0.49760  0.92770  Biso   1.000  H
  H24      1.0000 0.53730  0.79220  0.88940  Biso   1.000  H
  H25      1.0000 0.44360  0.75460  0.81540  Biso   1.000  H
  H26      1.0000 0.34760  0.80290  0.74970  Biso   1.000  H
  H27      1.0000 0.00400  0.70290  0.82550  Biso   1.000  H
  H28      1.0000 0.09740  0.65270  0.89110  Biso   1.000  H
  H29      1.0000 0.44140  0.93570  0.66637  Biso   1.000  H
  H30      1.0000 0.50240  0.65740  0.59437  Biso   1.000  H
  H31      1.0000 0.20780  0.74510  0.55607  Biso   1.000  H
  H32      1.0000 0.24540  0.68900  0.48207  Biso   1.000  H
  H33      1.0000 0.19710  0.54470  0.41637  Biso   1.000  H
  H34      1.0000 0.29710  0.30110  0.49217  Biso   1.000  H
  H35      1.0000 0.34730  0.44470  0.55777  Biso   1.000  H
  H36      1.0000 0.06430  0.50570  0.33303  Biso   1.000  H
  H37      1.0000 0.34260  0.84500  0.26103  Biso   1.000  H
  H38      1.0000 0.25490  0.46270  0.22273  Biso   1.000  H
  H39      1.0000 0.31100  0.55640  0.14873  Biso   1.000  H
  H40      1.0000 0.45530  0.65240  0.08303  Biso   1.000  H
  H41      1.0000 0.69890  0.99600  0.15883  Biso   1.000  H
  H42      1.0000 0.55530  0.90260  0.22443  Biso   1.000  H
  C1       1.0000 0.87090  0.41660  0.02496  Biso   1.000  C
  C2       1.0000 0.80090  0.49090  0.03023  Biso   1.000  C
  C3       1.0000 0.70570  0.45460  0.06794  Biso   1.000  C
  C4       1.0000 0.68370  0.34790  0.09859  Biso   1.000  C
  C5       1.0000 0.75860  0.27940  0.08999  Biso   1.000  C
  C6       1.0000 0.58650  0.30750  0.14004  Biso   1.000  C
  C7       1.0000 0.61250  0.25850  0.18254  Biso   1.000  C
  C8       1.0000 0.52540  0.22890  0.22203  Biso   1.000  C
  C9       1.0000 0.41100  0.24630  0.21969  Biso   1.000  C
  C10      1.0000 0.38040  0.28880  0.17679  Biso   1.000  C
  C11      1.0000 0.46660  0.31900  0.13744  Biso   1.000  C
  C12      1.0000 0.82680  0.60490  0.99501  Biso   1.000  C
  C13      1.0000 0.32080  0.22430  0.26363  Biso   1.000  C
  C14      1.0000 0.54570  0.12910  0.35829  Biso   1.000  C
  C15      1.0000 0.69000  0.19910  0.36356  Biso   1.000  C
  C16      1.0000 0.74890  0.29430  0.40127  Biso   1.000  C
  C17      1.0000 0.66420  0.31630  0.43192  Biso   1.000  C
  C18      1.0000 0.52080  0.24140  0.42332  Biso   1.000  C
  C19      1.0000 0.72100  0.41350  0.47337  Biso   1.000  C
  C20      1.0000 0.64600  0.38750  0.51587  Biso   1.000  C
  C21      1.0000 0.70350  0.47460  0.55536  Biso   1.000  C
  C22      1.0000 0.83530  0.58900  0.55302  Biso   1.000  C
  C23      1.0000 0.90840  0.61960  0.51012  Biso   1.000  C
  C24      1.0000 0.85240  0.53340  0.47077  Biso   1.000  C
  C25      1.0000 0.77810  0.17320  0.32834  Biso   1.000  C
  C26      1.0000 0.90350  0.67920  0.59696  Biso   1.000  C
  C27      1.0000 0.58340  0.45430  0.69163  Biso   1.000  C
  C28      1.0000 0.50910  0.31000  0.69690  Biso   1.000  C
  C29      1.0000 0.54540  0.25110  0.73461  Biso   1.000  C
  C30      1.0000 0.65210  0.33580  0.76526  Biso   1.000  C
  C31      1.0000 0.72060  0.47920  0.75666  Biso   1.000  C
  C32      1.0000 0.69250  0.27900  0.80671  Biso   1.000  C
  C33      1.0000 0.74150  0.35400  0.84921  Biso   1.000  C
  C34      1.0000 0.77110  0.29650  0.88870  Biso   1.000  C
  C35      1.0000 0.75370  0.16470  0.88636  Biso   1.000  C
  C36      1.0000 0.71120  0.09160  0.84346  Biso   1.000  C
  C37      1.0000 0.68100  0.14760  0.80411  Biso   1.000  C
  C38      1.0000 0.39510  0.22190  0.66168  Biso   1.000  C
  C39      1.0000 0.77570  0.09650  0.93030  Biso   1.000  C
  C40      1.0000 0.45430  0.58340  0.97504  Biso   1.000  C
  C41      1.0000 0.31000  0.50910  0.96977  Biso   1.000  C
  C42      1.0000 0.25110  0.54540  0.93206  Biso   1.000  C
  C43      1.0000 0.33580  0.65210  0.90141  Biso   1.000  C
  C44      1.0000 0.47920  0.72060  0.91001  Biso   1.000  C
  C45      1.0000 0.27900  0.69250  0.85996  Biso   1.000  C
  C46      1.0000 0.35400  0.74150  0.81746  Biso   1.000  C
  C47      1.0000 0.29650  0.77110  0.77797  Biso   1.000  C
  C48      1.0000 0.16470  0.75370  0.78031  Biso   1.000  C
  C49      1.0000 0.09160  0.71120  0.82321  Biso   1.000  C
  C50      1.0000 0.14760  0.68100  0.86256  Biso   1.000  C
  C51      1.0000 0.22190  0.39510  0.00499  Biso   1.000  C
  C52      1.0000 0.09650  0.77570  0.73637  Biso   1.000  C
  C53      1.0000 0.41660  0.87090  0.64171  Biso   1.000  C
  C54      1.0000 0.49090  0.80090  0.63644  Biso   1.000  C
  C55      1.0000 0.45460  0.70570  0.59873  Biso   1.000  C
  C56      1.0000 0.34790  0.68370  0.56808  Biso   1.000  C
  C57      1.0000 0.27940  0.75860  0.57668  Biso   1.000  C
  C58      1.0000 0.30750  0.58650  0.52663  Biso   1.000  C
  C59      1.0000 0.25850  0.61250  0.48413  Biso   1.000  C
  C60      1.0000 0.22890  0.52540  0.44464  Biso   1.000  C
  C61      1.0000 0.24630  0.41100  0.44698  Biso   1.000  C
  C62      1.0000 0.28880  0.38040  0.48988  Biso   1.000  C
  C63      1.0000 0.31900  0.46660  0.52923  Biso   1.000  C
  C64      1.0000 0.60490  0.82680  0.67166  Biso   1.000  C
  C65      1.0000 0.22430  0.32080  0.40304  Biso   1.000  C
  C66      1.0000 0.12910  0.54570  0.30837  Biso   1.000  C
  C67      1.0000 0.19910  0.69000  0.30310  Biso   1.000  C
  C68      1.0000 0.29430  0.74890  0.26539  Biso   1.000  C
  C69      1.0000 0.31630  0.66420  0.23474  Biso   1.000  C
  C70      1.0000 0.24140  0.52080  0.24334  Biso   1.000  C
  C71      1.0000 0.41350  0.72100  0.19329  Biso   1.000  C
  C72      1.0000 0.38750  0.64600  0.15079  Biso   1.000  C
  C73      1.0000 0.47460  0.70350  0.11130  Biso   1.000  C
  C74      1.0000 0.58900  0.83530  0.11364  Biso   1.000  C
  C75      1.0000 0.61960  0.90840  0.15654  Biso   1.000  C
  C76      1.0000 0.53340  0.85240  0.19589  Biso   1.000  C
  C77      1.0000 0.17320  0.77810  0.33832  Biso   1.000  C
  C78      1.0000 0.67920  0.90350  0.06970  Biso   1.000  C
  N1       1.0000 0.84900  0.31130  0.05370  Biso   1.000  N
  N2       1.0000 0.46230  0.15100  0.38703  Biso   1.000  N
  N3       1.0000 0.68870  0.53770  0.72037  Biso   1.000  N
  N4       1.0000 0.53770  0.68870  0.94630  Biso   1.000  N
  N5       1.0000 0.31130  0.84900  0.61297  Biso   1.000  N
  N6       1.0000 0.15100  0.46230  0.27963  Biso   1.000  N
  O1       1.0000 0.90360  0.62260  0.96022  Biso   1.000  O
  O2       1.0000 0.76840  0.67540  0.00530  Biso   1.000  O
  O3       1.0000 0.35350  0.18550  0.30121  Biso   1.000  O
  O4       1.0000 0.22400  0.24890  0.25884  Biso   1.000  O
  O5       1.0000 0.05790  0.20350  0.08813  Biso   1.000  O
  O6       1.0000 0.71900  0.09640  0.29355  Biso   1.000  O
  O7       1.0000 0.90700  0.23160  0.33863  Biso   1.000  O
  O8       1.0000 0.83200  0.64650  0.63454  Biso   1.000  O
  O9       1.0000 0.02490  0.77600  0.59217  Biso   1.000  O
  O10      1.0000 0.14560  0.94210  0.42146  Biso   1.000  O
  O11      1.0000 0.37740  0.28100  0.62689  Biso   1.000  O
  O12      1.0000 0.32460  0.09300  0.67197  Biso   1.000  O
  O13      1.0000 0.81450  0.16800  0.96788  Biso   1.000  O
  O14      1.0000 0.75110  0.97510  0.92551  Biso   1.000  O
  O15      1.0000 0.79650  0.85440  0.75480  Biso   1.000  O
  O16      1.0000 0.28100  0.37740  0.03978  Biso   1.000  O
  O17      1.0000 0.09300  0.32460  0.99470  Biso   1.000  O
  O18      1.0000 0.16800  0.81450  0.69879  Biso   1.000  O
  O19      1.0000 0.97510  0.75110  0.74116  Biso   1.000  O
  O20      1.0000 0.85440  0.79650  0.91187  Biso   1.000  O
  O21      1.0000 0.62260  0.90360  0.70645  Biso   1.000  O
  O22      1.0000 0.67540  0.76840  0.66137  Biso   1.000  O
  O23      1.0000 0.18550  0.35350  0.36546  Biso   1.000  O
  O24      1.0000 0.24890  0.22400  0.40783  Biso   1.000  O
  O25      1.0000 0.20350  0.05790  0.57854  Biso   1.000  O
  O26      1.0000 0.09640  0.71900  0.37311  Biso   1.000  O
  O27      1.0000 0.23160  0.90700  0.32803  Biso   1.000  O
  O28      1.0000 0.64650  0.83200  0.03212  Biso   1.000  O
  O29      1.0000 0.77600  0.02490  0.07449  Biso   1.000  O
  O30      1.0000 0.94210  0.14560  0.24520  Biso   1.000  O
