data_image0
_cell_length_a       17.1238
_cell_length_b       20.115
_cell_length_c       27.1291
_cell_angle_alpha    90
_cell_angle_beta     90
_cell_angle_gamma    90

_symmetry_space_group_name_H-M    P 1
_symmetry_int_tables_number       1

loop_
  _symmetry_equiv_pos_as_xyz
  'x, y, z'

loop_
  _atom_site_label
  _atom_site_occupancy
  _atom_site_fract_x
  _atom_site_fract_y
  _atom_site_fract_z
  _atom_site_thermal_displace_type
  _atom_site_B_iso_or_equiv
  _atom_site_type_symbol
  Zn1      1.0000 0.26005  0.82862  0.59043  Biso   1.000  Zn
  Zn2      1.0000 0.23995  0.17138  0.09043  Biso   1.000  Zn
  Zn3      1.0000 0.26005  0.67138  0.59043  Biso   1.000  Zn
  Zn4      1.0000 0.23995  0.32862  0.09043  Biso   1.000  Zn
  Zn5      1.0000 0.38628  0.75000  0.64912  Biso   1.000  Zn
  Zn6      1.0000 0.39455  0.75000  0.53265  Biso   1.000  Zn
  Zn7      1.0000 0.11372  0.25000  0.14912  Biso   1.000  Zn
  Zn8      1.0000 0.10545  0.25000  0.03265  Biso   1.000  Zn
  H1       1.0000 0.21370  0.97100  0.47860  Biso   1.000  H
  H2       1.0000 0.34900  0.85120  0.40300  Biso   1.000  H
  H3       1.0000 0.31550  0.90480  0.33210  Biso   1.000  H
  H4       1.0000 0.14100  0.05710  0.33850  Biso   1.000  H
  H5       1.0000 0.31550  0.97730  0.27480  Biso   1.000  H
  H6       1.0000 0.12450  0.12560  0.27230  Biso   1.000  H
  H7       1.0000 0.28190  0.02710  0.20380  Biso   1.000  H
  H8       1.0000 0.88260  0.84710  0.60330  Biso   1.000  H
  H9       1.0000 0.01500  0.84580  0.59960  Biso   1.000  H
  H10      1.0000 0.28630  0.02900  0.97860  Biso   1.000  H
  H11      1.0000 0.15100  0.14880  0.90300  Biso   1.000  H
  H12      1.0000 0.18450  0.09520  0.83210  Biso   1.000  H
  H13      1.0000 0.35900  0.94290  0.83850  Biso   1.000  H
  H14      1.0000 0.18450  0.02270  0.77480  Biso   1.000  H
  H15      1.0000 0.37550  0.87440  0.77230  Biso   1.000  H
  H16      1.0000 0.21810  0.97290  0.70380  Biso   1.000  H
  H17      1.0000 0.61740  0.15290  0.10330  Biso   1.000  H
  H18      1.0000 0.48500  0.15420  0.09960  Biso   1.000  H
  H19      1.0000 0.21370  0.52900  0.47860  Biso   1.000  H
  H20      1.0000 0.34900  0.64880  0.40300  Biso   1.000  H
  H21      1.0000 0.31550  0.59520  0.33210  Biso   1.000  H
  H22      1.0000 0.14100  0.44290  0.33850  Biso   1.000  H
  H23      1.0000 0.31550  0.52270  0.27480  Biso   1.000  H
  H24      1.0000 0.12450  0.37440  0.27230  Biso   1.000  H
  H25      1.0000 0.28190  0.47290  0.20380  Biso   1.000  H
  H26      1.0000 0.88260  0.65290  0.60330  Biso   1.000  H
  H27      1.0000 0.01500  0.65420  0.59960  Biso   1.000  H
  H28      1.0000 0.28630  0.47100  0.97860  Biso   1.000  H
  H29      1.0000 0.15100  0.35120  0.90300  Biso   1.000  H
  H30      1.0000 0.18450  0.40480  0.83210  Biso   1.000  H
  H31      1.0000 0.35900  0.55710  0.83850  Biso   1.000  H
  H32      1.0000 0.18450  0.47730  0.77480  Biso   1.000  H
  H33      1.0000 0.37550  0.62560  0.77230  Biso   1.000  H
  H34      1.0000 0.21810  0.52710  0.70380  Biso   1.000  H
  H35      1.0000 0.61740  0.34710  0.10330  Biso   1.000  H
  H36      1.0000 0.48500  0.34580  0.09960  Biso   1.000  H
  H37      1.0000 0.63740  0.75000  0.67310  Biso   1.000  H
  H38      1.0000 0.62230  0.75000  0.52870  Biso   1.000  H
  H39      1.0000 0.76410  0.75000  0.53190  Biso   1.000  H
  H40      1.0000 0.76750  0.75000  0.66740  Biso   1.000  H
  H41      1.0000 0.86260  0.25000  0.17310  Biso   1.000  H
  H42      1.0000 0.87770  0.25000  0.02870  Biso   1.000  H
  H43      1.0000 0.73590  0.25000  0.03190  Biso   1.000  H
  H44      1.0000 0.73250  0.25000  0.16740  Biso   1.000  H
  C1       1.0000 0.29790  0.86500  0.49420  Biso   1.000  C
  C2       1.0000 0.28690  0.90660  0.44870  Biso   1.000  C
  C3       1.0000 0.23790  0.95820  0.44950  Biso   1.000  C
  C4       1.0000 0.31590  0.88770  0.40460  Biso   1.000  C
  C5       1.0000 0.29760  0.92120  0.36210  Biso   1.000  C
  C6       1.0000 0.22340  0.99330  0.40450  Biso   1.000  C
  C7       1.0000 0.25470  0.97700  0.36250  Biso   1.000  C
  C8       1.0000 0.23770  0.01470  0.31720  Biso   1.000  C
  C9       1.0000 0.17710  0.05530  0.31290  Biso   1.000  C
  C10      1.0000 0.27440  0.00750  0.27550  Biso   1.000  C
  C11      1.0000 0.16530  0.09510  0.27170  Biso   1.000  C
  C12      1.0000 0.25830  0.04020  0.23310  Biso   1.000  C
  C13      1.0000 0.20780  0.09180  0.23330  Biso   1.000  C
  C14      1.0000 0.19170  0.13120  0.18830  Biso   1.000  C
  C15      1.0000 0.90810  0.80650  0.60060  Biso   1.000  C
  C16      1.0000 0.98810  0.80570  0.59850  Biso   1.000  C
  C17      1.0000 0.20210  0.13500  0.99420  Biso   1.000  C
  C18      1.0000 0.21310  0.09340  0.94870  Biso   1.000  C
  C19      1.0000 0.26210  0.04180  0.94950  Biso   1.000  C
  C20      1.0000 0.18410  0.11230  0.90460  Biso   1.000  C
  C21      1.0000 0.20240  0.07880  0.86210  Biso   1.000  C
  C22      1.0000 0.27660  0.00670  0.90450  Biso   1.000  C
  C23      1.0000 0.24530  0.02300  0.86250  Biso   1.000  C
  C24      1.0000 0.26230  0.98530  0.81720  Biso   1.000  C
  C25      1.0000 0.32290  0.94470  0.81290  Biso   1.000  C
  C26      1.0000 0.22560  0.99250  0.77550  Biso   1.000  C
  C27      1.0000 0.33470  0.90490  0.77170  Biso   1.000  C
  C28      1.0000 0.24170  0.95980  0.73310  Biso   1.000  C
  C29      1.0000 0.29220  0.90820  0.73330  Biso   1.000  C
  C30      1.0000 0.30830  0.86880  0.68830  Biso   1.000  C
  C31      1.0000 0.59190  0.19350  0.10060  Biso   1.000  C
  C32      1.0000 0.51190  0.19430  0.09850  Biso   1.000  C
  C33      1.0000 0.29790  0.63500  0.49420  Biso   1.000  C
  C34      1.0000 0.28690  0.59340  0.44870  Biso   1.000  C
  C35      1.0000 0.23790  0.54180  0.44950  Biso   1.000  C
  C36      1.0000 0.31590  0.61230  0.40460  Biso   1.000  C
  C37      1.0000 0.29760  0.57880  0.36210  Biso   1.000  C
  C38      1.0000 0.22340  0.50670  0.40450  Biso   1.000  C
  C39      1.0000 0.25470  0.52300  0.36250  Biso   1.000  C
  C40      1.0000 0.23770  0.48530  0.31720  Biso   1.000  C
  C41      1.0000 0.17710  0.44470  0.31290  Biso   1.000  C
  C42      1.0000 0.27440  0.49250  0.27550  Biso   1.000  C
  C43      1.0000 0.16530  0.40490  0.27170  Biso   1.000  C
  C44      1.0000 0.25830  0.45980  0.23310  Biso   1.000  C
  C45      1.0000 0.20780  0.40820  0.23330  Biso   1.000  C
  C46      1.0000 0.19170  0.36880  0.18830  Biso   1.000  C
  C47      1.0000 0.90810  0.69350  0.60060  Biso   1.000  C
  C48      1.0000 0.98810  0.69430  0.59850  Biso   1.000  C
  C49      1.0000 0.20210  0.36500  0.99420  Biso   1.000  C
  C50      1.0000 0.21310  0.40660  0.94870  Biso   1.000  C
  C51      1.0000 0.26210  0.45820  0.94950  Biso   1.000  C
  C52      1.0000 0.18410  0.38770  0.90460  Biso   1.000  C
  C53      1.0000 0.20240  0.42120  0.86210  Biso   1.000  C
  C54      1.0000 0.27660  0.49330  0.90450  Biso   1.000  C
  C55      1.0000 0.24530  0.47700  0.86250  Biso   1.000  C
  C56      1.0000 0.26230  0.51470  0.81720  Biso   1.000  C
  C57      1.0000 0.32290  0.55530  0.81290  Biso   1.000  C
  C58      1.0000 0.22560  0.50750  0.77550  Biso   1.000  C
  C59      1.0000 0.33470  0.59510  0.77170  Biso   1.000  C
  C60      1.0000 0.24170  0.54020  0.73310  Biso   1.000  C
  C61      1.0000 0.29220  0.59180  0.73330  Biso   1.000  C
  C62      1.0000 0.30830  0.63120  0.68830  Biso   1.000  C
  C63      1.0000 0.59190  0.30650  0.10060  Biso   1.000  C
  C64      1.0000 0.51190  0.30570  0.09850  Biso   1.000  C
  C65      1.0000 0.52900  0.75000  0.60430  Biso   1.000  C
  C66      1.0000 0.61880  0.75000  0.60150  Biso   1.000  C
  C67      1.0000 0.66110  0.75000  0.64230  Biso   1.000  C
  C68      1.0000 0.65010  0.75000  0.55810  Biso   1.000  C
  C69      1.0000 0.73780  0.75000  0.56190  Biso   1.000  C
  C70      1.0000 0.73970  0.75000  0.63790  Biso   1.000  C
  C71      1.0000 0.78050  0.75000  0.59910  Biso   1.000  C
  C72      1.0000 0.86500  0.75000  0.59900  Biso   1.000  C
  C73      1.0000 0.02820  0.75000  0.59480  Biso   1.000  C
  C74      1.0000 0.11530  0.75000  0.59410  Biso   1.000  C
  C75      1.0000 0.97100  0.25000  0.10430  Biso   1.000  C
  C76      1.0000 0.88120  0.25000  0.10150  Biso   1.000  C
  C77      1.0000 0.83890  0.25000  0.14230  Biso   1.000  C
  C78      1.0000 0.84990  0.25000  0.05810  Biso   1.000  C
  C79      1.0000 0.76220  0.25000  0.06190  Biso   1.000  C
  C80      1.0000 0.76030  0.25000  0.13790  Biso   1.000  C
  C81      1.0000 0.71950  0.25000  0.09910  Biso   1.000  C
  C82      1.0000 0.63500  0.25000  0.09900  Biso   1.000  C
  C83      1.0000 0.47180  0.25000  0.09480  Biso   1.000  C
  C84      1.0000 0.38470  0.25000  0.09410  Biso   1.000  C
  O1       1.0000 0.26400  0.88380  0.53249  Biso   1.000  O
  O2       1.0000 0.35300  0.82390  0.49290  Biso   1.000  O
  O3       1.0000 0.23160  0.12020  0.15008  Biso   1.000  O
  O4       1.0000 0.14130  0.17610  0.19294  Biso   1.000  O
  O5       1.0000 0.14830  0.80380  0.59280  Biso   1.000  O
  O6       1.0000 0.23600  0.11620  0.03249  Biso   1.000  O
  O7       1.0000 0.14700  0.17610  0.99290  Biso   1.000  O
  O8       1.0000 0.26840  0.87980  0.65008  Biso   1.000  O
  O9       1.0000 0.35870  0.82390  0.69294  Biso   1.000  O
  O10      1.0000 0.35170  0.19620  0.09280  Biso   1.000  O
  O11      1.0000 0.26400  0.61620  0.53249  Biso   1.000  O
  O12      1.0000 0.35300  0.67610  0.49290  Biso   1.000  O
  O13      1.0000 0.23160  0.37980  0.15008  Biso   1.000  O
  O14      1.0000 0.14130  0.32390  0.19294  Biso   1.000  O
  O15      1.0000 0.14830  0.69620  0.59280  Biso   1.000  O
  O16      1.0000 0.23600  0.38380  0.03249  Biso   1.000  O
  O17      1.0000 0.14700  0.32390  0.99290  Biso   1.000  O
  O18      1.0000 0.26840  0.62020  0.65008  Biso   1.000  O
  O19      1.0000 0.35870  0.67610  0.69294  Biso   1.000  O
  O20      1.0000 0.35170  0.30380  0.09280  Biso   1.000  O
  O21      1.0000 0.49830  0.75000  0.64460  Biso   1.000  O
  O22      1.0000 0.49460  0.75000  0.56350  Biso   1.000  O
  O23      1.0000 0.32340  0.75000  0.59054  Biso   1.000  O
  O24      1.0000 0.00170  0.25000  0.14460  Biso   1.000  O
  O25      1.0000 0.00540  0.25000  0.06350  Biso   1.000  O
  O26      1.0000 0.17660  0.25000  0.09054  Biso   1.000  O
  Zn9      1.0000 0.73995  0.32862  0.40957  Biso   1.000  Zn
  Zn10     1.0000 0.76005  0.67138  0.90957  Biso   1.000  Zn
  Zn11     1.0000 0.73995  0.17138  0.40957  Biso   1.000  Zn
  Zn12     1.0000 0.76005  0.82862  0.90957  Biso   1.000  Zn
  Zn13     1.0000 0.61372  0.25000  0.35088  Biso   1.000  Zn
  Zn14     1.0000 0.60545  0.25000  0.46735  Biso   1.000  Zn
  Zn15     1.0000 0.88628  0.75000  0.85088  Biso   1.000  Zn
  Zn16     1.0000 0.89455  0.75000  0.96735  Biso   1.000  Zn
  H45      1.0000 0.78630  0.47100  0.52140  Biso   1.000  H
  H46      1.0000 0.65100  0.35120  0.59700  Biso   1.000  H
  H47      1.0000 0.68450  0.40480  0.66790  Biso   1.000  H
  H48      1.0000 0.85900  0.55710  0.66150  Biso   1.000  H
  H49      1.0000 0.68450  0.47730  0.72520  Biso   1.000  H
  H50      1.0000 0.87550  0.62560  0.72770  Biso   1.000  H
  H51      1.0000 0.71810  0.52710  0.79620  Biso   1.000  H
  H52      1.0000 0.11740  0.34710  0.39670  Biso   1.000  H
  H53      1.0000 0.98500  0.34580  0.40040  Biso   1.000  H
  H54      1.0000 0.71370  0.52900  0.02140  Biso   1.000  H
  H55      1.0000 0.84900  0.64880  0.09700  Biso   1.000  H
  H56      1.0000 0.81550  0.59520  0.16790  Biso   1.000  H
  H57      1.0000 0.64100  0.44290  0.16150  Biso   1.000  H
  H58      1.0000 0.81550  0.52270  0.22520  Biso   1.000  H
  H59      1.0000 0.62450  0.37440  0.22770  Biso   1.000  H
  H60      1.0000 0.78190  0.47290  0.29620  Biso   1.000  H
  H61      1.0000 0.38260  0.65290  0.89670  Biso   1.000  H
  H62      1.0000 0.51500  0.65420  0.90040  Biso   1.000  H
  H63      1.0000 0.78630  0.02900  0.52140  Biso   1.000  H
  H64      1.0000 0.65100  0.14880  0.59700  Biso   1.000  H
  H65      1.0000 0.68450  0.09520  0.66790  Biso   1.000  H
  H66      1.0000 0.85900  0.94290  0.66150  Biso   1.000  H
  H67      1.0000 0.68450  0.02270  0.72520  Biso   1.000  H
  H68      1.0000 0.87550  0.87440  0.72770  Biso   1.000  H
  H69      1.0000 0.71810  0.97290  0.79620  Biso   1.000  H
  H70      1.0000 0.11740  0.15290  0.39670  Biso   1.000  H
  H71      1.0000 0.98500  0.15420  0.40040  Biso   1.000  H
  H72      1.0000 0.71370  0.97100  0.02140  Biso   1.000  H
  H73      1.0000 0.84900  0.85120  0.09700  Biso   1.000  H
  H74      1.0000 0.81550  0.90480  0.16790  Biso   1.000  H
  H75      1.0000 0.64100  0.05710  0.16150  Biso   1.000  H
  H76      1.0000 0.81550  0.97730  0.22520  Biso   1.000  H
  H77      1.0000 0.62450  0.12560  0.22770  Biso   1.000  H
  H78      1.0000 0.78190  0.02710  0.29620  Biso   1.000  H
  H79      1.0000 0.38260  0.84710  0.89670  Biso   1.000  H
  H80      1.0000 0.51500  0.84580  0.90040  Biso   1.000  H
  H81      1.0000 0.36260  0.25000  0.32690  Biso   1.000  H
  H82      1.0000 0.37770  0.25000  0.47130  Biso   1.000  H
  H83      1.0000 0.23590  0.25000  0.46810  Biso   1.000  H
  H84      1.0000 0.23250  0.25000  0.33260  Biso   1.000  H
  H85      1.0000 0.13740  0.75000  0.82690  Biso   1.000  H
  H86      1.0000 0.12230  0.75000  0.97130  Biso   1.000  H
  H87      1.0000 0.26410  0.75000  0.96810  Biso   1.000  H
  H88      1.0000 0.26750  0.75000  0.83260  Biso   1.000  H
  C85      1.0000 0.70210  0.36500  0.50580  Biso   1.000  C
  C86      1.0000 0.71310  0.40660  0.55130  Biso   1.000  C
  C87      1.0000 0.76210  0.45820  0.55050  Biso   1.000  C
  C88      1.0000 0.68410  0.38770  0.59540  Biso   1.000  C
  C89      1.0000 0.70240  0.42120  0.63790  Biso   1.000  C
  C90      1.0000 0.77660  0.49330  0.59550  Biso   1.000  C
  C91      1.0000 0.74530  0.47700  0.63750  Biso   1.000  C
  C92      1.0000 0.76230  0.51470  0.68280  Biso   1.000  C
  C93      1.0000 0.82290  0.55530  0.68710  Biso   1.000  C
  C94      1.0000 0.72560  0.50750  0.72450  Biso   1.000  C
  C95      1.0000 0.83470  0.59510  0.72830  Biso   1.000  C
  C96      1.0000 0.74170  0.54020  0.76690  Biso   1.000  C
  C97      1.0000 0.79220  0.59180  0.76670  Biso   1.000  C
  C98      1.0000 0.80830  0.63120  0.81170  Biso   1.000  C
  C99      1.0000 0.09190  0.30650  0.39940  Biso   1.000  C
  C100     1.0000 0.01190  0.30570  0.40150  Biso   1.000  C
  C101     1.0000 0.79790  0.63500  0.00580  Biso   1.000  C
  C102     1.0000 0.78690  0.59340  0.05130  Biso   1.000  C
  C103     1.0000 0.73790  0.54180  0.05050  Biso   1.000  C
  C104     1.0000 0.81590  0.61230  0.09540  Biso   1.000  C
  C105     1.0000 0.79760  0.57880  0.13790  Biso   1.000  C
  C106     1.0000 0.72340  0.50670  0.09550  Biso   1.000  C
  C107     1.0000 0.75470  0.52300  0.13750  Biso   1.000  C
  C108     1.0000 0.73770  0.48530  0.18280  Biso   1.000  C
  C109     1.0000 0.67710  0.44470  0.18710  Biso   1.000  C
  C110     1.0000 0.77440  0.49250  0.22450  Biso   1.000  C
  C111     1.0000 0.66530  0.40490  0.22830  Biso   1.000  C
  C112     1.0000 0.75830  0.45980  0.26690  Biso   1.000  C
  C113     1.0000 0.70780  0.40820  0.26670  Biso   1.000  C
  C114     1.0000 0.69170  0.36880  0.31170  Biso   1.000  C
  C115     1.0000 0.40810  0.69350  0.89940  Biso   1.000  C
  C116     1.0000 0.48810  0.69430  0.90150  Biso   1.000  C
  C117     1.0000 0.70210  0.13500  0.50580  Biso   1.000  C
  C118     1.0000 0.71310  0.09340  0.55130  Biso   1.000  C
  C119     1.0000 0.76210  0.04180  0.55050  Biso   1.000  C
  C120     1.0000 0.68410  0.11230  0.59540  Biso   1.000  C
  C121     1.0000 0.70240  0.07880  0.63790  Biso   1.000  C
  C122     1.0000 0.77660  0.00670  0.59550  Biso   1.000  C
  C123     1.0000 0.74530  0.02300  0.63750  Biso   1.000  C
  C124     1.0000 0.76230  0.98530  0.68280  Biso   1.000  C
  C125     1.0000 0.82290  0.94470  0.68710  Biso   1.000  C
  C126     1.0000 0.72560  0.99250  0.72450  Biso   1.000  C
  C127     1.0000 0.83470  0.90490  0.72830  Biso   1.000  C
  C128     1.0000 0.74170  0.95980  0.76690  Biso   1.000  C
  C129     1.0000 0.79220  0.90820  0.76670  Biso   1.000  C
  C130     1.0000 0.80830  0.86880  0.81170  Biso   1.000  C
  C131     1.0000 0.09190  0.19350  0.39940  Biso   1.000  C
  C132     1.0000 0.01190  0.19430  0.40150  Biso   1.000  C
  C133     1.0000 0.79790  0.86500  0.00580  Biso   1.000  C
  C134     1.0000 0.78690  0.90660  0.05130  Biso   1.000  C
  C135     1.0000 0.73790  0.95820  0.05050  Biso   1.000  C
  C136     1.0000 0.81590  0.88770  0.09540  Biso   1.000  C
  C137     1.0000 0.79760  0.92120  0.13790  Biso   1.000  C
  C138     1.0000 0.72340  0.99330  0.09550  Biso   1.000  C
  C139     1.0000 0.75470  0.97700  0.13750  Biso   1.000  C
  C140     1.0000 0.73770  0.01470  0.18280  Biso   1.000  C
  C141     1.0000 0.67710  0.05530  0.18710  Biso   1.000  C
  C142     1.0000 0.77440  0.00750  0.22450  Biso   1.000  C
  C143     1.0000 0.66530  0.09510  0.22830  Biso   1.000  C
  C144     1.0000 0.75830  0.04020  0.26690  Biso   1.000  C
  C145     1.0000 0.70780  0.09180  0.26670  Biso   1.000  C
  C146     1.0000 0.69170  0.13120  0.31170  Biso   1.000  C
  C147     1.0000 0.40810  0.80650  0.89940  Biso   1.000  C
  C148     1.0000 0.48810  0.80570  0.90150  Biso   1.000  C
  C149     1.0000 0.47100  0.25000  0.39570  Biso   1.000  C
  C150     1.0000 0.38120  0.25000  0.39850  Biso   1.000  C
  C151     1.0000 0.33890  0.25000  0.35770  Biso   1.000  C
  C152     1.0000 0.34990  0.25000  0.44190  Biso   1.000  C
  C153     1.0000 0.26220  0.25000  0.43810  Biso   1.000  C
  C154     1.0000 0.26030  0.25000  0.36210  Biso   1.000  C
  C155     1.0000 0.21950  0.25000  0.40090  Biso   1.000  C
  C156     1.0000 0.13500  0.25000  0.40100  Biso   1.000  C
  C157     1.0000 0.97180  0.25000  0.40520  Biso   1.000  C
  C158     1.0000 0.88470  0.25000  0.40590  Biso   1.000  C
  C159     1.0000 0.02900  0.75000  0.89570  Biso   1.000  C
  C160     1.0000 0.11880  0.75000  0.89850  Biso   1.000  C
  C161     1.0000 0.16110  0.75000  0.85770  Biso   1.000  C
  C162     1.0000 0.15010  0.75000  0.94190  Biso   1.000  C
  C163     1.0000 0.23780  0.75000  0.93810  Biso   1.000  C
  C164     1.0000 0.23970  0.75000  0.86210  Biso   1.000  C
  C165     1.0000 0.28050  0.75000  0.90090  Biso   1.000  C
  C166     1.0000 0.36500  0.75000  0.90100  Biso   1.000  C
  C167     1.0000 0.52820  0.75000  0.90520  Biso   1.000  C
  C168     1.0000 0.61530  0.75000  0.90590  Biso   1.000  C
  O27      1.0000 0.73600  0.38380  0.46751  Biso   1.000  O
  O28      1.0000 0.64700  0.32390  0.50710  Biso   1.000  O
  O29      1.0000 0.76840  0.62020  0.84992  Biso   1.000  O
  O30      1.0000 0.85870  0.67610  0.80706  Biso   1.000  O
  O31      1.0000 0.85170  0.30380  0.40720  Biso   1.000  O
  O32      1.0000 0.76400  0.61620  0.96751  Biso   1.000  O
  O33      1.0000 0.85300  0.67610  0.00710  Biso   1.000  O
  O34      1.0000 0.73160  0.37980  0.34992  Biso   1.000  O
  O35      1.0000 0.64130  0.32390  0.30706  Biso   1.000  O
  O36      1.0000 0.64830  0.69620  0.90720  Biso   1.000  O
  O37      1.0000 0.73600  0.11620  0.46751  Biso   1.000  O
  O38      1.0000 0.64700  0.17610  0.50710  Biso   1.000  O
  O39      1.0000 0.76840  0.87980  0.84992  Biso   1.000  O
  O40      1.0000 0.85870  0.82390  0.80706  Biso   1.000  O
  O41      1.0000 0.85170  0.19620  0.40720  Biso   1.000  O
  O42      1.0000 0.76400  0.88380  0.96751  Biso   1.000  O
  O43      1.0000 0.85300  0.82390  0.00710  Biso   1.000  O
  O44      1.0000 0.73160  0.12020  0.34992  Biso   1.000  O
  O45      1.0000 0.64130  0.17610  0.30706  Biso   1.000  O
  O46      1.0000 0.64830  0.80380  0.90720  Biso   1.000  O
  O47      1.0000 0.50170  0.25000  0.35540  Biso   1.000  O
  O48      1.0000 0.50540  0.25000  0.43650  Biso   1.000  O
  O49      1.0000 0.67660  0.25000  0.40946  Biso   1.000  O
  O50      1.0000 0.99830  0.75000  0.85540  Biso   1.000  O
  O51      1.0000 0.99460  0.75000  0.93650  Biso   1.000  O
  O52      1.0000 0.82340  0.75000  0.90946  Biso   1.000  O
