data_image0
_cell_length_a       8.5083
_cell_length_b       15.704
_cell_length_c       28.452
_cell_angle_alpha    90
_cell_angle_beta     90
_cell_angle_gamma    90

_symmetry_space_group_name_H-M    P 1
_symmetry_int_tables_number       1

loop_
  _symmetry_equiv_pos_as_xyz
  'x, y, z'

loop_
  _atom_site_label
  _atom_site_occupancy
  _atom_site_fract_x
  _atom_site_fract_y
  _atom_site_fract_z
  _atom_site_thermal_displace_type
  _atom_site_B_iso_or_equiv
  _atom_site_type_symbol
  Y1       1.0000 0.97378  0.80142  0.58486  Biso   1.000  Y
  Y2       1.0000 0.52622  0.30142  0.41514  Biso   1.000  Y
  Y3       1.0000 0.02622  0.19858  0.08486  Biso   1.000  Y
  Y4       1.0000 0.47378  0.69858  0.91514  Biso   1.000  Y
  Y5       1.0000 0.02622  0.19858  0.41514  Biso   1.000  Y
  Y6       1.0000 0.47378  0.69858  0.58486  Biso   1.000  Y
  Y7       1.0000 0.97378  0.80142  0.91514  Biso   1.000  Y
  Y8       1.0000 0.52622  0.30142  0.08486  Biso   1.000  Y
  H1       1.0000 0.89870  0.46430  0.39840  Biso   1.000  H
  H2       1.0000 0.27730  0.52640  0.47630  Biso   1.000  H
  H3       1.0000 0.90240  0.68180  0.46470  Biso   1.000  H
  H4       1.0000 0.32630  0.59550  0.68070  Biso   1.000  H
  H5       1.0000 0.99660  0.15520  0.55500  Biso   1.000  H
  H6       1.0000 0.09600  0.19050  0.59860  Biso   1.000  H
  H7       1.0000 0.90890  0.20080  0.59790  Biso   1.000  H
  H8       1.0000 0.60130  0.96430  0.60160  Biso   1.000  H
  H9       1.0000 0.22270  0.02640  0.52370  Biso   1.000  H
  H10      1.0000 0.59760  0.18180  0.53530  Biso   1.000  H
  H11      1.0000 0.17370  0.09550  0.31930  Biso   1.000  H
  H12      1.0000 0.50340  0.65520  0.44500  Biso   1.000  H
  H13      1.0000 0.40400  0.69050  0.40140  Biso   1.000  H
  H14      1.0000 0.59110  0.70080  0.40210  Biso   1.000  H
  H15      1.0000 0.10130  0.53570  0.89840  Biso   1.000  H
  H16      1.0000 0.72270  0.47360  0.97630  Biso   1.000  H
  H17      1.0000 0.09760  0.31820  0.96470  Biso   1.000  H
  H18      1.0000 0.67370  0.40450  0.18070  Biso   1.000  H
  H19      1.0000 0.00340  0.84480  0.05500  Biso   1.000  H
  H20      1.0000 0.90400  0.80950  0.09860  Biso   1.000  H
  H21      1.0000 0.09110  0.79920  0.09790  Biso   1.000  H
  H22      1.0000 0.39870  0.03570  0.10160  Biso   1.000  H
  H23      1.0000 0.77730  0.97360  0.02370  Biso   1.000  H
  H24      1.0000 0.40240  0.81820  0.03530  Biso   1.000  H
  H25      1.0000 0.82630  0.90450  0.81930  Biso   1.000  H
  H26      1.0000 0.49660  0.34480  0.94500  Biso   1.000  H
  H27      1.0000 0.59600  0.30950  0.90140  Biso   1.000  H
  H28      1.0000 0.40890  0.29920  0.90210  Biso   1.000  H
  H29      1.0000 0.10130  0.53570  0.60160  Biso   1.000  H
  H30      1.0000 0.72270  0.47360  0.52370  Biso   1.000  H
  H31      1.0000 0.09760  0.31820  0.53530  Biso   1.000  H
  H32      1.0000 0.67370  0.40450  0.31930  Biso   1.000  H
  H33      1.0000 0.00340  0.84480  0.44500  Biso   1.000  H
  H34      1.0000 0.90400  0.80950  0.40140  Biso   1.000  H
  H35      1.0000 0.09110  0.79920  0.40210  Biso   1.000  H
  H36      1.0000 0.39870  0.03570  0.39840  Biso   1.000  H
  H37      1.0000 0.77730  0.97360  0.47630  Biso   1.000  H
  H38      1.0000 0.40240  0.81820  0.46470  Biso   1.000  H
  H39      1.0000 0.82630  0.90450  0.68070  Biso   1.000  H
  H40      1.0000 0.49660  0.34480  0.55500  Biso   1.000  H
  H41      1.0000 0.59600  0.30950  0.59860  Biso   1.000  H
  H42      1.0000 0.40890  0.29920  0.59790  Biso   1.000  H
  H43      1.0000 0.89870  0.46430  0.10160  Biso   1.000  H
  H44      1.0000 0.27730  0.52640  0.02370  Biso   1.000  H
  H45      1.0000 0.90240  0.68180  0.03530  Biso   1.000  H
  H46      1.0000 0.32630  0.59550  0.81930  Biso   1.000  H
  H47      1.0000 0.99660  0.15520  0.94500  Biso   1.000  H
  H48      1.0000 0.09600  0.19050  0.90140  Biso   1.000  H
  H49      1.0000 0.90890  0.20080  0.90210  Biso   1.000  H
  H50      1.0000 0.60130  0.96430  0.89840  Biso   1.000  H
  H51      1.0000 0.22270  0.02640  0.97630  Biso   1.000  H
  H52      1.0000 0.59760  0.18180  0.96470  Biso   1.000  H
  H53      1.0000 0.17370  0.09550  0.18070  Biso   1.000  H
  H54      1.0000 0.50340  0.65520  0.05500  Biso   1.000  H
  H55      1.0000 0.40400  0.69050  0.09860  Biso   1.000  H
  H56      1.0000 0.59110  0.70080  0.09790  Biso   1.000  H
  H57      1.0000 0.10320  0.78290  0.75000  Biso   1.000  H
  H58      1.0000 0.39680  0.28290  0.25000  Biso   1.000  H
  H59      1.0000 0.89680  0.21710  0.25000  Biso   1.000  H
  H60      1.0000 0.60320  0.71710  0.75000  Biso   1.000  H
  C1       1.0000 0.95140  0.50380  0.41816  Biso   1.000  C
  C2       1.0000 0.09920  0.48220  0.43478  Biso   1.000  C
  C3       1.0000 0.17570  0.53910  0.46433  Biso   1.000  C
  C4       1.0000 0.10210  0.61400  0.47595  Biso   1.000  C
  C5       1.0000 0.95310  0.62980  0.45673  Biso   1.000  C
  C6       1.0000 0.17270  0.67640  0.51058  Biso   1.000  C
  C7       1.0000 0.17080  0.39800  0.42396  Biso   1.000  C
  C8       1.0000 0.29520  0.62050  0.70964  Biso   1.000  C
  C9       1.0000 0.21050  0.69550  0.70796  Biso   1.000  C
  C10      1.0000 0.16650  0.73330  0.66201  Biso   1.000  C
  C11      1.0000 0.94420  0.01200  0.58940  Biso   1.000  C
  C12      1.0000 0.99680  0.16380  0.58910  Biso   1.000  C
  C13      1.0000 0.92890  0.08530  0.66440  Biso   1.000  C
  C14      1.0000 0.54860  0.00380  0.58184  Biso   1.000  C
  C15      1.0000 0.40080  0.98220  0.56522  Biso   1.000  C
  C16      1.0000 0.32430  0.03910  0.53567  Biso   1.000  C
  C17      1.0000 0.39790  0.11400  0.52405  Biso   1.000  C
  C18      1.0000 0.54690  0.12980  0.54327  Biso   1.000  C
  C19      1.0000 0.32730  0.17640  0.48942  Biso   1.000  C
  C20      1.0000 0.32920  0.89800  0.57604  Biso   1.000  C
  C21      1.0000 0.20480  0.12050  0.29036  Biso   1.000  C
  C22      1.0000 0.28950  0.19550  0.29204  Biso   1.000  C
  C23      1.0000 0.33350  0.23330  0.33799  Biso   1.000  C
  C24      1.0000 0.55580  0.51200  0.41060  Biso   1.000  C
  C25      1.0000 0.50320  0.66380  0.41090  Biso   1.000  C
  C26      1.0000 0.57110  0.58530  0.33560  Biso   1.000  C
  C27      1.0000 0.04860  0.49620  0.91816  Biso   1.000  C
  C28      1.0000 0.90080  0.51780  0.93478  Biso   1.000  C
  C29      1.0000 0.82430  0.46090  0.96433  Biso   1.000  C
  C30      1.0000 0.89790  0.38600  0.97595  Biso   1.000  C
  C31      1.0000 0.04690  0.37020  0.95673  Biso   1.000  C
  C32      1.0000 0.82730  0.32360  0.01058  Biso   1.000  C
  C33      1.0000 0.82920  0.60200  0.92396  Biso   1.000  C
  C34      1.0000 0.70480  0.37950  0.20964  Biso   1.000  C
  C35      1.0000 0.78950  0.30450  0.20796  Biso   1.000  C
  C36      1.0000 0.83350  0.26670  0.16201  Biso   1.000  C
  C37      1.0000 0.05580  0.98800  0.08940  Biso   1.000  C
  C38      1.0000 0.00320  0.83620  0.08910  Biso   1.000  C
  C39      1.0000 0.07110  0.91470  0.16440  Biso   1.000  C
  C40      1.0000 0.45140  0.99620  0.08184  Biso   1.000  C
  C41      1.0000 0.59920  0.01780  0.06522  Biso   1.000  C
  C42      1.0000 0.67570  0.96090  0.03567  Biso   1.000  C
  C43      1.0000 0.60210  0.88600  0.02405  Biso   1.000  C
  C44      1.0000 0.45310  0.87020  0.04327  Biso   1.000  C
  C45      1.0000 0.67270  0.82360  0.98942  Biso   1.000  C
  C46      1.0000 0.67080  0.10200  0.07604  Biso   1.000  C
  C47      1.0000 0.79520  0.87950  0.79036  Biso   1.000  C
  C48      1.0000 0.71050  0.80450  0.79204  Biso   1.000  C
  C49      1.0000 0.66650  0.76670  0.83799  Biso   1.000  C
  C50      1.0000 0.44420  0.48800  0.91060  Biso   1.000  C
  C51      1.0000 0.49680  0.33620  0.91090  Biso   1.000  C
  C52      1.0000 0.42890  0.41470  0.83560  Biso   1.000  C
  C53      1.0000 0.04860  0.49620  0.58184  Biso   1.000  C
  C54      1.0000 0.90080  0.51780  0.56522  Biso   1.000  C
  C55      1.0000 0.82430  0.46090  0.53567  Biso   1.000  C
  C56      1.0000 0.89790  0.38600  0.52405  Biso   1.000  C
  C57      1.0000 0.04690  0.37020  0.54327  Biso   1.000  C
  C58      1.0000 0.82730  0.32360  0.48942  Biso   1.000  C
  C59      1.0000 0.82920  0.60200  0.57604  Biso   1.000  C
  C60      1.0000 0.70480  0.37950  0.29036  Biso   1.000  C
  C61      1.0000 0.78950  0.30450  0.29204  Biso   1.000  C
  C62      1.0000 0.83350  0.26670  0.33799  Biso   1.000  C
  C63      1.0000 0.05580  0.98800  0.41060  Biso   1.000  C
  C64      1.0000 0.00320  0.83620  0.41090  Biso   1.000  C
  C65      1.0000 0.07110  0.91470  0.33560  Biso   1.000  C
  C66      1.0000 0.45140  0.99620  0.41816  Biso   1.000  C
  C67      1.0000 0.59920  0.01780  0.43478  Biso   1.000  C
  C68      1.0000 0.67570  0.96090  0.46433  Biso   1.000  C
  C69      1.0000 0.60210  0.88600  0.47595  Biso   1.000  C
  C70      1.0000 0.45310  0.87020  0.45673  Biso   1.000  C
  C71      1.0000 0.67270  0.82360  0.51058  Biso   1.000  C
  C72      1.0000 0.67080  0.10200  0.42396  Biso   1.000  C
  C73      1.0000 0.79520  0.87950  0.70964  Biso   1.000  C
  C74      1.0000 0.71050  0.80450  0.70796  Biso   1.000  C
  C75      1.0000 0.66650  0.76670  0.66201  Biso   1.000  C
  C76      1.0000 0.44420  0.48800  0.58940  Biso   1.000  C
  C77      1.0000 0.49680  0.33620  0.58910  Biso   1.000  C
  C78      1.0000 0.42890  0.41470  0.66440  Biso   1.000  C
  C79      1.0000 0.95140  0.50380  0.08184  Biso   1.000  C
  C80      1.0000 0.09920  0.48220  0.06522  Biso   1.000  C
  C81      1.0000 0.17570  0.53910  0.03567  Biso   1.000  C
  C82      1.0000 0.10210  0.61400  0.02405  Biso   1.000  C
  C83      1.0000 0.95310  0.62980  0.04327  Biso   1.000  C
  C84      1.0000 0.17270  0.67640  0.98942  Biso   1.000  C
  C85      1.0000 0.17080  0.39800  0.07604  Biso   1.000  C
  C86      1.0000 0.29520  0.62050  0.79036  Biso   1.000  C
  C87      1.0000 0.21050  0.69550  0.79204  Biso   1.000  C
  C88      1.0000 0.16650  0.73330  0.83799  Biso   1.000  C
  C89      1.0000 0.94420  0.01200  0.91060  Biso   1.000  C
  C90      1.0000 0.99680  0.16380  0.91090  Biso   1.000  C
  C91      1.0000 0.92890  0.08530  0.83560  Biso   1.000  C
  C92      1.0000 0.54860  0.00380  0.91816  Biso   1.000  C
  C93      1.0000 0.40080  0.98220  0.93478  Biso   1.000  C
  C94      1.0000 0.32430  0.03910  0.96433  Biso   1.000  C
  C95      1.0000 0.39790  0.11400  0.97595  Biso   1.000  C
  C96      1.0000 0.54690  0.12980  0.95673  Biso   1.000  C
  C97      1.0000 0.32730  0.17640  0.01058  Biso   1.000  C
  C98      1.0000 0.32920  0.89800  0.92396  Biso   1.000  C
  C99      1.0000 0.20480  0.12050  0.20964  Biso   1.000  C
  C100     1.0000 0.28950  0.19550  0.20796  Biso   1.000  C
  C101     1.0000 0.33350  0.23330  0.16201  Biso   1.000  C
  C102     1.0000 0.55580  0.51200  0.08940  Biso   1.000  C
  C103     1.0000 0.50320  0.66380  0.08910  Biso   1.000  C
  C104     1.0000 0.57110  0.58530  0.16440  Biso   1.000  C
  C105     1.0000 0.16500  0.73260  0.75000  Biso   1.000  C
  C106     1.0000 0.33500  0.23260  0.25000  Biso   1.000  C
  C107     1.0000 0.83500  0.26740  0.25000  Biso   1.000  C
  C108     1.0000 0.66500  0.76740  0.75000  Biso   1.000  C
  N1       1.0000 0.87890  0.57680  0.42825  Biso   1.000  N
  N2       1.0000 0.98010  0.08020  0.61314  Biso   1.000  N
  N3       1.0000 0.62110  0.07680  0.57175  Biso   1.000  N
  N4       1.0000 0.51990  0.58020  0.38686  Biso   1.000  N
  N5       1.0000 0.12110  0.42320  0.92825  Biso   1.000  N
  N6       1.0000 0.01990  0.91980  0.11314  Biso   1.000  N
  N7       1.0000 0.37890  0.92320  0.07175  Biso   1.000  N
  N8       1.0000 0.48010  0.41980  0.88686  Biso   1.000  N
  N9       1.0000 0.12110  0.42320  0.57175  Biso   1.000  N
  N10      1.0000 0.01990  0.91980  0.38686  Biso   1.000  N
  N11      1.0000 0.37890  0.92320  0.42825  Biso   1.000  N
  N12      1.0000 0.48010  0.41980  0.61314  Biso   1.000  N
  N13      1.0000 0.87890  0.57680  0.07175  Biso   1.000  N
  N14      1.0000 0.98010  0.08020  0.88686  Biso   1.000  N
  N15      1.0000 0.62110  0.07680  0.92825  Biso   1.000  N
  N16      1.0000 0.51990  0.58020  0.11314  Biso   1.000  N
  N17      1.0000 0.33680  0.58010  0.75000  Biso   1.000  N
  N18      1.0000 0.16320  0.08010  0.25000  Biso   1.000  N
  N19      1.0000 0.66320  0.41990  0.25000  Biso   1.000  N
  N20      1.0000 0.83680  0.91990  0.75000  Biso   1.000  N
  O1       1.0000 0.06090  0.78970  0.66135  Biso   1.000  O
  O2       1.0000 0.91530  0.94230  0.60784  Biso   1.000  O
  O3       1.0000 0.22920  0.70770  0.62430  Biso   1.000  O
  O4       1.0000 0.09300  0.74070  0.52072  Biso   1.000  O
  O5       1.0000 0.30860  0.65880  0.52580  Biso   1.000  O
  O6       1.0000 0.08130  0.34080  0.40826  Biso   1.000  O
  O7       1.0000 0.31610  0.38870  0.43153  Biso   1.000  O
  O8       1.0000 0.43910  0.28970  0.33865  Biso   1.000  O
  O9       1.0000 0.58470  0.44230  0.39216  Biso   1.000  O
  O10      1.0000 0.27080  0.20770  0.37570  Biso   1.000  O
  O11      1.0000 0.40700  0.24070  0.47928  Biso   1.000  O
  O12      1.0000 0.19140  0.15880  0.47420  Biso   1.000  O
  O13      1.0000 0.41870  0.84080  0.59174  Biso   1.000  O
  O14      1.0000 0.18390  0.88870  0.56847  Biso   1.000  O
  O15      1.0000 0.93910  0.21030  0.16135  Biso   1.000  O
  O16      1.0000 0.08470  0.05770  0.10784  Biso   1.000  O
  O17      1.0000 0.77080  0.29230  0.12430  Biso   1.000  O
  O18      1.0000 0.90700  0.25930  0.02072  Biso   1.000  O
  O19      1.0000 0.69140  0.34120  0.02580  Biso   1.000  O
  O20      1.0000 0.91870  0.65920  0.90826  Biso   1.000  O
  O21      1.0000 0.68390  0.61130  0.93153  Biso   1.000  O
  O22      1.0000 0.56090  0.71030  0.83865  Biso   1.000  O
  O23      1.0000 0.41530  0.55770  0.89216  Biso   1.000  O
  O24      1.0000 0.72920  0.79230  0.87570  Biso   1.000  O
  O25      1.0000 0.59300  0.75930  0.97928  Biso   1.000  O
  O26      1.0000 0.80860  0.84120  0.97420  Biso   1.000  O
  O27      1.0000 0.58130  0.15920  0.09174  Biso   1.000  O
  O28      1.0000 0.81610  0.11130  0.06847  Biso   1.000  O
  O29      1.0000 0.93910  0.21030  0.33865  Biso   1.000  O
  O30      1.0000 0.08470  0.05770  0.39216  Biso   1.000  O
  O31      1.0000 0.77080  0.29230  0.37570  Biso   1.000  O
  O32      1.0000 0.90700  0.25930  0.47928  Biso   1.000  O
  O33      1.0000 0.69140  0.34120  0.47420  Biso   1.000  O
  O34      1.0000 0.91870  0.65920  0.59174  Biso   1.000  O
  O35      1.0000 0.68390  0.61130  0.56847  Biso   1.000  O
  O36      1.0000 0.56090  0.71030  0.66135  Biso   1.000  O
  O37      1.0000 0.41530  0.55770  0.60784  Biso   1.000  O
  O38      1.0000 0.72920  0.79230  0.62430  Biso   1.000  O
  O39      1.0000 0.59300  0.75930  0.52072  Biso   1.000  O
  O40      1.0000 0.80860  0.84120  0.52580  Biso   1.000  O
  O41      1.0000 0.58130  0.15920  0.40826  Biso   1.000  O
  O42      1.0000 0.81610  0.11130  0.43153  Biso   1.000  O
  O43      1.0000 0.06090  0.78970  0.83865  Biso   1.000  O
  O44      1.0000 0.91530  0.94230  0.89216  Biso   1.000  O
  O45      1.0000 0.22920  0.70770  0.87570  Biso   1.000  O
  O46      1.0000 0.09300  0.74070  0.97928  Biso   1.000  O
  O47      1.0000 0.30860  0.65880  0.97420  Biso   1.000  O
  O48      1.0000 0.08130  0.34080  0.09174  Biso   1.000  O
  O49      1.0000 0.31610  0.38870  0.06847  Biso   1.000  O
  O50      1.0000 0.43910  0.28970  0.16135  Biso   1.000  O
  O51      1.0000 0.58470  0.44230  0.10784  Biso   1.000  O
  O52      1.0000 0.27080  0.20770  0.12430  Biso   1.000  O
  O53      1.0000 0.40700  0.24070  0.02072  Biso   1.000  O
  O54      1.0000 0.19140  0.15880  0.02580  Biso   1.000  O
  O55      1.0000 0.41870  0.84080  0.90826  Biso   1.000  O
  O56      1.0000 0.18390  0.88870  0.93153  Biso   1.000  O
