data_image0
_cell_length_a       8.438
_cell_length_b       15.934
_cell_length_c       27.795
_cell_angle_alpha    90
_cell_angle_beta     90
_cell_angle_gamma    90

_symmetry_space_group_name_H-M    P 1
_symmetry_int_tables_number       1

loop_
  _symmetry_equiv_pos_as_xyz
  'x, y, z'

loop_
  _atom_site_label
  _atom_site_occupancy
  _atom_site_fract_x
  _atom_site_fract_y
  _atom_site_fract_z
  _atom_site_thermal_displace_type
  _atom_site_B_iso_or_equiv
  _atom_site_type_symbol
  Er1      1.0000 0.52312  0.69889  0.91868  Biso   1.000  Er
  Er2      1.0000 0.97688  0.19889  0.08132  Biso   1.000  Er
  Er3      1.0000 0.47688  0.30111  0.41868  Biso   1.000  Er
  Er4      1.0000 0.02312  0.80111  0.58132  Biso   1.000  Er
  Er5      1.0000 0.47688  0.30111  0.08132  Biso   1.000  Er
  Er6      1.0000 0.02312  0.80111  0.91868  Biso   1.000  Er
  Er7      1.0000 0.52312  0.69889  0.58132  Biso   1.000  Er
  Er8      1.0000 0.97688  0.19889  0.41868  Biso   1.000  Er
  H1       1.0000 0.59520  0.81700  0.04400  Biso   1.000  H
  H2       1.0000 0.38320  0.52310  0.83940  Biso   1.000  H
  H3       1.0000 0.28620  0.43690  0.83860  Biso   1.000  H
  H4       1.0000 0.44860  0.44500  0.80920  Biso   1.000  H
  H5       1.0000 0.54610  0.30670  0.88520  Biso   1.000  H
  H6       1.0000 0.36340  0.32390  0.89720  Biso   1.000  H
  H7       1.0000 0.49620  0.34170  0.93700  Biso   1.000  H
  H8       1.0000 0.22670  0.97480  0.02300  Biso   1.000  H
  H9       1.0000 0.60030  0.03830  0.10580  Biso   1.000  H
  H10      1.0000 0.18400  0.90630  0.82080  Biso   1.000  H
  H11      1.0000 0.90480  0.31700  0.95600  Biso   1.000  H
  H12      1.0000 0.11680  0.02310  0.16060  Biso   1.000  H
  H13      1.0000 0.21380  0.93690  0.16140  Biso   1.000  H
  H14      1.0000 0.05140  0.94500  0.19080  Biso   1.000  H
  H15      1.0000 0.95390  0.80670  0.11480  Biso   1.000  H
  H16      1.0000 0.13660  0.82390  0.10280  Biso   1.000  H
  H17      1.0000 0.00380  0.84170  0.06300  Biso   1.000  H
  H18      1.0000 0.27330  0.47480  0.97700  Biso   1.000  H
  H19      1.0000 0.89970  0.53830  0.89420  Biso   1.000  H
  H20      1.0000 0.31600  0.40630  0.17920  Biso   1.000  H
  H21      1.0000 0.40480  0.18300  0.54400  Biso   1.000  H
  H22      1.0000 0.61680  0.47690  0.33940  Biso   1.000  H
  H23      1.0000 0.71380  0.56310  0.33860  Biso   1.000  H
  H24      1.0000 0.55140  0.55500  0.30920  Biso   1.000  H
  H25      1.0000 0.45390  0.69330  0.38520  Biso   1.000  H
  H26      1.0000 0.63660  0.67610  0.39720  Biso   1.000  H
  H27      1.0000 0.50380  0.65830  0.43700  Biso   1.000  H
  H28      1.0000 0.77330  0.02520  0.52300  Biso   1.000  H
  H29      1.0000 0.39970  0.96170  0.60580  Biso   1.000  H
  H30      1.0000 0.81600  0.09370  0.32080  Biso   1.000  H
  H31      1.0000 0.09520  0.68300  0.45600  Biso   1.000  H
  H32      1.0000 0.88320  0.97690  0.66060  Biso   1.000  H
  H33      1.0000 0.78620  0.06310  0.66140  Biso   1.000  H
  H34      1.0000 0.94860  0.05500  0.69080  Biso   1.000  H
  H35      1.0000 0.04610  0.19330  0.61480  Biso   1.000  H
  H36      1.0000 0.86340  0.17610  0.60280  Biso   1.000  H
  H37      1.0000 0.99620  0.15830  0.56300  Biso   1.000  H
  H38      1.0000 0.72670  0.52520  0.47700  Biso   1.000  H
  H39      1.0000 0.10030  0.46170  0.39420  Biso   1.000  H
  H40      1.0000 0.68400  0.59370  0.67920  Biso   1.000  H
  H41      1.0000 0.40480  0.18300  0.95600  Biso   1.000  H
  H42      1.0000 0.61680  0.47690  0.16060  Biso   1.000  H
  H43      1.0000 0.71380  0.56310  0.16140  Biso   1.000  H
  H44      1.0000 0.55140  0.55500  0.19080  Biso   1.000  H
  H45      1.0000 0.45390  0.69330  0.11480  Biso   1.000  H
  H46      1.0000 0.63660  0.67610  0.10280  Biso   1.000  H
  H47      1.0000 0.50380  0.65830  0.06300  Biso   1.000  H
  H48      1.0000 0.77330  0.02520  0.97700  Biso   1.000  H
  H49      1.0000 0.39970  0.96170  0.89420  Biso   1.000  H
  H50      1.0000 0.81600  0.09370  0.17920  Biso   1.000  H
  H51      1.0000 0.09520  0.68300  0.04400  Biso   1.000  H
  H52      1.0000 0.88320  0.97690  0.83940  Biso   1.000  H
  H53      1.0000 0.78620  0.06310  0.83860  Biso   1.000  H
  H54      1.0000 0.94860  0.05500  0.80920  Biso   1.000  H
  H55      1.0000 0.04610  0.19330  0.88520  Biso   1.000  H
  H56      1.0000 0.86340  0.17610  0.89720  Biso   1.000  H
  H57      1.0000 0.99620  0.15830  0.93700  Biso   1.000  H
  H58      1.0000 0.72670  0.52520  0.02300  Biso   1.000  H
  H59      1.0000 0.10030  0.46170  0.10580  Biso   1.000  H
  H60      1.0000 0.68400  0.59370  0.82080  Biso   1.000  H
  H61      1.0000 0.59520  0.81700  0.45600  Biso   1.000  H
  H62      1.0000 0.38320  0.52310  0.66060  Biso   1.000  H
  H63      1.0000 0.28620  0.43690  0.66140  Biso   1.000  H
  H64      1.0000 0.44860  0.44500  0.69080  Biso   1.000  H
  H65      1.0000 0.54610  0.30670  0.61480  Biso   1.000  H
  H66      1.0000 0.36340  0.32390  0.60280  Biso   1.000  H
  H67      1.0000 0.49620  0.34170  0.56300  Biso   1.000  H
  H68      1.0000 0.22670  0.97480  0.47700  Biso   1.000  H
  H69      1.0000 0.60030  0.03830  0.39420  Biso   1.000  H
  H70      1.0000 0.18400  0.90630  0.67920  Biso   1.000  H
  H71      1.0000 0.90480  0.31700  0.54400  Biso   1.000  H
  H72      1.0000 0.11680  0.02310  0.33940  Biso   1.000  H
  H73      1.0000 0.21380  0.93690  0.33860  Biso   1.000  H
  H74      1.0000 0.05140  0.94500  0.30920  Biso   1.000  H
  H75      1.0000 0.95390  0.80670  0.38520  Biso   1.000  H
  H76      1.0000 0.13660  0.82390  0.39720  Biso   1.000  H
  H77      1.0000 0.00380  0.84170  0.43700  Biso   1.000  H
  H78      1.0000 0.27330  0.47480  0.52300  Biso   1.000  H
  H79      1.0000 0.89970  0.53830  0.60580  Biso   1.000  H
  H80      1.0000 0.31600  0.40630  0.32080  Biso   1.000  H
  H81      1.0000 0.38920  0.71570  0.75000  Biso   1.000  H
  H82      1.0000 0.11080  0.21570  0.25000  Biso   1.000  H
  H83      1.0000 0.61080  0.28430  0.25000  Biso   1.000  H
  H84      1.0000 0.88920  0.78430  0.75000  Biso   1.000  H
  C1       1.0000 0.54570  0.86960  0.04970  Biso   1.000  C
  C2       1.0000 0.39200  0.46190  0.83850  Biso   1.000  C
  C3       1.0000 0.40000  0.88620  0.02760  Biso   1.000  C
  C4       1.0000 0.47220  0.34330  0.90250  Biso   1.000  C
  C5       1.0000 0.32720  0.96240  0.03660  Biso   1.000  C
  C6       1.0000 0.55060  0.48880  0.91030  Biso   1.000  C
  C7       1.0000 0.40300  0.02060  0.06600  Biso   1.000  C
  C8       1.0000 0.54800  0.99850  0.08590  Biso   1.000  C
  C9       1.0000 0.32790  0.82420  0.99480  Biso   1.000  C
  C10      1.0000 0.33310  0.10590  0.07410  Biso   1.000  C
  C11      1.0000 0.21160  0.88020  0.79120  Biso   1.000  C
  C12      1.0000 0.28960  0.80320  0.79280  Biso   1.000  C
  C13      1.0000 0.33100  0.76580  0.83980  Biso   1.000  C
  C14      1.0000 0.95430  0.36960  0.95030  Biso   1.000  C
  C15      1.0000 0.10800  0.96190  0.16150  Biso   1.000  C
  C16      1.0000 0.10000  0.38620  0.97240  Biso   1.000  C
  C17      1.0000 0.02780  0.84330  0.09750  Biso   1.000  C
  C18      1.0000 0.17280  0.46240  0.96340  Biso   1.000  C
  C19      1.0000 0.94940  0.98880  0.08970  Biso   1.000  C
  C20      1.0000 0.09700  0.52060  0.93400  Biso   1.000  C
  C21      1.0000 0.95200  0.49850  0.91410  Biso   1.000  C
  C22      1.0000 0.17210  0.32420  0.00520  Biso   1.000  C
  C23      1.0000 0.16690  0.60590  0.92590  Biso   1.000  C
  C24      1.0000 0.28840  0.38020  0.20880  Biso   1.000  C
  C25      1.0000 0.21040  0.30320  0.20720  Biso   1.000  C
  C26      1.0000 0.16900  0.26580  0.16020  Biso   1.000  C
  C27      1.0000 0.45430  0.13040  0.54970  Biso   1.000  C
  C28      1.0000 0.60800  0.53810  0.33850  Biso   1.000  C
  C29      1.0000 0.60000  0.11380  0.52760  Biso   1.000  C
  C30      1.0000 0.52780  0.65670  0.40250  Biso   1.000  C
  C31      1.0000 0.67280  0.03760  0.53660  Biso   1.000  C
  C32      1.0000 0.44940  0.51120  0.41030  Biso   1.000  C
  C33      1.0000 0.59700  0.97940  0.56600  Biso   1.000  C
  C34      1.0000 0.45200  0.00150  0.58590  Biso   1.000  C
  C35      1.0000 0.67210  0.17580  0.49480  Biso   1.000  C
  C36      1.0000 0.66690  0.89410  0.57410  Biso   1.000  C
  C37      1.0000 0.78840  0.11980  0.29120  Biso   1.000  C
  C38      1.0000 0.71040  0.19680  0.29280  Biso   1.000  C
  C39      1.0000 0.66900  0.23420  0.33980  Biso   1.000  C
  C40      1.0000 0.04570  0.63040  0.45030  Biso   1.000  C
  C41      1.0000 0.89200  0.03810  0.66150  Biso   1.000  C
  C42      1.0000 0.90000  0.61380  0.47240  Biso   1.000  C
  C43      1.0000 0.97220  0.15670  0.59750  Biso   1.000  C
  C44      1.0000 0.82720  0.53760  0.46340  Biso   1.000  C
  C45      1.0000 0.05060  0.01120  0.58970  Biso   1.000  C
  C46      1.0000 0.90300  0.47940  0.43400  Biso   1.000  C
  C47      1.0000 0.04800  0.50150  0.41410  Biso   1.000  C
  C48      1.0000 0.82790  0.67580  0.50520  Biso   1.000  C
  C49      1.0000 0.83310  0.39410  0.42590  Biso   1.000  C
  C50      1.0000 0.71160  0.61980  0.70880  Biso   1.000  C
  C51      1.0000 0.78960  0.69680  0.70720  Biso   1.000  C
  C52      1.0000 0.83100  0.73420  0.66020  Biso   1.000  C
  C53      1.0000 0.45430  0.13040  0.95030  Biso   1.000  C
  C54      1.0000 0.60800  0.53810  0.16150  Biso   1.000  C
  C55      1.0000 0.60000  0.11380  0.97240  Biso   1.000  C
  C56      1.0000 0.52780  0.65670  0.09750  Biso   1.000  C
  C57      1.0000 0.67280  0.03760  0.96340  Biso   1.000  C
  C58      1.0000 0.44940  0.51120  0.08970  Biso   1.000  C
  C59      1.0000 0.59700  0.97940  0.93400  Biso   1.000  C
  C60      1.0000 0.45200  0.00150  0.91410  Biso   1.000  C
  C61      1.0000 0.67210  0.17580  0.00520  Biso   1.000  C
  C62      1.0000 0.66690  0.89410  0.92590  Biso   1.000  C
  C63      1.0000 0.78840  0.11980  0.20880  Biso   1.000  C
  C64      1.0000 0.71040  0.19680  0.20720  Biso   1.000  C
  C65      1.0000 0.66900  0.23420  0.16020  Biso   1.000  C
  C66      1.0000 0.04570  0.63040  0.04970  Biso   1.000  C
  C67      1.0000 0.89200  0.03810  0.83850  Biso   1.000  C
  C68      1.0000 0.90000  0.61380  0.02760  Biso   1.000  C
  C69      1.0000 0.97220  0.15670  0.90250  Biso   1.000  C
  C70      1.0000 0.82720  0.53760  0.03660  Biso   1.000  C
  C71      1.0000 0.05060  0.01120  0.91030  Biso   1.000  C
  C72      1.0000 0.90300  0.47940  0.06600  Biso   1.000  C
  C73      1.0000 0.04800  0.50150  0.08590  Biso   1.000  C
  C74      1.0000 0.82790  0.67580  0.99480  Biso   1.000  C
  C75      1.0000 0.83310  0.39410  0.07410  Biso   1.000  C
  C76      1.0000 0.71160  0.61980  0.79120  Biso   1.000  C
  C77      1.0000 0.78960  0.69680  0.79280  Biso   1.000  C
  C78      1.0000 0.83100  0.73420  0.83980  Biso   1.000  C
  C79      1.0000 0.54570  0.86960  0.45030  Biso   1.000  C
  C80      1.0000 0.39200  0.46190  0.66150  Biso   1.000  C
  C81      1.0000 0.40000  0.88620  0.47240  Biso   1.000  C
  C82      1.0000 0.47220  0.34330  0.59750  Biso   1.000  C
  C83      1.0000 0.32720  0.96240  0.46340  Biso   1.000  C
  C84      1.0000 0.55060  0.48880  0.58970  Biso   1.000  C
  C85      1.0000 0.40300  0.02060  0.43400  Biso   1.000  C
  C86      1.0000 0.54800  0.99850  0.41410  Biso   1.000  C
  C87      1.0000 0.32790  0.82420  0.50520  Biso   1.000  C
  C88      1.0000 0.33310  0.10590  0.42590  Biso   1.000  C
  C89      1.0000 0.21160  0.88020  0.70880  Biso   1.000  C
  C90      1.0000 0.28960  0.80320  0.70720  Biso   1.000  C
  C91      1.0000 0.33100  0.76580  0.66020  Biso   1.000  C
  C92      1.0000 0.95430  0.36960  0.54970  Biso   1.000  C
  C93      1.0000 0.10800  0.96190  0.33850  Biso   1.000  C
  C94      1.0000 0.10000  0.38620  0.52760  Biso   1.000  C
  C95      1.0000 0.02780  0.84330  0.40250  Biso   1.000  C
  C96      1.0000 0.17280  0.46240  0.53660  Biso   1.000  C
  C97      1.0000 0.94940  0.98880  0.41030  Biso   1.000  C
  C98      1.0000 0.09700  0.52060  0.56600  Biso   1.000  C
  C99      1.0000 0.95200  0.49850  0.58590  Biso   1.000  C
  C100     1.0000 0.17210  0.32420  0.49480  Biso   1.000  C
  C101     1.0000 0.16690  0.60590  0.57410  Biso   1.000  C
  C102     1.0000 0.28840  0.38020  0.29120  Biso   1.000  C
  C103     1.0000 0.21040  0.30320  0.29280  Biso   1.000  C
  C104     1.0000 0.16900  0.26580  0.33980  Biso   1.000  C
  C105     1.0000 0.33110  0.76680  0.75000  Biso   1.000  C
  C106     1.0000 0.16890  0.26680  0.25000  Biso   1.000  C
  C107     1.0000 0.66890  0.23320  0.25000  Biso   1.000  C
  C108     1.0000 0.83110  0.73320  0.75000  Biso   1.000  C
  N1       1.0000 0.61800  0.92470  0.07850  Biso   1.000  N
  N2       1.0000 0.48850  0.43010  0.88470  Biso   1.000  N
  N3       1.0000 0.88200  0.42470  0.92150  Biso   1.000  N
  N4       1.0000 0.01150  0.93010  0.11530  Biso   1.000  N
  N5       1.0000 0.38200  0.07530  0.57850  Biso   1.000  N
  N6       1.0000 0.51150  0.56990  0.38470  Biso   1.000  N
  N7       1.0000 0.11800  0.57530  0.42150  Biso   1.000  N
  N8       1.0000 0.98850  0.06990  0.61530  Biso   1.000  N
  N9       1.0000 0.38200  0.07530  0.92150  Biso   1.000  N
  N10      1.0000 0.51150  0.56990  0.11530  Biso   1.000  N
  N11      1.0000 0.11800  0.57530  0.07850  Biso   1.000  N
  N12      1.0000 0.98850  0.06990  0.88470  Biso   1.000  N
  N13      1.0000 0.61800  0.92470  0.42150  Biso   1.000  N
  N14      1.0000 0.48850  0.43010  0.61530  Biso   1.000  N
  N15      1.0000 0.88200  0.42470  0.57850  Biso   1.000  N
  N16      1.0000 0.01150  0.93010  0.38470  Biso   1.000  N
  N17      1.0000 0.17300  0.91980  0.75000  Biso   1.000  N
  N18      1.0000 0.32700  0.41980  0.25000  Biso   1.000  N
  N19      1.0000 0.82700  0.08020  0.25000  Biso   1.000  N
  N20      1.0000 0.67300  0.58020  0.75000  Biso   1.000  N
  O1       1.0000 0.57850  0.56070  0.89550  Biso   1.000  O
  O2       1.0000 0.40800  0.75960  0.98460  Biso   1.000  O
  O3       1.0000 0.19240  0.83880  0.97820  Biso   1.000  O
  O4       1.0000 0.42380  0.16200  0.09000  Biso   1.000  O
  O5       1.0000 0.18990  0.11530  0.06380  Biso   1.000  O
  O6       1.0000 0.43510  0.70850  0.84090  Biso   1.000  O
  O7       1.0000 0.26750  0.79210  0.87845  Biso   1.000  O
  O8       1.0000 0.92150  0.06070  0.10450  Biso   1.000  O
  O9       1.0000 0.09200  0.25960  0.01540  Biso   1.000  O
  O10      1.0000 0.30760  0.33880  0.02180  Biso   1.000  O
  O11      1.0000 0.07620  0.66200  0.91000  Biso   1.000  O
  O12      1.0000 0.31010  0.61530  0.93620  Biso   1.000  O
  O13      1.0000 0.06490  0.20850  0.15910  Biso   1.000  O
  O14      1.0000 0.23250  0.29210  0.12155  Biso   1.000  O
  O15      1.0000 0.42150  0.43930  0.39550  Biso   1.000  O
  O16      1.0000 0.59200  0.24040  0.48460  Biso   1.000  O
  O17      1.0000 0.80760  0.16120  0.47820  Biso   1.000  O
  O18      1.0000 0.57620  0.83800  0.59000  Biso   1.000  O
  O19      1.0000 0.81010  0.88470  0.56380  Biso   1.000  O
  O20      1.0000 0.56490  0.29150  0.34090  Biso   1.000  O
  O21      1.0000 0.73250  0.20790  0.37845  Biso   1.000  O
  O22      1.0000 0.07850  0.93930  0.60450  Biso   1.000  O
  O23      1.0000 0.90800  0.74040  0.51540  Biso   1.000  O
  O24      1.0000 0.69240  0.66120  0.52180  Biso   1.000  O
  O25      1.0000 0.92380  0.33800  0.41000  Biso   1.000  O
  O26      1.0000 0.68990  0.38470  0.43620  Biso   1.000  O
  O27      1.0000 0.93510  0.79150  0.65910  Biso   1.000  O
  O28      1.0000 0.76750  0.70790  0.62155  Biso   1.000  O
  O29      1.0000 0.42150  0.43930  0.10450  Biso   1.000  O
  O30      1.0000 0.59200  0.24040  0.01540  Biso   1.000  O
  O31      1.0000 0.80760  0.16120  0.02180  Biso   1.000  O
  O32      1.0000 0.57620  0.83800  0.91000  Biso   1.000  O
  O33      1.0000 0.81010  0.88470  0.93620  Biso   1.000  O
  O34      1.0000 0.56490  0.29150  0.15910  Biso   1.000  O
  O35      1.0000 0.73250  0.20790  0.12155  Biso   1.000  O
  O36      1.0000 0.07850  0.93930  0.89550  Biso   1.000  O
  O37      1.0000 0.90800  0.74040  0.98460  Biso   1.000  O
  O38      1.0000 0.69240  0.66120  0.97820  Biso   1.000  O
  O39      1.0000 0.92380  0.33800  0.09000  Biso   1.000  O
  O40      1.0000 0.68990  0.38470  0.06380  Biso   1.000  O
  O41      1.0000 0.93510  0.79150  0.84090  Biso   1.000  O
  O42      1.0000 0.76750  0.70790  0.87845  Biso   1.000  O
  O43      1.0000 0.57850  0.56070  0.60450  Biso   1.000  O
  O44      1.0000 0.40800  0.75960  0.51540  Biso   1.000  O
  O45      1.0000 0.19240  0.83880  0.52180  Biso   1.000  O
  O46      1.0000 0.42380  0.16200  0.41000  Biso   1.000  O
  O47      1.0000 0.18990  0.11530  0.43620  Biso   1.000  O
  O48      1.0000 0.43510  0.70850  0.65910  Biso   1.000  O
  O49      1.0000 0.26750  0.79210  0.62155  Biso   1.000  O
  O50      1.0000 0.92150  0.06070  0.39550  Biso   1.000  O
  O51      1.0000 0.09200  0.25960  0.48460  Biso   1.000  O
  O52      1.0000 0.30760  0.33880  0.47820  Biso   1.000  O
  O53      1.0000 0.07620  0.66200  0.59000  Biso   1.000  O
  O54      1.0000 0.31010  0.61530  0.56380  Biso   1.000  O
  O55      1.0000 0.06490  0.20850  0.34090  Biso   1.000  O
  O56      1.0000 0.23250  0.29210  0.37845  Biso   1.000  O
