data_image0
_cell_length_a       15.1513
_cell_length_b       22.044
_cell_length_c       22.044
_cell_angle_alpha    90
_cell_angle_beta     90
_cell_angle_gamma    90

_symmetry_space_group_name_H-M    P 1
_symmetry_int_tables_number       1

loop_
  _symmetry_equiv_pos_as_xyz
  'x, y, z'

loop_
  _atom_site_label
  _atom_site_occupancy
  _atom_site_fract_x
  _atom_site_fract_y
  _atom_site_fract_z
  _atom_site_thermal_displace_type
  _atom_site_B_iso_or_equiv
  _atom_site_type_symbol
  Zn1      1.0000 0.98571  0.50000  0.50000  Biso   1.000  Zn
  Zn2      1.0000 0.48711  0.50000  0.50000  Biso   1.000  Zn
  Zn3      1.0000 0.00054  0.00000  0.00000  Biso   1.000  Zn
  Zn4      1.0000 0.50239  0.00000  0.00000  Biso   1.000  Zn
  Si1      1.0000 0.73710  0.50000  0.50000  Biso   1.000  Si
  Si2      1.0000 0.23700  0.50000  0.50000  Biso   1.000  Si
  Si3      1.0000 0.75200  0.00000  0.00000  Biso   1.000  Si
  Si4      1.0000 0.24880  0.00000  0.00000  Biso   1.000  Si
  H1       1.0000 0.88070  0.53690  0.61080  Biso   1.000  H
  H2       1.0000 0.87850  0.61310  0.68470  Biso   1.000  H
  H3       1.0000 0.08830  0.69400  0.60430  Biso   1.000  H
  H4       1.0000 0.09050  0.61780  0.53040  Biso   1.000  H
  H5       1.0000 0.99430  0.85450  0.72750  Biso   1.000  H
  H6       1.0000 0.96910  0.64740  0.77040  Biso   1.000  H
  H7       1.0000 0.05550  0.86910  0.62470  Biso   1.000  H
  H8       1.0000 0.95120  0.87190  0.63750  Biso   1.000  H
  H9       1.0000 0.91860  0.84200  0.54530  Biso   1.000  H
  H10      1.0000 0.93040  0.93510  0.54540  Biso   1.000  H
  H11      1.0000 0.07600  0.80400  0.50800  Biso   1.000  H
  H12      1.0000 0.98140  0.79780  0.47630  Biso   1.000  H
  H13      1.0000 0.04030  0.85690  0.46480  Biso   1.000  H
  H14      1.0000 0.01660  0.62620  0.86360  Biso   1.000  H
  H15      1.0000 0.08450  0.67180  0.89690  Biso   1.000  H
  H16      1.0000 0.91070  0.66450  0.96080  Biso   1.000  H
  H17      1.0000 0.00480  0.58080  0.00170  Biso   1.000  H
  H18      1.0000 0.09440  0.64400  0.98950  Biso   1.000  H
  H19      1.0000 0.06830  0.71160  0.96980  Biso   1.000  H
  H20      1.0000 0.02750  0.68270  0.03020  Biso   1.000  H
  H21      1.0000 0.09570  0.88500  0.81110  Biso   1.000  H
  H22      1.0000 0.09930  0.95970  0.88700  Biso   1.000  H
  H23      1.0000 0.89460  0.88950  0.96380  Biso   1.000  H
  H24      1.0000 0.88530  0.81440  0.89340  Biso   1.000  H
  H25      1.0000 0.59470  0.53620  0.61270  Biso   1.000  H
  H26      1.0000 0.60050  0.60430  0.68740  Biso   1.000  H
  H27      1.0000 0.38760  0.68830  0.61130  Biso   1.000  H
  H28      1.0000 0.38470  0.60920  0.54300  Biso   1.000  H
  H29      1.0000 0.50410  0.73050  0.85290  Biso   1.000  H
  H30      1.0000 0.48430  0.77360  0.64540  Biso   1.000  H
  H31      1.0000 0.40450  0.61210  0.83480  Biso   1.000  H
  H32      1.0000 0.48340  0.63660  0.87690  Biso   1.000  H
  H33      1.0000 0.56050  0.54440  0.84270  Biso   1.000  H
  H34      1.0000 0.52070  0.55470  0.94150  Biso   1.000  H
  H35      1.0000 0.46760  0.50450  0.77120  Biso   1.000  H
  H36      1.0000 0.45670  0.45980  0.82790  Biso   1.000  H
  H37      1.0000 0.38290  0.50990  0.81430  Biso   1.000  H
  H38      1.0000 0.54980  0.86450  0.63020  Biso   1.000  H
  H39      1.0000 0.44420  0.87350  0.63190  Biso   1.000  H
  H40      1.0000 0.57390  0.96470  0.66600  Biso   1.000  H
  H41      1.0000 0.53110  0.93690  0.56680  Biso   1.000  H
  H42      1.0000 0.44880  0.98630  0.72560  Biso   1.000  H
  H43      1.0000 0.46620  0.03760  0.67560  Biso   1.000  H
  H44      1.0000 0.39010  0.98830  0.66530  Biso   1.000  H
  H45      1.0000 0.60920  0.81450  0.88140  Biso   1.000  H
  H46      1.0000 0.61010  0.88680  0.95920  Biso   1.000  H
  H47      1.0000 0.39810  0.96950  0.88340  Biso   1.000  H
  H48      1.0000 0.39730  0.89730  0.80560  Biso   1.000  H
  H49      1.0000 0.88070  0.46310  0.38920  Biso   1.000  H
  H50      1.0000 0.87850  0.38690  0.31530  Biso   1.000  H
  H51      1.0000 0.08830  0.30600  0.39570  Biso   1.000  H
  H52      1.0000 0.09050  0.38220  0.46960  Biso   1.000  H
  H53      1.0000 0.99430  0.14550  0.27250  Biso   1.000  H
  H54      1.0000 0.96910  0.35260  0.22960  Biso   1.000  H
  H55      1.0000 0.05550  0.13090  0.37530  Biso   1.000  H
  H56      1.0000 0.95120  0.12810  0.36250  Biso   1.000  H
  H57      1.0000 0.91860  0.15800  0.45470  Biso   1.000  H
  H58      1.0000 0.93040  0.06490  0.45460  Biso   1.000  H
  H59      1.0000 0.07600  0.19600  0.49200  Biso   1.000  H
  H60      1.0000 0.98140  0.20220  0.52370  Biso   1.000  H
  H61      1.0000 0.04030  0.14310  0.53520  Biso   1.000  H
  H62      1.0000 0.01660  0.37380  0.13640  Biso   1.000  H
  H63      1.0000 0.08450  0.32820  0.10310  Biso   1.000  H
  H64      1.0000 0.91070  0.33550  0.03920  Biso   1.000  H
  H65      1.0000 0.00480  0.41920  0.99830  Biso   1.000  H
  H66      1.0000 0.09440  0.35600  0.01050  Biso   1.000  H
  H67      1.0000 0.06830  0.28840  0.03020  Biso   1.000  H
  H68      1.0000 0.02750  0.31730  0.96980  Biso   1.000  H
  H69      1.0000 0.09570  0.11500  0.18890  Biso   1.000  H
  H70      1.0000 0.09930  0.04030  0.11300  Biso   1.000  H
  H71      1.0000 0.89460  0.11050  0.03620  Biso   1.000  H
  H72      1.0000 0.88530  0.18560  0.10660  Biso   1.000  H
  H73      1.0000 0.59470  0.46380  0.38730  Biso   1.000  H
  H74      1.0000 0.60050  0.39570  0.31260  Biso   1.000  H
  H75      1.0000 0.38760  0.31170  0.38870  Biso   1.000  H
  H76      1.0000 0.38470  0.39080  0.45700  Biso   1.000  H
  H77      1.0000 0.50410  0.26950  0.14710  Biso   1.000  H
  H78      1.0000 0.48430  0.22640  0.35460  Biso   1.000  H
  H79      1.0000 0.40450  0.38790  0.16520  Biso   1.000  H
  H80      1.0000 0.48340  0.36340  0.12310  Biso   1.000  H
  H81      1.0000 0.56050  0.45560  0.15730  Biso   1.000  H
  H82      1.0000 0.52070  0.44530  0.05850  Biso   1.000  H
  H83      1.0000 0.46760  0.49550  0.22880  Biso   1.000  H
  H84      1.0000 0.45670  0.54020  0.17210  Biso   1.000  H
  H85      1.0000 0.38290  0.49010  0.18570  Biso   1.000  H
  H86      1.0000 0.54980  0.13550  0.36980  Biso   1.000  H
  H87      1.0000 0.44420  0.12650  0.36810  Biso   1.000  H
  H88      1.0000 0.57390  0.03530  0.33400  Biso   1.000  H
  H89      1.0000 0.53110  0.06310  0.43320  Biso   1.000  H
  H90      1.0000 0.44880  0.01370  0.27440  Biso   1.000  H
  H91      1.0000 0.46620  0.96240  0.32440  Biso   1.000  H
  H92      1.0000 0.39010  0.01170  0.33470  Biso   1.000  H
  H93      1.0000 0.60920  0.18550  0.11860  Biso   1.000  H
  H94      1.0000 0.61010  0.11320  0.04080  Biso   1.000  H
  H95      1.0000 0.39810  0.03050  0.11660  Biso   1.000  H
  H96      1.0000 0.39730  0.10270  0.19440  Biso   1.000  H
  H97      1.0000 0.88070  0.38920  0.53690  Biso   1.000  H
  H98      1.0000 0.87850  0.31530  0.61310  Biso   1.000  H
  H99      1.0000 0.08830  0.39570  0.69400  Biso   1.000  H
  H100     1.0000 0.09050  0.46960  0.61780  Biso   1.000  H
  H101     1.0000 0.99430  0.27250  0.85450  Biso   1.000  H
  H102     1.0000 0.96910  0.22960  0.64740  Biso   1.000  H
  H103     1.0000 0.05550  0.37530  0.86910  Biso   1.000  H
  H104     1.0000 0.95120  0.36250  0.87190  Biso   1.000  H
  H105     1.0000 0.91860  0.45470  0.84200  Biso   1.000  H
  H106     1.0000 0.93040  0.45460  0.93510  Biso   1.000  H
  H107     1.0000 0.07600  0.49200  0.80400  Biso   1.000  H
  H108     1.0000 0.98140  0.52370  0.79780  Biso   1.000  H
  H109     1.0000 0.04030  0.53520  0.85690  Biso   1.000  H
  H110     1.0000 0.01660  0.13640  0.62620  Biso   1.000  H
  H111     1.0000 0.08450  0.10310  0.67180  Biso   1.000  H
  H112     1.0000 0.91070  0.03920  0.66450  Biso   1.000  H
  H113     1.0000 0.00480  0.99830  0.58080  Biso   1.000  H
  H114     1.0000 0.09440  0.01050  0.64400  Biso   1.000  H
  H115     1.0000 0.06830  0.03020  0.71160  Biso   1.000  H
  H116     1.0000 0.02750  0.96980  0.68270  Biso   1.000  H
  H117     1.0000 0.09570  0.18890  0.88500  Biso   1.000  H
  H118     1.0000 0.09930  0.11300  0.95970  Biso   1.000  H
  H119     1.0000 0.89460  0.03620  0.88950  Biso   1.000  H
  H120     1.0000 0.88530  0.10660  0.81440  Biso   1.000  H
  H121     1.0000 0.59470  0.38730  0.53620  Biso   1.000  H
  H122     1.0000 0.60050  0.31260  0.60430  Biso   1.000  H
  H123     1.0000 0.38760  0.38870  0.68830  Biso   1.000  H
  H124     1.0000 0.38470  0.45700  0.60920  Biso   1.000  H
  H125     1.0000 0.50410  0.14710  0.73050  Biso   1.000  H
  H126     1.0000 0.48430  0.35460  0.77360  Biso   1.000  H
  H127     1.0000 0.40450  0.16520  0.61210  Biso   1.000  H
  H128     1.0000 0.48340  0.12310  0.63660  Biso   1.000  H
  H129     1.0000 0.56050  0.15730  0.54440  Biso   1.000  H
  H130     1.0000 0.52070  0.05850  0.55470  Biso   1.000  H
  H131     1.0000 0.46760  0.22880  0.50450  Biso   1.000  H
  H132     1.0000 0.45670  0.17210  0.45980  Biso   1.000  H
  H133     1.0000 0.38290  0.18570  0.50990  Biso   1.000  H
  H134     1.0000 0.54980  0.36980  0.86450  Biso   1.000  H
  H135     1.0000 0.44420  0.36810  0.87350  Biso   1.000  H
  H136     1.0000 0.57390  0.33400  0.96470  Biso   1.000  H
  H137     1.0000 0.53110  0.43320  0.93690  Biso   1.000  H
  H138     1.0000 0.44880  0.27440  0.98630  Biso   1.000  H
  H139     1.0000 0.46620  0.32440  0.03760  Biso   1.000  H
  H140     1.0000 0.39010  0.33470  0.98830  Biso   1.000  H
  H141     1.0000 0.60920  0.11860  0.81450  Biso   1.000  H
  H142     1.0000 0.61010  0.04080  0.88680  Biso   1.000  H
  H143     1.0000 0.39810  0.11660  0.96950  Biso   1.000  H
  H144     1.0000 0.39730  0.19440  0.89730  Biso   1.000  H
  H145     1.0000 0.88070  0.61080  0.46310  Biso   1.000  H
  H146     1.0000 0.87850  0.68470  0.38690  Biso   1.000  H
  H147     1.0000 0.08830  0.60430  0.30600  Biso   1.000  H
  H148     1.0000 0.09050  0.53040  0.38220  Biso   1.000  H
  H149     1.0000 0.99430  0.72750  0.14550  Biso   1.000  H
  H150     1.0000 0.96910  0.77040  0.35260  Biso   1.000  H
  H151     1.0000 0.05550  0.62470  0.13090  Biso   1.000  H
  H152     1.0000 0.95120  0.63750  0.12810  Biso   1.000  H
  H153     1.0000 0.91860  0.54530  0.15800  Biso   1.000  H
  H154     1.0000 0.93040  0.54540  0.06490  Biso   1.000  H
  H155     1.0000 0.07600  0.50800  0.19600  Biso   1.000  H
  H156     1.0000 0.98140  0.47630  0.20220  Biso   1.000  H
  H157     1.0000 0.04030  0.46480  0.14310  Biso   1.000  H
  H158     1.0000 0.01660  0.86360  0.37380  Biso   1.000  H
  H159     1.0000 0.08450  0.89690  0.32820  Biso   1.000  H
  H160     1.0000 0.91070  0.96080  0.33550  Biso   1.000  H
  H161     1.0000 0.00480  0.00170  0.41920  Biso   1.000  H
  H162     1.0000 0.09440  0.98950  0.35600  Biso   1.000  H
  H163     1.0000 0.06830  0.96980  0.28840  Biso   1.000  H
  H164     1.0000 0.02750  0.03020  0.31730  Biso   1.000  H
  H165     1.0000 0.09570  0.81110  0.11500  Biso   1.000  H
  H166     1.0000 0.09930  0.88700  0.04030  Biso   1.000  H
  H167     1.0000 0.89460  0.96380  0.11050  Biso   1.000  H
  H168     1.0000 0.88530  0.89340  0.18560  Biso   1.000  H
  H169     1.0000 0.59470  0.61270  0.46380  Biso   1.000  H
  H170     1.0000 0.60050  0.68740  0.39570  Biso   1.000  H
  H171     1.0000 0.38760  0.61130  0.31170  Biso   1.000  H
  H172     1.0000 0.38470  0.54300  0.39080  Biso   1.000  H
  H173     1.0000 0.50410  0.85290  0.26950  Biso   1.000  H
  H174     1.0000 0.48430  0.64540  0.22640  Biso   1.000  H
  H175     1.0000 0.40450  0.83480  0.38790  Biso   1.000  H
  H176     1.0000 0.48340  0.87690  0.36340  Biso   1.000  H
  H177     1.0000 0.56050  0.84270  0.45560  Biso   1.000  H
  H178     1.0000 0.52070  0.94150  0.44530  Biso   1.000  H
  H179     1.0000 0.46760  0.77120  0.49550  Biso   1.000  H
  H180     1.0000 0.45670  0.82790  0.54020  Biso   1.000  H
  H181     1.0000 0.38290  0.81430  0.49010  Biso   1.000  H
  H182     1.0000 0.54980  0.63020  0.13550  Biso   1.000  H
  H183     1.0000 0.44420  0.63190  0.12650  Biso   1.000  H
  H184     1.0000 0.57390  0.66600  0.03530  Biso   1.000  H
  H185     1.0000 0.53110  0.56680  0.06310  Biso   1.000  H
  H186     1.0000 0.44880  0.72560  0.01370  Biso   1.000  H
  H187     1.0000 0.46620  0.67560  0.96240  Biso   1.000  H
  H188     1.0000 0.39010  0.66530  0.01170  Biso   1.000  H
  H189     1.0000 0.60920  0.88140  0.18550  Biso   1.000  H
  H190     1.0000 0.61010  0.95920  0.11320  Biso   1.000  H
  H191     1.0000 0.39810  0.88340  0.03050  Biso   1.000  H
  H192     1.0000 0.39730  0.80560  0.10270  Biso   1.000  H
  C1       1.0000 0.92290  0.56880  0.60950  Biso   1.000  C
  C2       1.0000 0.92150  0.61410  0.65340  Biso   1.000  C
  C3       1.0000 0.98320  0.66070  0.65150  Biso   1.000  C
  C4       1.0000 0.04620  0.66210  0.60560  Biso   1.000  C
  C5       1.0000 0.04750  0.61690  0.56170  Biso   1.000  C
  C6       1.0000 0.98640  0.70840  0.70260  Biso   1.000  C
  C7       1.0000 0.98700  0.76820  0.68880  Biso   1.000  C
  C8       1.0000 0.99130  0.81250  0.73670  Biso   1.000  C
  C9       1.0000 0.99110  0.79200  0.79920  Biso   1.000  C
  C10      1.0000 0.98110  0.72890  0.80810  Biso   1.000  C
  C11      1.0000 0.97770  0.68930  0.76210  Biso   1.000  C
  C12      1.0000 0.99790  0.85070  0.61430  Biso   1.000  C
  C13      1.0000 0.98100  0.85650  0.54850  Biso   1.000  C
  C14      1.0000 0.02330  0.82610  0.49470  Biso   1.000  C
  C15      1.0000 0.02150  0.66180  0.89080  Biso   1.000  C
  C16      1.0000 0.97250  0.65030  0.95370  Biso   1.000  C
  C17      1.0000 0.04680  0.67410  0.98870  Biso   1.000  C
  C18      1.0000 0.99270  0.83840  0.84600  Biso   1.000  C
  C19      1.0000 0.05410  0.88390  0.84330  Biso   1.000  C
  C20      1.0000 0.05510  0.92910  0.88870  Biso   1.000  C
  C21      1.0000 0.93750  0.88820  0.93240  Biso   1.000  C
  C22      1.0000 0.93200  0.84310  0.89100  Biso   1.000  C
  C23      1.0000 0.55150  0.56740  0.61320  Biso   1.000  C
  C24      1.0000 0.55560  0.60730  0.65750  Biso   1.000  C
  C25      1.0000 0.49310  0.65470  0.66040  Biso   1.000  C
  C26      1.0000 0.42970  0.65640  0.61380  Biso   1.000  C
  C27      1.0000 0.43110  0.61020  0.57200  Biso   1.000  C
  C28      1.0000 0.49230  0.70500  0.70720  Biso   1.000  C
  C29      1.0000 0.49820  0.69220  0.76880  Biso   1.000  C
  C30      1.0000 0.50010  0.73920  0.81080  Biso   1.000  C
  C31      1.0000 0.49610  0.79910  0.79110  Biso   1.000  C
  C32      1.0000 0.49020  0.81190  0.72950  Biso   1.000  C
  C33      1.0000 0.48830  0.76490  0.68760  Biso   1.000  C
  C34      1.0000 0.46900  0.61030  0.84180  Biso   1.000  C
  C35      1.0000 0.49670  0.54720  0.85410  Biso   1.000  C
  C36      1.0000 0.44630  0.50110  0.81300  Biso   1.000  C
  C37      1.0000 0.50060  0.88500  0.65140  Biso   1.000  C
  C38      1.0000 0.51310  0.95490  0.65130  Biso   1.000  C
  C39      1.0000 0.44920  0.99520  0.68210  Biso   1.000  C
  C40      1.0000 0.50320  0.84910  0.83620  Biso   1.000  C
  C41      1.0000 0.56640  0.84600  0.88180  Biso   1.000  C
  C42      1.0000 0.56690  0.88890  0.92800  Biso   1.000  C
  C43      1.0000 0.44100  0.93810  0.88300  Biso   1.000  C
  C44      1.0000 0.44050  0.89510  0.83680  Biso   1.000  C
  C45      1.0000 0.92290  0.43120  0.39050  Biso   1.000  C
  C46      1.0000 0.92150  0.38590  0.34660  Biso   1.000  C
  C47      1.0000 0.98320  0.33930  0.34850  Biso   1.000  C
  C48      1.0000 0.04620  0.33790  0.39440  Biso   1.000  C
  C49      1.0000 0.04750  0.38310  0.43830  Biso   1.000  C
  C50      1.0000 0.98640  0.29160  0.29740  Biso   1.000  C
  C51      1.0000 0.98700  0.23180  0.31120  Biso   1.000  C
  C52      1.0000 0.99130  0.18750  0.26330  Biso   1.000  C
  C53      1.0000 0.99110  0.20800  0.20080  Biso   1.000  C
  C54      1.0000 0.98110  0.27110  0.19190  Biso   1.000  C
  C55      1.0000 0.97770  0.31070  0.23790  Biso   1.000  C
  C56      1.0000 0.99790  0.14930  0.38570  Biso   1.000  C
  C57      1.0000 0.98100  0.14350  0.45150  Biso   1.000  C
  C58      1.0000 0.02330  0.17390  0.50530  Biso   1.000  C
  C59      1.0000 0.02150  0.33820  0.10920  Biso   1.000  C
  C60      1.0000 0.97250  0.34970  0.04630  Biso   1.000  C
  C61      1.0000 0.04680  0.32590  0.01130  Biso   1.000  C
  C62      1.0000 0.99270  0.16160  0.15400  Biso   1.000  C
  C63      1.0000 0.05410  0.11610  0.15670  Biso   1.000  C
  C64      1.0000 0.05510  0.07090  0.11130  Biso   1.000  C
  C65      1.0000 0.93750  0.11180  0.06760  Biso   1.000  C
  C66      1.0000 0.93200  0.15690  0.10900  Biso   1.000  C
  C67      1.0000 0.55150  0.43260  0.38680  Biso   1.000  C
  C68      1.0000 0.55560  0.39270  0.34250  Biso   1.000  C
  C69      1.0000 0.49310  0.34530  0.33960  Biso   1.000  C
  C70      1.0000 0.42970  0.34360  0.38620  Biso   1.000  C
  C71      1.0000 0.43110  0.38980  0.42800  Biso   1.000  C
  C72      1.0000 0.49230  0.29500  0.29280  Biso   1.000  C
  C73      1.0000 0.49820  0.30780  0.23120  Biso   1.000  C
  C74      1.0000 0.50010  0.26080  0.18920  Biso   1.000  C
  C75      1.0000 0.49610  0.20090  0.20890  Biso   1.000  C
  C76      1.0000 0.49020  0.18810  0.27050  Biso   1.000  C
  C77      1.0000 0.48830  0.23510  0.31240  Biso   1.000  C
  C78      1.0000 0.46900  0.38970  0.15820  Biso   1.000  C
  C79      1.0000 0.49670  0.45280  0.14590  Biso   1.000  C
  C80      1.0000 0.44630  0.49890  0.18700  Biso   1.000  C
  C81      1.0000 0.50060  0.11500  0.34860  Biso   1.000  C
  C82      1.0000 0.51310  0.04510  0.34870  Biso   1.000  C
  C83      1.0000 0.44920  0.00480  0.31790  Biso   1.000  C
  C84      1.0000 0.50320  0.15090  0.16380  Biso   1.000  C
  C85      1.0000 0.56640  0.15400  0.11820  Biso   1.000  C
  C86      1.0000 0.56690  0.11110  0.07200  Biso   1.000  C
  C87      1.0000 0.44100  0.06190  0.11700  Biso   1.000  C
  C88      1.0000 0.44050  0.10490  0.16320  Biso   1.000  C
  C89      1.0000 0.92290  0.39050  0.56880  Biso   1.000  C
  C90      1.0000 0.92150  0.34660  0.61410  Biso   1.000  C
  C91      1.0000 0.98320  0.34850  0.66070  Biso   1.000  C
  C92      1.0000 0.04620  0.39440  0.66210  Biso   1.000  C
  C93      1.0000 0.04750  0.43830  0.61690  Biso   1.000  C
  C94      1.0000 0.98640  0.29740  0.70840  Biso   1.000  C
  C95      1.0000 0.98700  0.31120  0.76820  Biso   1.000  C
  C96      1.0000 0.99130  0.26330  0.81250  Biso   1.000  C
  C97      1.0000 0.99110  0.20080  0.79200  Biso   1.000  C
  C98      1.0000 0.98110  0.19190  0.72890  Biso   1.000  C
  C99      1.0000 0.97770  0.23790  0.68930  Biso   1.000  C
  C100     1.0000 0.99790  0.38570  0.85070  Biso   1.000  C
  C101     1.0000 0.98100  0.45150  0.85650  Biso   1.000  C
  C102     1.0000 0.02330  0.50530  0.82610  Biso   1.000  C
  C103     1.0000 0.02150  0.10920  0.66180  Biso   1.000  C
  C104     1.0000 0.97250  0.04630  0.65030  Biso   1.000  C
  C105     1.0000 0.04680  0.01130  0.67410  Biso   1.000  C
  C106     1.0000 0.99270  0.15400  0.83840  Biso   1.000  C
  C107     1.0000 0.05410  0.15670  0.88390  Biso   1.000  C
  C108     1.0000 0.05510  0.11130  0.92910  Biso   1.000  C
  C109     1.0000 0.93750  0.06760  0.88820  Biso   1.000  C
  C110     1.0000 0.93200  0.10900  0.84310  Biso   1.000  C
  C111     1.0000 0.55150  0.38680  0.56740  Biso   1.000  C
  C112     1.0000 0.55560  0.34250  0.60730  Biso   1.000  C
  C113     1.0000 0.49310  0.33960  0.65470  Biso   1.000  C
  C114     1.0000 0.42970  0.38620  0.65640  Biso   1.000  C
  C115     1.0000 0.43110  0.42800  0.61020  Biso   1.000  C
  C116     1.0000 0.49230  0.29280  0.70500  Biso   1.000  C
  C117     1.0000 0.49820  0.23120  0.69220  Biso   1.000  C
  C118     1.0000 0.50010  0.18920  0.73920  Biso   1.000  C
  C119     1.0000 0.49610  0.20890  0.79910  Biso   1.000  C
  C120     1.0000 0.49020  0.27050  0.81190  Biso   1.000  C
  C121     1.0000 0.48830  0.31240  0.76490  Biso   1.000  C
  C122     1.0000 0.46900  0.15820  0.61030  Biso   1.000  C
  C123     1.0000 0.49670  0.14590  0.54720  Biso   1.000  C
  C124     1.0000 0.44630  0.18700  0.50110  Biso   1.000  C
  C125     1.0000 0.50060  0.34860  0.88500  Biso   1.000  C
  C126     1.0000 0.51310  0.34870  0.95490  Biso   1.000  C
  C127     1.0000 0.44920  0.31790  0.99520  Biso   1.000  C
  C128     1.0000 0.50320  0.16380  0.84910  Biso   1.000  C
  C129     1.0000 0.56640  0.11820  0.84600  Biso   1.000  C
  C130     1.0000 0.56690  0.07200  0.88890  Biso   1.000  C
  C131     1.0000 0.44100  0.11700  0.93810  Biso   1.000  C
  C132     1.0000 0.44050  0.16320  0.89510  Biso   1.000  C
  C133     1.0000 0.92290  0.60950  0.43120  Biso   1.000  C
  C134     1.0000 0.92150  0.65340  0.38590  Biso   1.000  C
  C135     1.0000 0.98320  0.65150  0.33930  Biso   1.000  C
  C136     1.0000 0.04620  0.60560  0.33790  Biso   1.000  C
  C137     1.0000 0.04750  0.56170  0.38310  Biso   1.000  C
  C138     1.0000 0.98640  0.70260  0.29160  Biso   1.000  C
  C139     1.0000 0.98700  0.68880  0.23180  Biso   1.000  C
  C140     1.0000 0.99130  0.73670  0.18750  Biso   1.000  C
  C141     1.0000 0.99110  0.79920  0.20800  Biso   1.000  C
  C142     1.0000 0.98110  0.80810  0.27110  Biso   1.000  C
  C143     1.0000 0.97770  0.76210  0.31070  Biso   1.000  C
  C144     1.0000 0.99790  0.61430  0.14930  Biso   1.000  C
  C145     1.0000 0.98100  0.54850  0.14350  Biso   1.000  C
  C146     1.0000 0.02330  0.49470  0.17390  Biso   1.000  C
  C147     1.0000 0.02150  0.89080  0.33820  Biso   1.000  C
  C148     1.0000 0.97250  0.95370  0.34970  Biso   1.000  C
  C149     1.0000 0.04680  0.98870  0.32590  Biso   1.000  C
  C150     1.0000 0.99270  0.84600  0.16160  Biso   1.000  C
  C151     1.0000 0.05410  0.84330  0.11610  Biso   1.000  C
  C152     1.0000 0.05510  0.88870  0.07090  Biso   1.000  C
  C153     1.0000 0.93750  0.93240  0.11180  Biso   1.000  C
  C154     1.0000 0.93200  0.89100  0.15690  Biso   1.000  C
  C155     1.0000 0.55150  0.61320  0.43260  Biso   1.000  C
  C156     1.0000 0.55560  0.65750  0.39270  Biso   1.000  C
  C157     1.0000 0.49310  0.66040  0.34530  Biso   1.000  C
  C158     1.0000 0.42970  0.61380  0.34360  Biso   1.000  C
  C159     1.0000 0.43110  0.57200  0.38980  Biso   1.000  C
  C160     1.0000 0.49230  0.70720  0.29500  Biso   1.000  C
  C161     1.0000 0.49820  0.76880  0.30780  Biso   1.000  C
  C162     1.0000 0.50010  0.81080  0.26080  Biso   1.000  C
  C163     1.0000 0.49610  0.79110  0.20090  Biso   1.000  C
  C164     1.0000 0.49020  0.72950  0.18810  Biso   1.000  C
  C165     1.0000 0.48830  0.68760  0.23510  Biso   1.000  C
  C166     1.0000 0.46900  0.84180  0.38970  Biso   1.000  C
  C167     1.0000 0.49670  0.85410  0.45280  Biso   1.000  C
  C168     1.0000 0.44630  0.81300  0.49890  Biso   1.000  C
  C169     1.0000 0.50060  0.65140  0.11500  Biso   1.000  C
  C170     1.0000 0.51310  0.65130  0.04510  Biso   1.000  C
  C171     1.0000 0.44920  0.68210  0.00480  Biso   1.000  C
  C172     1.0000 0.50320  0.83620  0.15090  Biso   1.000  C
  C173     1.0000 0.56640  0.88180  0.15400  Biso   1.000  C
  C174     1.0000 0.56690  0.92800  0.11110  Biso   1.000  C
  C175     1.0000 0.44100  0.88300  0.06190  Biso   1.000  C
  C176     1.0000 0.44050  0.83680  0.10490  Biso   1.000  C
  N1       1.0000 0.98580  0.57021  0.56367  Biso   1.000  N
  N2       1.0000 0.99920  0.93040  0.93180  Biso   1.000  N
  N3       1.0000 0.49080  0.56730  0.56850  Biso   1.000  N
  N4       1.0000 0.50420  0.93490  0.92860  Biso   1.000  N
  N5       1.0000 0.98580  0.42979  0.43633  Biso   1.000  N
  N6       1.0000 0.99920  0.06960  0.06820  Biso   1.000  N
  N7       1.0000 0.49080  0.43270  0.43150  Biso   1.000  N
  N8       1.0000 0.50420  0.06510  0.07140  Biso   1.000  N
  N9       1.0000 0.98580  0.43633  0.57021  Biso   1.000  N
  N10      1.0000 0.99920  0.06820  0.93040  Biso   1.000  N
  N11      1.0000 0.49080  0.43150  0.56730  Biso   1.000  N
  N12      1.0000 0.50420  0.07140  0.93490  Biso   1.000  N
  N13      1.0000 0.98580  0.56367  0.42979  Biso   1.000  N
  N14      1.0000 0.99920  0.93180  0.06960  Biso   1.000  N
  N15      1.0000 0.49080  0.56850  0.43270  Biso   1.000  N
  N16      1.0000 0.50420  0.92860  0.06510  Biso   1.000  N
  O1       1.0000 0.99820  0.78450  0.62940  Biso   1.000  O
  O2       1.0000 0.97350  0.91850  0.52810  Biso   1.000  O
  O3       1.0000 0.97250  0.71300  0.86790  Biso   1.000  O
  O4       1.0000 0.99900  0.58680  0.96420  Biso   1.000  O
  O5       1.0000 0.51720  0.63150  0.78690  Biso   1.000  O
  O6       1.0000 0.49060  0.53020  0.92090  Biso   1.000  O
  O7       1.0000 0.50000  0.87010  0.71450  Biso   1.000  O
  O8       1.0000 0.50860  0.96630  0.58550  Biso   1.000  O
  O9       1.0000 0.99820  0.21550  0.37060  Biso   1.000  O
  O10      1.0000 0.97350  0.08150  0.47190  Biso   1.000  O
  O11      1.0000 0.97250  0.28700  0.13210  Biso   1.000  O
  O12      1.0000 0.99900  0.41320  0.03580  Biso   1.000  O
  O13      1.0000 0.51720  0.36850  0.21310  Biso   1.000  O
  O14      1.0000 0.49060  0.46980  0.07910  Biso   1.000  O
  O15      1.0000 0.50000  0.12990  0.28550  Biso   1.000  O
  O16      1.0000 0.50860  0.03370  0.41450  Biso   1.000  O
  O17      1.0000 0.99820  0.37060  0.78450  Biso   1.000  O
  O18      1.0000 0.97350  0.47190  0.91850  Biso   1.000  O
  O19      1.0000 0.97250  0.13210  0.71300  Biso   1.000  O
  O20      1.0000 0.99900  0.03580  0.58680  Biso   1.000  O
  O21      1.0000 0.51720  0.21310  0.63150  Biso   1.000  O
  O22      1.0000 0.49060  0.07910  0.53020  Biso   1.000  O
  O23      1.0000 0.50000  0.28550  0.87010  Biso   1.000  O
  O24      1.0000 0.50860  0.41450  0.96630  Biso   1.000  O
  O25      1.0000 0.99820  0.62940  0.21550  Biso   1.000  O
  O26      1.0000 0.97350  0.52810  0.08150  Biso   1.000  O
  O27      1.0000 0.97250  0.86790  0.28700  Biso   1.000  O
  O28      1.0000 0.99900  0.96420  0.41320  Biso   1.000  O
  O29      1.0000 0.51720  0.78690  0.36850  Biso   1.000  O
  O30      1.0000 0.49060  0.92090  0.46980  Biso   1.000  O
  O31      1.0000 0.50000  0.71450  0.12990  Biso   1.000  O
  O32      1.0000 0.50860  0.58550  0.03370  Biso   1.000  O
  F1       1.0000 0.74050  0.48310  0.57346  Biso   1.000  F
  F2       1.0000 0.23200  0.42730  0.50260  Biso   1.000  F
  F3       1.0000 0.75330  0.07321  0.98097  Biso   1.000  F
  F4       1.0000 0.25150  0.92770  0.99050  Biso   1.000  F
  F5       1.0000 0.74050  0.51690  0.42654  Biso   1.000  F
  F6       1.0000 0.23200  0.57270  0.49740  Biso   1.000  F
  F7       1.0000 0.75330  0.92679  0.01903  Biso   1.000  F
  F8       1.0000 0.25150  0.07230  0.00950  Biso   1.000  F
  F9       1.0000 0.74050  0.42654  0.48310  Biso   1.000  F
  F10      1.0000 0.23200  0.49740  0.42730  Biso   1.000  F
  F11      1.0000 0.75330  0.01903  0.07321  Biso   1.000  F
  F12      1.0000 0.25150  0.00950  0.92770  Biso   1.000  F
  F13      1.0000 0.74050  0.57346  0.51690  Biso   1.000  F
  F14      1.0000 0.23200  0.50260  0.57270  Biso   1.000  F
  F15      1.0000 0.75330  0.98097  0.92679  Biso   1.000  F
  F16      1.0000 0.25150  0.99050  0.07230  Biso   1.000  F
  F17      1.0000 0.12260  0.50000  0.50000  Biso   1.000  F
  F18      1.0000 0.85090  0.50000  0.50000  Biso   1.000  F
  F19      1.0000 0.62400  0.50000  0.50000  Biso   1.000  F
  F20      1.0000 0.34720  0.50000  0.50000  Biso   1.000  F
  F21      1.0000 0.86110  0.00000  0.00000  Biso   1.000  F
  F22      1.0000 0.63360  0.00000  0.00000  Biso   1.000  F
  F23      1.0000 0.36690  0.00000  0.00000  Biso   1.000  F
  F24      1.0000 0.14210  0.00000  0.00000  Biso   1.000  F
