data_image0
_cell_length_a       14.6462
_cell_length_b       16.7824
_cell_length_c       16.7824
_cell_angle_alpha    120
_cell_angle_beta     90
_cell_angle_gamma    90

_symmetry_space_group_name_H-M    P 1
_symmetry_int_tables_number       1

loop_
  _symmetry_equiv_pos_as_xyz
  'x, y, z'

loop_
  _atom_site_label
  _atom_site_occupancy
  _atom_site_fract_x
  _atom_site_fract_y
  _atom_site_fract_z
  _atom_site_thermal_displace_type
  _atom_site_B_iso_or_equiv
  _atom_site_type_symbol
  Zn1      1.0000 0.00000  0.34167  0.00000  Biso   1.000  Zn
  Zn2      1.0000 0.00000  0.65833  0.65833  Biso   1.000  Zn
  Zn3      1.0000 0.00000  0.00000  0.34167  Biso   1.000  Zn
  Cr1      1.0000 0.50000  0.00000  0.88570  Biso   1.000  Cr
  Cr2      1.0000 0.50000  0.88570  0.00000  Biso   1.000  Cr
  Cr3      1.0000 0.50000  0.11430  0.11430  Biso   1.000  Cr
  H1       1.0000 0.28450  0.29480  0.13320  Biso   1.000  H
  H2       1.0000 0.11470  0.30970  0.13040  Biso   1.000  H
  H3       1.0000 0.28450  0.83840  0.70520  Biso   1.000  H
  H4       1.0000 0.11470  0.82070  0.69030  Biso   1.000  H
  H5       1.0000 0.28450  0.86680  0.16160  Biso   1.000  H
  H6       1.0000 0.11470  0.86960  0.17930  Biso   1.000  H
  H7       1.0000 0.71550  0.29480  0.13320  Biso   1.000  H
  H8       1.0000 0.88530  0.30970  0.13040  Biso   1.000  H
  H9       1.0000 0.71550  0.83840  0.70520  Biso   1.000  H
  H10      1.0000 0.88530  0.82070  0.69030  Biso   1.000  H
  H11      1.0000 0.71550  0.86680  0.16160  Biso   1.000  H
  H12      1.0000 0.88530  0.86960  0.17930  Biso   1.000  H
  H13      1.0000 0.71550  0.16160  0.86680  Biso   1.000  H
  H14      1.0000 0.88530  0.17930  0.86960  Biso   1.000  H
  H15      1.0000 0.71550  0.13320  0.29480  Biso   1.000  H
  H16      1.0000 0.88530  0.13040  0.30970  Biso   1.000  H
  H17      1.0000 0.71550  0.70520  0.83840  Biso   1.000  H
  H18      1.0000 0.88530  0.69030  0.82070  Biso   1.000  H
  H19      1.0000 0.28450  0.16160  0.86680  Biso   1.000  H
  H20      1.0000 0.11470  0.17930  0.86960  Biso   1.000  H
  H21      1.0000 0.28450  0.13320  0.29480  Biso   1.000  H
  H22      1.0000 0.11470  0.13040  0.30970  Biso   1.000  H
  H23      1.0000 0.28450  0.70520  0.83840  Biso   1.000  H
  H24      1.0000 0.11470  0.69030  0.82070  Biso   1.000  H
  H25      1.0000 0.50000  0.00000  0.53760  Biso   1.000  H
  H26      1.0000 0.50000  0.53760  0.00000  Biso   1.000  H
  H27      1.0000 0.50000  0.46240  0.46240  Biso   1.000  H
  H28      1.0000 0.00000  0.63760  0.18190  Biso   1.000  H
  H29      1.0000 0.00000  0.54430  0.36240  Biso   1.000  H
  H30      1.0000 0.00000  0.81810  0.45570  Biso   1.000  H
  H31      1.0000 0.00000  0.45570  0.81810  Biso   1.000  H
  H32      1.0000 0.00000  0.18190  0.63760  Biso   1.000  H
  H33      1.0000 0.00000  0.36240  0.54430  Biso   1.000  H
  H34      1.0000 0.50000  0.13740  0.81540  Biso   1.000  H
  H35      1.0000 0.50000  0.13540  0.67260  Biso   1.000  H
  H36      1.0000 0.50000  0.67800  0.86260  Biso   1.000  H
  H37      1.0000 0.50000  0.53720  0.86460  Biso   1.000  H
  H38      1.0000 0.50000  0.18460  0.32200  Biso   1.000  H
  H39      1.0000 0.50000  0.32740  0.46280  Biso   1.000  H
  H40      1.0000 0.50000  0.32200  0.18460  Biso   1.000  H
  H41      1.0000 0.50000  0.46280  0.32740  Biso   1.000  H
  H42      1.0000 0.50000  0.81540  0.13740  Biso   1.000  H
  H43      1.0000 0.50000  0.67260  0.13540  Biso   1.000  H
  H44      1.0000 0.50000  0.86260  0.67800  Biso   1.000  H
  H45      1.0000 0.50000  0.86460  0.53720  Biso   1.000  H
  C1       1.0000 0.25050  0.26970  0.07850  Biso   1.000  C
  C2       1.0000 0.14950  0.27890  0.07620  Biso   1.000  C
  C3       1.0000 0.25050  0.80880  0.73030  Biso   1.000  C
  C4       1.0000 0.14950  0.79730  0.72110  Biso   1.000  C
  C5       1.0000 0.25050  0.92150  0.19120  Biso   1.000  C
  C6       1.0000 0.14950  0.92380  0.20270  Biso   1.000  C
  C7       1.0000 0.74950  0.26970  0.07850  Biso   1.000  C
  C8       1.0000 0.85050  0.27890  0.07620  Biso   1.000  C
  C9       1.0000 0.74950  0.80880  0.73030  Biso   1.000  C
  C10      1.0000 0.85050  0.79730  0.72110  Biso   1.000  C
  C11      1.0000 0.74950  0.92150  0.19120  Biso   1.000  C
  C12      1.0000 0.85050  0.92380  0.20270  Biso   1.000  C
  C13      1.0000 0.74950  0.19120  0.92150  Biso   1.000  C
  C14      1.0000 0.85050  0.20270  0.92380  Biso   1.000  C
  C15      1.0000 0.74950  0.07850  0.26970  Biso   1.000  C
  C16      1.0000 0.85050  0.07620  0.27890  Biso   1.000  C
  C17      1.0000 0.74950  0.73030  0.80880  Biso   1.000  C
  C18      1.0000 0.85050  0.72110  0.79730  Biso   1.000  C
  C19      1.0000 0.25050  0.19120  0.92150  Biso   1.000  C
  C20      1.0000 0.14950  0.20270  0.92380  Biso   1.000  C
  C21      1.0000 0.25050  0.07850  0.26970  Biso   1.000  C
  C22      1.0000 0.14950  0.07620  0.27890  Biso   1.000  C
  C23      1.0000 0.25050  0.73030  0.80880  Biso   1.000  C
  C24      1.0000 0.14950  0.72110  0.79730  Biso   1.000  C
  C25      1.0000 0.50000  0.00000  0.59360  Biso   1.000  C
  C26      1.0000 0.50000  0.59360  0.00000  Biso   1.000  C
  C27      1.0000 0.50000  0.40640  0.40640  Biso   1.000  C
  C28      1.0000 0.37020  0.14860  0.00000  Biso   1.000  C
  C29      1.0000 0.28230  0.19540  0.00000  Biso   1.000  C
  C30      1.0000 0.37020  0.85140  0.85140  Biso   1.000  C
  C31      1.0000 0.28230  0.80460  0.80460  Biso   1.000  C
  C32      1.0000 0.37020  0.00000  0.14860  Biso   1.000  C
  C33      1.0000 0.28230  0.00000  0.19540  Biso   1.000  C
  C34      1.0000 0.62980  0.14860  0.00000  Biso   1.000  C
  C35      1.0000 0.71770  0.19540  0.00000  Biso   1.000  C
  C36      1.0000 0.62980  0.85140  0.85140  Biso   1.000  C
  C37      1.0000 0.71770  0.80460  0.80460  Biso   1.000  C
  C38      1.0000 0.62980  0.00000  0.14860  Biso   1.000  C
  C39      1.0000 0.71770  0.00000  0.19540  Biso   1.000  C
  C40      1.0000 0.00000  0.47860  0.18270  Biso   1.000  C
  C41      1.0000 0.00000  0.57640  0.25950  Biso   1.000  C
  C42      1.0000 0.00000  0.64910  0.24280  Biso   1.000  C
  C43      1.0000 0.00000  0.70410  0.52140  Biso   1.000  C
  C44      1.0000 0.00000  0.68310  0.42360  Biso   1.000  C
  C45      1.0000 0.00000  0.59370  0.35090  Biso   1.000  C
  C46      1.0000 0.00000  0.81730  0.29590  Biso   1.000  C
  C47      1.0000 0.00000  0.74050  0.31690  Biso   1.000  C
  C48      1.0000 0.00000  0.75720  0.40630  Biso   1.000  C
  C49      1.0000 0.00000  0.29590  0.81730  Biso   1.000  C
  C50      1.0000 0.00000  0.31690  0.74050  Biso   1.000  C
  C51      1.0000 0.00000  0.40630  0.75720  Biso   1.000  C
  C52      1.0000 0.00000  0.18270  0.47860  Biso   1.000  C
  C53      1.0000 0.00000  0.25950  0.57640  Biso   1.000  C
  C54      1.0000 0.00000  0.24280  0.64910  Biso   1.000  C
  C55      1.0000 0.00000  0.52140  0.70410  Biso   1.000  C
  C56      1.0000 0.00000  0.42360  0.68310  Biso   1.000  C
  C57      1.0000 0.00000  0.35090  0.59370  Biso   1.000  C
  C58      1.0000 0.50000  0.08100  0.75990  Biso   1.000  C
  C59      1.0000 0.50000  0.07970  0.67310  Biso   1.000  C
  C60      1.0000 0.50000  0.67890  0.91900  Biso   1.000  C
  C61      1.0000 0.50000  0.59340  0.92030  Biso   1.000  C
  C62      1.0000 0.50000  0.24010  0.32110  Biso   1.000  C
  C63      1.0000 0.50000  0.32690  0.40660  Biso   1.000  C
  C64      1.0000 0.50000  0.32110  0.24010  Biso   1.000  C
  C65      1.0000 0.50000  0.40660  0.32690  Biso   1.000  C
  C66      1.0000 0.50000  0.75990  0.08100  Biso   1.000  C
  C67      1.0000 0.50000  0.67310  0.07970  Biso   1.000  C
  C68      1.0000 0.50000  0.91900  0.67890  Biso   1.000  C
  C69      1.0000 0.50000  0.92030  0.59340  Biso   1.000  C
  N1       1.0000 0.50000  0.00000  0.76140  Biso   1.000  N
  N2       1.0000 0.50000  0.76140  0.00000  Biso   1.000  N
  N3       1.0000 0.50000  0.23860  0.23860  Biso   1.000  N
  N4       1.0000 0.11780  0.27570  0.00000  Biso   1.000  N
  N5       1.0000 0.11780  0.72430  0.72430  Biso   1.000  N
  N6       1.0000 0.11780  0.00000  0.27570  Biso   1.000  N
  N7       1.0000 0.88220  0.27570  0.00000  Biso   1.000  N
  N8       1.0000 0.88220  0.72430  0.72430  Biso   1.000  N
  N9       1.0000 0.88220  0.00000  0.27570  Biso   1.000  N
  O1       1.0000 0.40259  0.09270  0.92343  Biso   1.000  O
  O2       1.0000 0.40259  0.83073  0.90730  Biso   1.000  O
  O3       1.0000 0.40259  0.07657  0.16927  Biso   1.000  O
  O4       1.0000 0.59741  0.09270  0.92343  Biso   1.000  O
  O5       1.0000 0.59741  0.83073  0.90730  Biso   1.000  O
  O6       1.0000 0.59741  0.07657  0.16927  Biso   1.000  O
  O7       1.0000 0.59741  0.16927  0.07657  Biso   1.000  O
  O8       1.0000 0.59741  0.92343  0.09270  Biso   1.000  O
  O9       1.0000 0.59741  0.90730  0.83073  Biso   1.000  O
  O10      1.0000 0.40259  0.16927  0.07657  Biso   1.000  O
  O11      1.0000 0.40259  0.92343  0.09270  Biso   1.000  O
  O12      1.0000 0.40259  0.90730  0.83073  Biso   1.000  O
  O13      1.0000 0.50000  0.00000  0.00000  Biso   1.000  O
  O14      1.0000 0.00000  0.41522  0.19912  Biso   1.000  O
  O15      1.0000 0.00000  0.46800  0.10220  Biso   1.000  O
  O16      1.0000 0.00000  0.78390  0.58478  Biso   1.000  O
  O17      1.0000 0.00000  0.63420  0.53200  Biso   1.000  O
  O18      1.0000 0.00000  0.80088  0.21610  Biso   1.000  O
  O19      1.0000 0.00000  0.89780  0.36580  Biso   1.000  O
  O20      1.0000 0.00000  0.21610  0.80088  Biso   1.000  O
  O21      1.0000 0.00000  0.36580  0.89780  Biso   1.000  O
  O22      1.0000 0.00000  0.19912  0.41522  Biso   1.000  O
  O23      1.0000 0.00000  0.10220  0.46800  Biso   1.000  O
  O24      1.0000 0.00000  0.58478  0.78390  Biso   1.000  O
  O25      1.0000 0.00000  0.53200  0.63420  Biso   1.000  O
