data_image0
_cell_length_a       14.458
_cell_length_b       16.9153
_cell_length_c       16.9153
_cell_angle_alpha    120
_cell_angle_beta     90
_cell_angle_gamma    90

_symmetry_space_group_name_H-M    P 1
_symmetry_int_tables_number       1

loop_
  _symmetry_equiv_pos_as_xyz
  'x, y, z'

loop_
  _atom_site_label
  _atom_site_occupancy
  _atom_site_fract_x
  _atom_site_fract_y
  _atom_site_fract_z
  _atom_site_thermal_displace_type
  _atom_site_B_iso_or_equiv
  _atom_site_type_symbol
  Zn1      1.0000 0.00000  0.00000  0.65265  Biso   1.000  Zn
  Zn2      1.0000 0.00000  0.65265  0.00000  Biso   1.000  Zn
  Zn3      1.0000 0.00000  0.34735  0.34735  Biso   1.000  Zn
  Cr1      1.0000 0.50000  0.11341  0.00000  Biso   1.000  Cr
  Cr2      1.0000 0.50000  0.88659  0.88659  Biso   1.000  Cr
  Cr3      1.0000 0.50000  0.00000  0.11341  Biso   1.000  Cr
  H1       1.0000 0.71260  0.13040  0.82940  Biso   1.000  H
  H2       1.0000 0.84600  0.12630  0.75810  Biso   1.000  H
  H3       1.0000 0.71260  0.69900  0.86960  Biso   1.000  H
  H4       1.0000 0.84600  0.63180  0.87370  Biso   1.000  H
  H5       1.0000 0.71260  0.17060  0.30100  Biso   1.000  H
  H6       1.0000 0.84600  0.24190  0.36820  Biso   1.000  H
  H7       1.0000 0.28740  0.13040  0.82940  Biso   1.000  H
  H8       1.0000 0.15400  0.12630  0.75810  Biso   1.000  H
  H9       1.0000 0.28740  0.69900  0.86960  Biso   1.000  H
  H10      1.0000 0.15400  0.63180  0.87370  Biso   1.000  H
  H11      1.0000 0.28740  0.17060  0.30100  Biso   1.000  H
  H12      1.0000 0.15400  0.24190  0.36820  Biso   1.000  H
  H13      1.0000 0.28740  0.30100  0.17060  Biso   1.000  H
  H14      1.0000 0.15400  0.36820  0.24190  Biso   1.000  H
  H15      1.0000 0.28740  0.82940  0.13040  Biso   1.000  H
  H16      1.0000 0.15400  0.75810  0.12630  Biso   1.000  H
  H17      1.0000 0.28740  0.86960  0.69900  Biso   1.000  H
  H18      1.0000 0.15400  0.87370  0.63180  Biso   1.000  H
  H19      1.0000 0.71260  0.30100  0.17060  Biso   1.000  H
  H20      1.0000 0.84600  0.36820  0.24190  Biso   1.000  H
  H21      1.0000 0.71260  0.82940  0.13040  Biso   1.000  H
  H22      1.0000 0.84600  0.75810  0.12630  Biso   1.000  H
  H23      1.0000 0.71260  0.86960  0.69900  Biso   1.000  H
  H24      1.0000 0.84600  0.87370  0.63180  Biso   1.000  H
  H25      1.0000 0.00000  0.18450  0.54400  Biso   1.000  H
  H26      1.0000 0.00000  0.35950  0.81550  Biso   1.000  H
  H27      1.0000 0.00000  0.45600  0.64050  Biso   1.000  H
  H28      1.0000 0.00000  0.64050  0.45600  Biso   1.000  H
  H29      1.0000 0.00000  0.54400  0.18450  Biso   1.000  H
  H30      1.0000 0.00000  0.81550  0.35950  Biso   1.000  H
  C1       1.0000 0.74780  0.07650  0.80130  Biso   1.000  C
  C2       1.0000 0.82720  0.07360  0.75900  Biso   1.000  C
  C3       1.0000 0.74780  0.72480  0.92350  Biso   1.000  C
  C4       1.0000 0.82720  0.68540  0.92640  Biso   1.000  C
  C5       1.0000 0.74780  0.19870  0.27520  Biso   1.000  C
  C6       1.0000 0.82720  0.24100  0.31460  Biso   1.000  C
  C7       1.0000 0.25220  0.07650  0.80130  Biso   1.000  C
  C8       1.0000 0.17280  0.07360  0.75900  Biso   1.000  C
  C9       1.0000 0.25220  0.72480  0.92350  Biso   1.000  C
  C10      1.0000 0.17280  0.68540  0.92640  Biso   1.000  C
  C11      1.0000 0.25220  0.19870  0.27520  Biso   1.000  C
  C12      1.0000 0.17280  0.24100  0.31460  Biso   1.000  C
  C13      1.0000 0.25220  0.27520  0.19870  Biso   1.000  C
  C14      1.0000 0.17280  0.31460  0.24100  Biso   1.000  C
  C15      1.0000 0.25220  0.80130  0.07650  Biso   1.000  C
  C16      1.0000 0.17280  0.75900  0.07360  Biso   1.000  C
  C17      1.0000 0.25220  0.92350  0.72480  Biso   1.000  C
  C18      1.0000 0.17280  0.92640  0.68540  Biso   1.000  C
  C19      1.0000 0.74780  0.27520  0.19870  Biso   1.000  C
  C20      1.0000 0.82720  0.31460  0.24100  Biso   1.000  C
  C21      1.0000 0.74780  0.80130  0.07650  Biso   1.000  C
  C22      1.0000 0.82720  0.75900  0.07360  Biso   1.000  C
  C23      1.0000 0.74780  0.92350  0.72480  Biso   1.000  C
  C24      1.0000 0.82720  0.92640  0.68540  Biso   1.000  C
  C25      1.0000 0.00000  0.18138  0.70118  Biso   1.000  C
  C26      1.0000 0.00000  0.25970  0.68225  Biso   1.000  C
  C27      1.0000 0.00000  0.24455  0.59350  Biso   1.000  C
  C28      1.0000 0.00000  0.51980  0.81862  Biso   1.000  C
  C29      1.0000 0.00000  0.42255  0.74030  Biso   1.000  C
  C30      1.0000 0.00000  0.34895  0.75545  Biso   1.000  C
  C31      1.0000 0.00000  0.29882  0.48020  Biso   1.000  C
  C32      1.0000 0.00000  0.31775  0.57745  Biso   1.000  C
  C33      1.0000 0.00000  0.40650  0.65105  Biso   1.000  C
  C34      1.0000 0.00000  0.48020  0.29882  Biso   1.000  C
  C35      1.0000 0.00000  0.57745  0.31775  Biso   1.000  C
  C36      1.0000 0.00000  0.65105  0.40650  Biso   1.000  C
  C37      1.0000 0.00000  0.70118  0.18138  Biso   1.000  C
  C38      1.0000 0.00000  0.68225  0.25970  Biso   1.000  C
  C39      1.0000 0.00000  0.59350  0.24455  Biso   1.000  C
  C40      1.0000 0.00000  0.81862  0.51980  Biso   1.000  C
  C41      1.0000 0.00000  0.74030  0.42255  Biso   1.000  C
  C42      1.0000 0.00000  0.75545  0.34895  Biso   1.000  C
  C43      1.0000 0.63050  0.00000  0.85171  Biso   1.000  C
  C44      1.0000 0.71780  0.00000  0.80332  Biso   1.000  C
  C45      1.0000 0.63050  0.85171  0.00000  Biso   1.000  C
  C46      1.0000 0.71780  0.80332  0.00000  Biso   1.000  C
  C47      1.0000 0.63050  0.14829  0.14829  Biso   1.000  C
  C48      1.0000 0.71780  0.19668  0.19668  Biso   1.000  C
  C49      1.0000 0.36950  0.00000  0.85171  Biso   1.000  C
  C50      1.0000 0.28220  0.00000  0.80332  Biso   1.000  C
  C51      1.0000 0.36950  0.85171  0.00000  Biso   1.000  C
  C52      1.0000 0.28220  0.80332  0.00000  Biso   1.000  C
  C53      1.0000 0.36950  0.14829  0.14829  Biso   1.000  C
  C54      1.0000 0.28220  0.19668  0.19668  Biso   1.000  C
  N1       1.0000 0.88065  0.00000  0.71833  Biso   1.000  N
  N2       1.0000 0.88065  0.71833  0.00000  Biso   1.000  N
  N3       1.0000 0.88065  0.28167  0.28167  Biso   1.000  N
  N4       1.0000 0.11935  0.00000  0.71833  Biso   1.000  N
  N5       1.0000 0.11935  0.71833  0.00000  Biso   1.000  N
  N6       1.0000 0.11935  0.28167  0.28167  Biso   1.000  N
  O1       1.0000 0.59865  0.07640  0.90770  Biso   1.000  O
  O2       1.0000 0.59865  0.83130  0.92360  Biso   1.000  O
  O3       1.0000 0.59865  0.09230  0.16870  Biso   1.000  O
  O4       1.0000 0.40135  0.07640  0.90770  Biso   1.000  O
  O5       1.0000 0.40135  0.83130  0.92360  Biso   1.000  O
  O6       1.0000 0.40135  0.09230  0.16870  Biso   1.000  O
  O7       1.0000 0.40135  0.16870  0.09230  Biso   1.000  O
  O8       1.0000 0.40135  0.90770  0.07640  Biso   1.000  O
  O9       1.0000 0.40135  0.92360  0.83130  Biso   1.000  O
  O10      1.0000 0.59865  0.16870  0.09230  Biso   1.000  O
  O11      1.0000 0.59865  0.90770  0.07640  Biso   1.000  O
  O12      1.0000 0.59865  0.92360  0.83130  Biso   1.000  O
  O13      1.0000 0.50000  0.23272  0.00000  Biso   1.000  O
  O14      1.0000 0.50000  0.76728  0.76728  Biso   1.000  O
  O15      1.0000 0.50000  0.00000  0.23272  Biso   1.000  O
  O16      1.0000 0.50000  0.00000  0.00000  Biso   1.000  O
  O17      1.0000 0.00000  0.19722  0.78012  Biso   1.000  O
  O18      1.0000 0.00000  0.10266  0.63027  Biso   1.000  O
  O19      1.0000 0.00000  0.58290  0.80278  Biso   1.000  O
  O20      1.0000 0.00000  0.52761  0.89734  Biso   1.000  O
  O21      1.0000 0.00000  0.21988  0.41710  Biso   1.000  O
  O22      1.0000 0.00000  0.36973  0.47239  Biso   1.000  O
  O23      1.0000 0.00000  0.41710  0.21988  Biso   1.000  O
  O24      1.0000 0.00000  0.47239  0.36973  Biso   1.000  O
  O25      1.0000 0.00000  0.78012  0.19722  Biso   1.000  O
  O26      1.0000 0.00000  0.63027  0.10266  Biso   1.000  O
  O27      1.0000 0.00000  0.80278  0.58290  Biso   1.000  O
  O28      1.0000 0.00000  0.89734  0.52761  Biso   1.000  O
