data_image0
_cell_length_a       10.549
_cell_length_b       10.842
_cell_length_c       13.8
_cell_angle_alpha    87.135
_cell_angle_beta     72.428
_cell_angle_gamma    66.412

_symmetry_space_group_name_H-M    P 1
_symmetry_int_tables_number       1

loop_
  _symmetry_equiv_pos_as_xyz
  'x, y, z'

loop_
  _atom_site_label
  _atom_site_occupancy
  _atom_site_fract_x
  _atom_site_fract_y
  _atom_site_fract_z
  _atom_site_thermal_displace_type
  _atom_site_B_iso_or_equiv
  _atom_site_type_symbol
  Co1      1.0000 0.50362  0.31822  0.15793  Biso   1.000  Co
  Co2      1.0000 0.49638  0.68178  0.84207  Biso   1.000  Co
  Mo1      1.0000 0.97495  0.49860  0.13399  Biso   1.000  Mo
  Mo2      1.0000 0.67558  0.79088  0.13127  Biso   1.000  Mo
  Mo3      1.0000 0.98996  0.77085  0.98250  Biso   1.000  Mo
  Mo4      1.0000 0.71856  0.51632  0.01517  Biso   1.000  Mo
  Mo5      1.0000 0.02505  0.50140  0.86601  Biso   1.000  Mo
  Mo6      1.0000 0.32442  0.20912  0.86873  Biso   1.000  Mo
  Mo7      1.0000 0.01004  0.22915  0.01750  Biso   1.000  Mo
  Mo8      1.0000 0.28144  0.48368  0.98483  Biso   1.000  Mo
  H1       1.0000 0.49860  0.58640  0.27420  Biso   1.000  H
  H2       1.0000 0.31800  0.74520  0.48550  Biso   1.000  H
  H3       1.0000 0.35470  0.82080  0.38810  Biso   1.000  H
  H4       1.0000 0.99320  0.22880  0.32620  Biso   1.000  H
  H5       1.0000 0.85410  0.30610  0.41810  Biso   1.000  H
  H6       1.0000 0.73430  0.04030  0.20140  Biso   1.000  H
  H7       1.0000 0.67700  0.39150  0.30370  Biso   1.000  H
  H8       1.0000 0.13230  0.02650  0.24900  Biso   1.000  H
  H9       1.0000 0.26130  0.90700  0.27330  Biso   1.000  H
  H10      1.0000 0.31740  0.13860  0.14780  Biso   1.000  H
  H11      1.0000 0.40350  0.22430  0.38180  Biso   1.000  H
  H12      1.0000 0.50140  0.41360  0.72580  Biso   1.000  H
  H13      1.0000 0.68200  0.25480  0.51450  Biso   1.000  H
  H14      1.0000 0.64530  0.17920  0.61190  Biso   1.000  H
  H15      1.0000 0.00680  0.77120  0.67380  Biso   1.000  H
  H16      1.0000 0.14590  0.69390  0.58190  Biso   1.000  H
  H17      1.0000 0.26570  0.95970  0.79860  Biso   1.000  H
  H18      1.0000 0.32300  0.60850  0.69630  Biso   1.000  H
  H19      1.0000 0.86770  0.97350  0.75100  Biso   1.000  H
  H20      1.0000 0.73870  0.09300  0.72670  Biso   1.000  H
  H21      1.0000 0.68260  0.86140  0.85220  Biso   1.000  H
  H22      1.0000 0.59650  0.77570  0.61820  Biso   1.000  H
  C1       1.0000 0.40660  0.58510  0.29470  Biso   1.000  C
  C2       1.0000 0.23250  0.52880  0.31670  Biso   1.000  C
  C3       1.0000 0.28760  0.78280  0.42700  Biso   1.000  C
  C4       1.0000 0.13750  0.89320  0.46340  Biso   1.000  C
  C5       1.0000 0.09050  0.00020  0.40220  Biso   1.000  C
  C6       1.0000 0.95570  0.10540  0.43950  Biso   1.000  C
  C7       1.0000 0.90800  0.22250  0.37460  Biso   1.000  C
  C8       1.0000 0.74480  0.10700  0.23400  Biso   1.000  C
  C9       1.0000 0.71110  0.29900  0.28860  Biso   1.000  C
  C10      1.0000 0.18940  0.99840  0.29580  Biso   1.000  C
  C11      1.0000 0.32210  0.14480  0.21350  Biso   1.000  C
  C12      1.0000 0.36710  0.18960  0.34150  Biso   1.000  C
  C13      1.0000 0.59340  0.41490  0.70530  Biso   1.000  C
  C14      1.0000 0.76750  0.47120  0.68330  Biso   1.000  C
  C15      1.0000 0.71240  0.21720  0.57300  Biso   1.000  C
  C16      1.0000 0.86250  0.10680  0.53660  Biso   1.000  C
  C17      1.0000 0.90950  0.99980  0.59780  Biso   1.000  C
  C18      1.0000 0.04430  0.89460  0.56050  Biso   1.000  C
  C19      1.0000 0.09200  0.77750  0.62540  Biso   1.000  C
  C20      1.0000 0.25520  0.89300  0.76600  Biso   1.000  C
  C21      1.0000 0.28890  0.70100  0.71140  Biso   1.000  C
  C22      1.0000 0.81060  0.00160  0.70420  Biso   1.000  C
  C23      1.0000 0.67790  0.85520  0.78650  Biso   1.000  C
  C24      1.0000 0.63290  0.81040  0.65850  Biso   1.000  C
  N1       1.0000 0.38720  0.21000  0.24230  Biso   1.000  N
  N2       1.0000 0.26320  0.08790  0.29350  Biso   1.000  N
  N3       1.0000 0.29220  0.11680  0.37680  Biso   1.000  N
  N4       1.0000 0.66190  0.24290  0.23430  Biso   1.000  N
  N5       1.0000 0.81640  0.20510  0.31910  Biso   1.000  N
  N6       1.0000 0.83910  0.08010  0.28360  Biso   1.000  N
  N7       1.0000 0.37730  0.49490  0.25810  Biso   1.000  N
  N8       1.0000 0.29500  0.67400  0.36310  Biso   1.000  N
  N9       1.0000 0.17990  0.63190  0.38690  Biso   1.000  N
  N10      1.0000 0.61280  0.79000  0.75770  Biso   1.000  N
  N11      1.0000 0.73680  0.91210  0.70650  Biso   1.000  N
  N12      1.0000 0.70780  0.88320  0.62320  Biso   1.000  N
  N13      1.0000 0.33810  0.75710  0.76570  Biso   1.000  N
  N14      1.0000 0.18360  0.79490  0.68090  Biso   1.000  N
  N15      1.0000 0.16090  0.91990  0.71640  Biso   1.000  N
  N16      1.0000 0.62270  0.50510  0.74190  Biso   1.000  N
  N17      1.0000 0.70500  0.32600  0.63690  Biso   1.000  N
  N18      1.0000 0.82010  0.36810  0.61310  Biso   1.000  N
  O1       1.0000 0.10330  0.84160  0.99100  Biso   1.000  O
  O2       1.0000 0.12910  0.60310  0.89230  Biso   1.000  O
  O3       1.0000 0.90980  0.85510  0.89570  Biso   1.000  O
  O4       1.0000 0.05560  0.40370  0.21640  Biso   1.000  O
  O5       1.0000 0.12360  0.38440  0.99490  Biso   1.000  O
  O6       1.0000 0.56330  0.87430  0.24550  Biso   1.000  O
  O7       1.0000 0.62250  0.64020  0.13010  Biso   1.000  O
  O8       1.0000 0.64520  0.60930  0.92620  Biso   1.000  O
  O9       1.0000 0.63030  0.41170  0.05360  Biso   1.000  O
  O10      1.0000 0.90640  0.39800  0.91780  Biso   1.000  O
  O11      1.0000 0.82280  0.63130  0.20950  Biso   1.000  O
  O12      1.0000 0.83550  0.84090  0.10600  Biso   1.000  O
  O13      1.0000 0.59770  0.87930  0.04380  Biso   1.000  O
  O14      1.0000 0.62240  0.15400  0.04500  Biso   1.000  O
  O15      1.0000 0.89670  0.15840  0.00900  Biso   1.000  O
  O16      1.0000 0.87090  0.39690  0.10770  Biso   1.000  O
  O17      1.0000 0.09020  0.14490  0.10430  Biso   1.000  O
  O18      1.0000 0.94440  0.59630  0.78360  Biso   1.000  O
  O19      1.0000 0.87640  0.61560  0.00510  Biso   1.000  O
  O20      1.0000 0.43670  0.12570  0.75450  Biso   1.000  O
  O21      1.0000 0.37750  0.35980  0.86990  Biso   1.000  O
  O22      1.0000 0.35480  0.39070  0.07380  Biso   1.000  O
  O23      1.0000 0.36970  0.58830  0.94640  Biso   1.000  O
  O24      1.0000 0.09360  0.60200  0.08220  Biso   1.000  O
  O25      1.0000 0.17720  0.36870  0.79050  Biso   1.000  O
  O26      1.0000 0.16450  0.15910  0.89400  Biso   1.000  O
  O27      1.0000 0.40230  0.12070  0.95620  Biso   1.000  O
  O28      1.0000 0.37760  0.84600  0.95500  Biso   1.000  O
