data_image0
_cell_length_a       10.575
_cell_length_b       10.894
_cell_length_c       13.87
_cell_angle_alpha    87.233
_cell_angle_beta     72.403
_cell_angle_gamma    66.408

_symmetry_space_group_name_H-M    P 1
_symmetry_int_tables_number       1

loop_
  _symmetry_equiv_pos_as_xyz
  'x, y, z'

loop_
  _atom_site_label
  _atom_site_occupancy
  _atom_site_fract_x
  _atom_site_fract_y
  _atom_site_fract_z
  _atom_site_thermal_displace_type
  _atom_site_B_iso_or_equiv
  _atom_site_type_symbol
  Zn1      1.0000 0.00224  0.81777  0.66416  Biso   1.000  Zn
  Zn2      1.0000 0.99776  0.18223  0.33584  Biso   1.000  Zn
  Mo1      1.0000 0.78084  0.98450  0.48644  Biso   1.000  Mo
  Mo2      1.0000 0.47275  0.00117  0.63356  Biso   1.000  Mo
  Mo3      1.0000 0.17573  0.29117  0.62648  Biso   1.000  Mo
  Mo4      1.0000 0.49051  0.26909  0.47985  Biso   1.000  Mo
  Mo5      1.0000 0.21916  0.01550  0.51356  Biso   1.000  Mo
  Mo6      1.0000 0.52725  0.99883  0.36644  Biso   1.000  Mo
  Mo7      1.0000 0.82427  0.70883  0.37352  Biso   1.000  Mo
  Mo8      1.0000 0.50949  0.73091  0.52015  Biso   1.000  Mo
  H1       1.0000 0.49310  0.72720  0.82770  Biso   1.000  H
  H2       1.0000 0.35360  0.80460  0.91870  Biso   1.000  H
  H3       1.0000 0.17430  0.88920  0.80830  Biso   1.000  H
  H4       1.0000 0.24130  0.54240  0.69720  Biso   1.000  H
  H5       1.0000 0.14500  0.67770  0.11370  Biso   1.000  H
  H6       1.0000 0.17900  0.75280  0.01620  Biso   1.000  H
  H7       1.0000 0.00060  0.90890  0.22980  Biso   1.000  H
  H8       1.0000 0.23950  0.59250  0.22650  Biso   1.000  H
  H9       1.0000 0.36950  0.47370  0.24930  Biso   1.000  H
  H10      1.0000 0.18760  0.35760  0.34900  Biso   1.000  H
  H11      1.0000 0.09710  0.27900  0.11570  Biso   1.000  H
  H12      1.0000 0.08120  0.61850  0.52020  Biso   1.000  H
  H13      1.0000 0.18990  0.66250  0.50330  Biso   1.000  H
  H14      1.0000 0.50690  0.27280  0.17230  Biso   1.000  H
  H15      1.0000 0.64640  0.19540  0.08130  Biso   1.000  H
  H16      1.0000 0.82570  0.11080  0.19170  Biso   1.000  H
  H17      1.0000 0.75870  0.45760  0.30280  Biso   1.000  H
  H18      1.0000 0.85500  0.32230  0.88630  Biso   1.000  H
  H19      1.0000 0.82100  0.24720  0.98380  Biso   1.000  H
  H20      1.0000 0.99940  0.09110  0.77020  Biso   1.000  H
  H21      1.0000 0.76050  0.40750  0.77350  Biso   1.000  H
  H22      1.0000 0.63050  0.52630  0.75070  Biso   1.000  H
  H23      1.0000 0.81240  0.64240  0.65100  Biso   1.000  H
  H24      1.0000 0.90290  0.72100  0.88430  Biso   1.000  H
  H25      1.0000 0.91880  0.38150  0.47980  Biso   1.000  H
  H26      1.0000 0.81010  0.33750  0.49670  Biso   1.000  H
  C1       1.0000 0.45430  0.60560  0.94020  Biso   1.000  C
  C2       1.0000 0.36300  0.60600  0.03640  Biso   1.000  C
  C3       1.0000 0.40870  0.50110  0.09740  Biso   1.000  C
  C4       1.0000 0.40770  0.72120  0.87550  Biso   1.000  C
  C5       1.0000 0.21080  0.79740  0.79100  Biso   1.000  C
  C6       1.0000 0.24980  0.60850  0.73160  Biso   1.000  C
  C7       1.0000 0.21080  0.71610  0.07400  Biso   1.000  C
  C8       1.0000 0.09130  0.91210  0.20700  Biso   1.000  C
  C9       1.0000 0.26570  0.97010  0.18150  Biso   1.000  C
  C10      1.0000 0.31180  0.50180  0.20330  Biso   1.000  C
  C11      1.0000 0.18140  0.35330  0.28380  Biso   1.000  C
  C12      1.0000 0.13300  0.31300  0.15660  Biso   1.000  C
  C13      1.0000 0.54570  0.39440  0.05980  Biso   1.000  C
  C14      1.0000 0.63700  0.39400  0.96360  Biso   1.000  C
  C15      1.0000 0.59130  0.49890  0.90260  Biso   1.000  C
  C16      1.0000 0.59230  0.27880  0.12450  Biso   1.000  C
  C17      1.0000 0.78920  0.20260  0.20900  Biso   1.000  C
  C18      1.0000 0.75020  0.39150  0.26840  Biso   1.000  C
  C19      1.0000 0.78920  0.28390  0.92600  Biso   1.000  C
  C20      1.0000 0.90870  0.08790  0.79300  Biso   1.000  C
  C21      1.0000 0.73430  0.02990  0.81850  Biso   1.000  C
  C22      1.0000 0.68820  0.49820  0.79670  Biso   1.000  C
  C23      1.0000 0.81860  0.64670  0.71620  Biso   1.000  C
  C24      1.0000 0.86700  0.68700  0.84340  Biso   1.000  C
  N1       1.0000 0.16450  0.74110  0.73480  Biso   1.000  N
  N2       1.0000 0.31700  0.70430  0.81920  Biso   1.000  N
  N3       1.0000 0.34480  0.58080  0.78050  Biso   1.000  N
  N4       1.0000 0.12280  0.00270  0.24040  Biso   1.000  N
  N5       1.0000 0.20410  0.82540  0.13680  Biso   1.000  N
  N6       1.0000 0.31800  0.84300  0.13740  Biso   1.000  N
  N7       1.0000 0.11470  0.28920  0.25410  Biso   1.000  N
  N8       1.0000 0.23840  0.41080  0.20520  Biso   1.000  N
  N9       1.0000 0.20540  0.38780  0.12280  Biso   1.000  N
  N10      1.0000 0.83550  0.25890  0.26520  Biso   1.000  N
  N11      1.0000 0.68300  0.29570  0.18080  Biso   1.000  N
  N12      1.0000 0.65520  0.41920  0.21950  Biso   1.000  N
  N13      1.0000 0.87720  0.99730  0.75960  Biso   1.000  N
  N14      1.0000 0.79590  0.17460  0.86320  Biso   1.000  N
  N15      1.0000 0.68200  0.15700  0.86260  Biso   1.000  N
  N16      1.0000 0.88530  0.71080  0.74590  Biso   1.000  N
  N17      1.0000 0.76160  0.58920  0.79480  Biso   1.000  N
  N18      1.0000 0.79460  0.61220  0.87720  Biso   1.000  N
  O1       1.0000 0.85170  0.89400  0.57600  Biso   1.000  O
  O2       1.0000 0.87760  0.85860  0.37310  Biso   1.000  O
  O3       1.0000 0.86960  0.08820  0.44780  Biso   1.000  O
  O4       1.0000 0.63000  0.10160  0.39200  Biso   1.000  O
  O5       1.0000 0.59260  0.10360  0.58210  Biso   1.000  O
  O6       1.0000 0.55140  0.90870  0.71670  Biso   1.000  O
  O7       1.0000 0.32090  0.13520  0.70730  Biso   1.000  O
  O8       1.0000 0.37700  0.11570  0.50390  Biso   1.000  O
  O9       1.0000 0.06130  0.37630  0.73930  Biso   1.000  O
  O10      1.0000 0.09940  0.37610  0.53800  Biso   1.000  O
  O11      1.0000 0.33490  0.34180  0.60120  Biso   1.000  O
  O12      1.0000 0.41330  0.35110  0.39230  Biso   1.000  O
  O13      1.0000 0.60330  0.34010  0.48800  Biso   1.000  O
  O14      1.0000 0.11880  0.65590  0.54830  Biso   1.000  O
  O15      1.0000 0.14830  0.10600  0.42400  Biso   1.000  O
  O16      1.0000 0.12240  0.14140  0.62690  Biso   1.000  O
  O17      1.0000 0.13040  0.91180  0.55220  Biso   1.000  O
  O18      1.0000 0.37000  0.89840  0.60800  Biso   1.000  O
  O19      1.0000 0.40740  0.89640  0.41790  Biso   1.000  O
  O20      1.0000 0.44860  0.09130  0.28330  Biso   1.000  O
  O21      1.0000 0.67910  0.86480  0.29270  Biso   1.000  O
  O22      1.0000 0.62300  0.88430  0.49610  Biso   1.000  O
  O23      1.0000 0.93870  0.62370  0.26070  Biso   1.000  O
  O24      1.0000 0.90060  0.62390  0.46200  Biso   1.000  O
  O25      1.0000 0.66510  0.65820  0.39880  Biso   1.000  O
  O26      1.0000 0.58670  0.64890  0.60770  Biso   1.000  O
  O27      1.0000 0.39670  0.65990  0.51200  Biso   1.000  O
  O28      1.0000 0.88120  0.34410  0.45170  Biso   1.000  O
