data_image0
_cell_length_a       8.9108
_cell_length_b       9.0223
_cell_length_c       15.6837
_cell_angle_alpha    90
_cell_angle_beta     90
_cell_angle_gamma    90

_symmetry_space_group_name_H-M    P 1
_symmetry_int_tables_number       1

loop_
  _symmetry_equiv_pos_as_xyz
  'x, y, z'

loop_
  _atom_site_label
  _atom_site_occupancy
  _atom_site_fract_x
  _atom_site_fract_y
  _atom_site_fract_z
  _atom_site_thermal_displace_type
  _atom_site_B_iso_or_equiv
  _atom_site_type_symbol
  Y1       1.0000 0.39073  0.03133  0.39609  Biso   1.000  Y
  Y2       1.0000 0.60927  0.46867  0.89609  Biso   1.000  Y
  Y3       1.0000 0.89073  0.96867  0.10391  Biso   1.000  Y
  Y4       1.0000 0.10927  0.53133  0.60391  Biso   1.000  Y
  P1       1.0000 0.06799  0.12751  0.29399  Biso   1.000  P
  P2       1.0000 0.93201  0.37249  0.79399  Biso   1.000  P
  P3       1.0000 0.56799  0.87249  0.20601  Biso   1.000  P
  P4       1.0000 0.43201  0.62751  0.70601  Biso   1.000  P
  H1       1.0000 0.25240  0.14410  0.18960  Biso   1.000  H
  H2       1.0000 0.17750  0.30000  0.20320  Biso   1.000  H
  H3       1.0000 0.22120  0.44070  0.31280  Biso   1.000  H
  H4       1.0000 0.39140  0.45990  0.33460  Biso   1.000  H
  H5       1.0000 0.48070  0.37650  0.21630  Biso   1.000  H
  H6       1.0000 0.48810  0.20570  0.19720  Biso   1.000  H
  H7       1.0000 0.90390  0.26920  0.32240  Biso   1.000  H
  H8       1.0000 0.74760  0.35590  0.68960  Biso   1.000  H
  H9       1.0000 0.82250  0.20000  0.70320  Biso   1.000  H
  H10      1.0000 0.77880  0.05930  0.81280  Biso   1.000  H
  H11      1.0000 0.60860  0.04010  0.83460  Biso   1.000  H
  H12      1.0000 0.51930  0.12350  0.71630  Biso   1.000  H
  H13      1.0000 0.51190  0.29430  0.69720  Biso   1.000  H
  H14      1.0000 0.09610  0.23080  0.82240  Biso   1.000  H
  H15      1.0000 0.75240  0.85590  0.31040  Biso   1.000  H
  H16      1.0000 0.67750  0.70000  0.29680  Biso   1.000  H
  H17      1.0000 0.72120  0.55930  0.18720  Biso   1.000  H
  H18      1.0000 0.89140  0.54010  0.16540  Biso   1.000  H
  H19      1.0000 0.98070  0.62350  0.28370  Biso   1.000  H
  H20      1.0000 0.98810  0.79430  0.30280  Biso   1.000  H
  H21      1.0000 0.40390  0.73080  0.17760  Biso   1.000  H
  H22      1.0000 0.24760  0.64410  0.81040  Biso   1.000  H
  H23      1.0000 0.32250  0.80000  0.79680  Biso   1.000  H
  H24      1.0000 0.27880  0.94070  0.68720  Biso   1.000  H
  H25      1.0000 0.10860  0.95990  0.66540  Biso   1.000  H
  H26      1.0000 0.01930  0.87650  0.78370  Biso   1.000  H
  H27      1.0000 0.01190  0.70570  0.80280  Biso   1.000  H
  H28      1.0000 0.59610  0.76920  0.67760  Biso   1.000  H
  C1       1.0000 0.21620  0.21320  0.23230  Biso   1.000  C
  C2       1.0000 0.30690  0.39250  0.33900  Biso   1.000  C
  C3       1.0000 0.27330  0.36870  0.43050  Biso   1.000  C
  C4       1.0000 0.48080  0.27890  0.24230  Biso   1.000  C
  C5       1.0000 0.61500  0.26440  0.30220  Biso   1.000  C
  C6       1.0000 0.78380  0.28680  0.73230  Biso   1.000  C
  C7       1.0000 0.69310  0.10750  0.83900  Biso   1.000  C
  C8       1.0000 0.72670  0.13130  0.93050  Biso   1.000  C
  C9       1.0000 0.51920  0.22110  0.74230  Biso   1.000  C
  C10      1.0000 0.38500  0.23560  0.80220  Biso   1.000  C
  C11      1.0000 0.71620  0.78680  0.26770  Biso   1.000  C
  C12      1.0000 0.80690  0.60750  0.16100  Biso   1.000  C
  C13      1.0000 0.77330  0.63130  0.06950  Biso   1.000  C
  C14      1.0000 0.98080  0.72110  0.25770  Biso   1.000  C
  C15      1.0000 0.11500  0.73560  0.19780  Biso   1.000  C
  C16      1.0000 0.28380  0.71320  0.76770  Biso   1.000  C
  C17      1.0000 0.19310  0.89250  0.66100  Biso   1.000  C
  C18      1.0000 0.22670  0.86870  0.56950  Biso   1.000  C
  C19      1.0000 0.01920  0.77890  0.75770  Biso   1.000  C
  C20      1.0000 0.88500  0.76440  0.69780  Biso   1.000  C
  N1       1.0000 0.34210  0.25700  0.28980  Biso   1.000  N
  N2       1.0000 0.65790  0.24300  0.78980  Biso   1.000  N
  N3       1.0000 0.84210  0.74300  0.21020  Biso   1.000  N
  N4       1.0000 0.15790  0.75700  0.71020  Biso   1.000  N
  O1       1.0000 0.31370  0.24490  0.46521  Biso   1.000  O
  O2       1.0000 0.20800  0.46840  0.47071  Biso   1.000  O
  O3       1.0000 0.73940  0.31650  0.27640  Biso   1.000  O
  O4       1.0000 0.59920  0.18790  0.37018  Biso   1.000  O
  O5       1.0000 0.98320  0.24900  0.34630  Biso   1.000  O
  O6       1.0000 0.96490  0.05100  0.23265  Biso   1.000  O
  O7       1.0000 0.14580  0.02570  0.35531  Biso   1.000  O
  O8       1.0000 0.59380  0.93960  0.47970  Biso   1.000  O
  O9       1.0000 0.34880  0.76600  0.38930  Biso   1.000  O
  O10      1.0000 0.68630  0.25510  0.96521  Biso   1.000  O
  O11      1.0000 0.79200  0.03160  0.97071  Biso   1.000  O
  O12      1.0000 0.26060  0.18350  0.77640  Biso   1.000  O
  O13      1.0000 0.40080  0.31210  0.87018  Biso   1.000  O
  O14      1.0000 0.01680  0.25100  0.84630  Biso   1.000  O
  O15      1.0000 0.03510  0.44900  0.73265  Biso   1.000  O
  O16      1.0000 0.85420  0.47430  0.85531  Biso   1.000  O
  O17      1.0000 0.40620  0.56040  0.97970  Biso   1.000  O
  O18      1.0000 0.65120  0.73400  0.88930  Biso   1.000  O
  O19      1.0000 0.81370  0.75510  0.03479  Biso   1.000  O
  O20      1.0000 0.70800  0.53160  0.02929  Biso   1.000  O
  O21      1.0000 0.23940  0.68350  0.22360  Biso   1.000  O
  O22      1.0000 0.09920  0.81210  0.12982  Biso   1.000  O
  O23      1.0000 0.48320  0.75100  0.15370  Biso   1.000  O
  O24      1.0000 0.46490  0.94900  0.26735  Biso   1.000  O
  O25      1.0000 0.64580  0.97430  0.14469  Biso   1.000  O
  O26      1.0000 0.09380  0.06040  0.02030  Biso   1.000  O
  O27      1.0000 0.84880  0.23400  0.11070  Biso   1.000  O
  O28      1.0000 0.18630  0.74490  0.53479  Biso   1.000  O
  O29      1.0000 0.29200  0.96840  0.52929  Biso   1.000  O
  O30      1.0000 0.76060  0.81650  0.72360  Biso   1.000  O
  O31      1.0000 0.90080  0.68790  0.62982  Biso   1.000  O
  O32      1.0000 0.51680  0.74900  0.65370  Biso   1.000  O
  O33      1.0000 0.53510  0.55100  0.76735  Biso   1.000  O
  O34      1.0000 0.35420  0.52570  0.64469  Biso   1.000  O
  O35      1.0000 0.90620  0.43960  0.52030  Biso   1.000  O
  O36      1.0000 0.15120  0.26600  0.61070  Biso   1.000  O
