data_image0
_cell_length_a       8.9062
_cell_length_b       8.9466
_cell_length_c       15.5353
_cell_angle_alpha    90
_cell_angle_beta     90
_cell_angle_gamma    90

_symmetry_space_group_name_H-M    P 1
_symmetry_int_tables_number       1

loop_
  _symmetry_equiv_pos_as_xyz
  'x, y, z'

loop_
  _atom_site_label
  _atom_site_occupancy
  _atom_site_fract_x
  _atom_site_fract_y
  _atom_site_fract_z
  _atom_site_thermal_displace_type
  _atom_site_B_iso_or_equiv
  _atom_site_type_symbol
  Lu1      1.0000 0.38822  0.03214  0.39509  Biso   1.000  Lu
  Lu2      1.0000 0.61178  0.46786  0.89509  Biso   1.000  Lu
  Lu3      1.0000 0.88822  0.96786  0.10491  Biso   1.000  Lu
  Lu4      1.0000 0.11178  0.53214  0.60491  Biso   1.000  Lu
  P1       1.0000 0.06669  0.12683  0.29390  Biso   1.000  P
  P2       1.0000 0.93331  0.37317  0.79390  Biso   1.000  P
  P3       1.0000 0.56669  0.87317  0.20610  Biso   1.000  P
  P4       1.0000 0.43331  0.62683  0.70610  Biso   1.000  P
  H1       1.0000 0.24950  0.14700  0.18770  Biso   1.000  H
  H2       1.0000 0.17530  0.30390  0.20380  Biso   1.000  H
  H3       1.0000 0.22080  0.44220  0.31270  Biso   1.000  H
  H4       1.0000 0.39150  0.46020  0.33440  Biso   1.000  H
  H5       1.0000 0.48250  0.37920  0.21640  Biso   1.000  H
  H6       1.0000 0.48790  0.20780  0.19440  Biso   1.000  H
  H7       1.0000 0.90290  0.27040  0.32380  Biso   1.000  H
  H8       1.0000 0.75050  0.35300  0.68770  Biso   1.000  H
  H9       1.0000 0.82470  0.19610  0.70380  Biso   1.000  H
  H10      1.0000 0.77920  0.05780  0.81270  Biso   1.000  H
  H11      1.0000 0.60850  0.03980  0.83440  Biso   1.000  H
  H12      1.0000 0.51750  0.12080  0.71640  Biso   1.000  H
  H13      1.0000 0.51210  0.29220  0.69440  Biso   1.000  H
  H14      1.0000 0.09710  0.22960  0.82380  Biso   1.000  H
  H15      1.0000 0.74950  0.85300  0.31230  Biso   1.000  H
  H16      1.0000 0.67530  0.69610  0.29620  Biso   1.000  H
  H17      1.0000 0.72080  0.55780  0.18730  Biso   1.000  H
  H18      1.0000 0.89150  0.53980  0.16560  Biso   1.000  H
  H19      1.0000 0.98250  0.62080  0.28360  Biso   1.000  H
  H20      1.0000 0.98790  0.79220  0.30560  Biso   1.000  H
  H21      1.0000 0.40290  0.72960  0.17620  Biso   1.000  H
  H22      1.0000 0.25050  0.64700  0.81230  Biso   1.000  H
  H23      1.0000 0.32470  0.80390  0.79620  Biso   1.000  H
  H24      1.0000 0.27920  0.94220  0.68730  Biso   1.000  H
  H25      1.0000 0.10850  0.96020  0.66560  Biso   1.000  H
  H26      1.0000 0.01750  0.87920  0.78360  Biso   1.000  H
  H27      1.0000 0.01210  0.70780  0.80560  Biso   1.000  H
  H28      1.0000 0.59710  0.77040  0.67620  Biso   1.000  H
  C1       1.0000 0.21420  0.21510  0.23190  Biso   1.000  C
  C2       1.0000 0.30650  0.39280  0.33870  Biso   1.000  C
  C3       1.0000 0.27330  0.36580  0.43200  Biso   1.000  C
  C4       1.0000 0.48130  0.27950  0.24110  Biso   1.000  C
  C5       1.0000 0.61480  0.26030  0.30150  Biso   1.000  C
  C6       1.0000 0.78580  0.28490  0.73190  Biso   1.000  C
  C7       1.0000 0.69350  0.10720  0.83870  Biso   1.000  C
  C8       1.0000 0.72670  0.13420  0.93200  Biso   1.000  C
  C9       1.0000 0.51870  0.22050  0.74110  Biso   1.000  C
  C10      1.0000 0.38520  0.23970  0.80150  Biso   1.000  C
  C11      1.0000 0.71420  0.78490  0.26810  Biso   1.000  C
  C12      1.0000 0.80650  0.60720  0.16130  Biso   1.000  C
  C13      1.0000 0.77330  0.63420  0.06800  Biso   1.000  C
  C14      1.0000 0.98130  0.72050  0.25890  Biso   1.000  C
  C15      1.0000 0.11480  0.73970  0.19850  Biso   1.000  C
  C16      1.0000 0.28580  0.71510  0.76810  Biso   1.000  C
  C17      1.0000 0.19350  0.89280  0.66130  Biso   1.000  C
  C18      1.0000 0.22670  0.86580  0.56800  Biso   1.000  C
  C19      1.0000 0.01870  0.77950  0.75890  Biso   1.000  C
  C20      1.0000 0.88520  0.76030  0.69850  Biso   1.000  C
  N1       1.0000 0.34020  0.25640  0.28930  Biso   1.000  N
  N2       1.0000 0.65980  0.24360  0.78930  Biso   1.000  N
  N3       1.0000 0.84020  0.74360  0.21070  Biso   1.000  N
  N4       1.0000 0.15980  0.75640  0.71070  Biso   1.000  N
  O1       1.0000 0.31520  0.24320  0.46560  Biso   1.000  O
  O2       1.0000 0.20860  0.46910  0.47190  Biso   1.000  O
  O3       1.0000 0.73810  0.31530  0.27790  Biso   1.000  O
  O4       1.0000 0.59600  0.18750  0.37070  Biso   1.000  O
  O5       1.0000 0.98260  0.24970  0.34740  Biso   1.000  O
  O6       1.0000 0.96100  0.04930  0.23340  Biso   1.000  O
  O7       1.0000 0.14660  0.02480  0.35560  Biso   1.000  O
  O8       1.0000 0.58640  0.94320  0.47890  Biso   1.000  O
  O9       1.0000 0.34790  0.76820  0.38870  Biso   1.000  O
  O10      1.0000 0.68480  0.25680  0.96560  Biso   1.000  O
  O11      1.0000 0.79140  0.03090  0.97190  Biso   1.000  O
  O12      1.0000 0.26190  0.18470  0.77790  Biso   1.000  O
  O13      1.0000 0.40400  0.31250  0.87070  Biso   1.000  O
  O14      1.0000 0.01740  0.25030  0.84740  Biso   1.000  O
  O15      1.0000 0.03900  0.45070  0.73340  Biso   1.000  O
  O16      1.0000 0.85340  0.47520  0.85560  Biso   1.000  O
  O17      1.0000 0.41360  0.55680  0.97890  Biso   1.000  O
  O18      1.0000 0.65210  0.73180  0.88870  Biso   1.000  O
  O19      1.0000 0.81520  0.75680  0.03440  Biso   1.000  O
  O20      1.0000 0.70860  0.53090  0.02810  Biso   1.000  O
  O21      1.0000 0.23810  0.68470  0.22210  Biso   1.000  O
  O22      1.0000 0.09600  0.81250  0.12930  Biso   1.000  O
  O23      1.0000 0.48260  0.75030  0.15260  Biso   1.000  O
  O24      1.0000 0.46100  0.95070  0.26660  Biso   1.000  O
  O25      1.0000 0.64660  0.97520  0.14440  Biso   1.000  O
  O26      1.0000 0.08640  0.05680  0.02110  Biso   1.000  O
  O27      1.0000 0.84790  0.23180  0.11130  Biso   1.000  O
  O28      1.0000 0.18480  0.74320  0.53440  Biso   1.000  O
  O29      1.0000 0.29140  0.96910  0.52810  Biso   1.000  O
  O30      1.0000 0.76190  0.81530  0.72210  Biso   1.000  O
  O31      1.0000 0.90400  0.68750  0.62930  Biso   1.000  O
  O32      1.0000 0.51740  0.74970  0.65260  Biso   1.000  O
  O33      1.0000 0.53900  0.54930  0.76660  Biso   1.000  O
  O34      1.0000 0.35340  0.52480  0.64440  Biso   1.000  O
  O35      1.0000 0.91360  0.44320  0.52110  Biso   1.000  O
  O36      1.0000 0.15210  0.26820  0.61130  Biso   1.000  O
