data_image0
_cell_length_a       9.0085
_cell_length_b       9.0085
_cell_length_c       15.799
_cell_angle_alpha    90
_cell_angle_beta     90
_cell_angle_gamma    90

_symmetry_space_group_name_H-M    P 1
_symmetry_int_tables_number       1

loop_
  _symmetry_equiv_pos_as_xyz
  'x, y, z'

loop_
  _atom_site_label
  _atom_site_occupancy
  _atom_site_fract_x
  _atom_site_fract_y
  _atom_site_fract_z
  _atom_site_thermal_displace_type
  _atom_site_B_iso_or_equiv
  _atom_site_type_symbol
  Er1      1.0000 0.03212  0.38941  0.39568  Biso   1.000  Er
  Er2      1.0000 0.46788  0.61059  0.89568  Biso   1.000  Er
  Er3      1.0000 0.96788  0.88941  0.10432  Biso   1.000  Er
  Er4      1.0000 0.53212  0.11059  0.60432  Biso   1.000  Er
  P1       1.0000 0.12667  0.06673  0.29404  Biso   1.000  P
  P2       1.0000 0.37333  0.93327  0.79404  Biso   1.000  P
  P3       1.0000 0.87333  0.56673  0.20596  Biso   1.000  P
  P4       1.0000 0.62667  0.43327  0.70596  Biso   1.000  P
  H1       1.0000 0.14290  0.25030  0.18970  Biso   1.000  H
  H2       1.0000 0.29940  0.17680  0.20300  Biso   1.000  H
  H3       1.0000 0.44060  0.22020  0.31340  Biso   1.000  H
  H4       1.0000 0.46020  0.38880  0.33440  Biso   1.000  H
  H5       1.0000 0.37770  0.48020  0.21720  Biso   1.000  H
  H6       1.0000 0.20700  0.48740  0.19700  Biso   1.000  H
  H7       1.0000 0.26910  0.90390  0.32300  Biso   1.000  H
  H8       1.0000 0.35710  0.74970  0.68970  Biso   1.000  H
  H9       1.0000 0.20060  0.82320  0.70300  Biso   1.000  H
  H10      1.0000 0.05940  0.77980  0.81340  Biso   1.000  H
  H11      1.0000 0.03980  0.61120  0.83440  Biso   1.000  H
  H12      1.0000 0.12230  0.51980  0.71720  Biso   1.000  H
  H13      1.0000 0.29300  0.51260  0.69700  Biso   1.000  H
  H14      1.0000 0.23090  0.09610  0.82300  Biso   1.000  H
  H15      1.0000 0.85710  0.75030  0.31030  Biso   1.000  H
  H16      1.0000 0.70060  0.67680  0.29700  Biso   1.000  H
  H17      1.0000 0.55940  0.72020  0.18660  Biso   1.000  H
  H18      1.0000 0.53980  0.88880  0.16560  Biso   1.000  H
  H19      1.0000 0.62230  0.98020  0.28280  Biso   1.000  H
  H20      1.0000 0.79300  0.98740  0.30300  Biso   1.000  H
  H21      1.0000 0.73090  0.40390  0.17700  Biso   1.000  H
  H22      1.0000 0.64290  0.24970  0.81030  Biso   1.000  H
  H23      1.0000 0.79940  0.32320  0.79700  Biso   1.000  H
  H24      1.0000 0.94060  0.27980  0.68660  Biso   1.000  H
  H25      1.0000 0.96020  0.11120  0.66560  Biso   1.000  H
  H26      1.0000 0.87770  0.01980  0.78280  Biso   1.000  H
  H27      1.0000 0.70700  0.01260  0.80300  Biso   1.000  H
  H28      1.0000 0.76910  0.59610  0.67700  Biso   1.000  H
  C1       1.0000 0.21240  0.21470  0.23200  Biso   1.000  C
  C2       1.0000 0.39250  0.30540  0.33910  Biso   1.000  C
  C3       1.0000 0.36800  0.27300  0.43120  Biso   1.000  C
  C4       1.0000 0.27940  0.48000  0.24220  Biso   1.000  C
  C5       1.0000 0.26310  0.61300  0.30240  Biso   1.000  C
  C6       1.0000 0.28760  0.78530  0.73200  Biso   1.000  C
  C7       1.0000 0.10750  0.69460  0.83910  Biso   1.000  C
  C8       1.0000 0.13200  0.72700  0.93120  Biso   1.000  C
  C9       1.0000 0.22060  0.52000  0.74220  Biso   1.000  C
  C10      1.0000 0.23690  0.38700  0.80240  Biso   1.000  C
  C11      1.0000 0.78760  0.71470  0.26800  Biso   1.000  C
  C12      1.0000 0.60750  0.80540  0.16090  Biso   1.000  C
  C13      1.0000 0.63200  0.77300  0.06880  Biso   1.000  C
  C14      1.0000 0.72060  0.98000  0.25780  Biso   1.000  C
  C15      1.0000 0.73690  0.11300  0.19760  Biso   1.000  C
  C16      1.0000 0.71240  0.28530  0.76800  Biso   1.000  C
  C17      1.0000 0.89250  0.19460  0.66090  Biso   1.000  C
  C18      1.0000 0.86800  0.22700  0.56880  Biso   1.000  C
  C19      1.0000 0.77940  0.02000  0.75780  Biso   1.000  C
  C20      1.0000 0.76310  0.88700  0.69760  Biso   1.000  C
  N1       1.0000 0.25620  0.34010  0.28980  Biso   1.000  N
  N2       1.0000 0.24380  0.65990  0.78980  Biso   1.000  N
  N3       1.0000 0.74380  0.84010  0.21020  Biso   1.000  N
  N4       1.0000 0.75620  0.15990  0.71020  Biso   1.000  N
  O1       1.0000 0.24500  0.31360  0.46530  Biso   1.000  O
  O2       1.0000 0.46920  0.20750  0.47110  Biso   1.000  O
  O3       1.0000 0.31610  0.73740  0.27620  Biso   1.000  O
  O4       1.0000 0.18930  0.59660  0.37010  Biso   1.000  O
  O5       1.0000 0.24880  0.98250  0.34650  Biso   1.000  O
  O6       1.0000 0.05070  0.96280  0.23330  Biso   1.000  O
  O7       1.0000 0.02570  0.14370  0.35540  Biso   1.000  O
  O8       1.0000 0.94100  0.59270  0.47720  Biso   1.000  O
  O9       1.0000 0.76810  0.34850  0.38900  Biso   1.000  O
  O10      1.0000 0.25500  0.68640  0.96530  Biso   1.000  O
  O11      1.0000 0.03080  0.79250  0.97110  Biso   1.000  O
  O12      1.0000 0.18390  0.26260  0.77620  Biso   1.000  O
  O13      1.0000 0.31070  0.40340  0.87010  Biso   1.000  O
  O14      1.0000 0.25120  0.01750  0.84650  Biso   1.000  O
  O15      1.0000 0.44930  0.03720  0.73330  Biso   1.000  O
  O16      1.0000 0.47430  0.85630  0.85540  Biso   1.000  O
  O17      1.0000 0.55900  0.40730  0.97720  Biso   1.000  O
  O18      1.0000 0.73190  0.65150  0.88900  Biso   1.000  O
  O19      1.0000 0.75500  0.81360  0.03470  Biso   1.000  O
  O20      1.0000 0.53080  0.70750  0.02890  Biso   1.000  O
  O21      1.0000 0.68390  0.23740  0.22380  Biso   1.000  O
  O22      1.0000 0.81070  0.09660  0.12990  Biso   1.000  O
  O23      1.0000 0.75120  0.48250  0.15350  Biso   1.000  O
  O24      1.0000 0.94930  0.46280  0.26670  Biso   1.000  O
  O25      1.0000 0.97430  0.64370  0.14460  Biso   1.000  O
  O26      1.0000 0.05900  0.09270  0.02280  Biso   1.000  O
  O27      1.0000 0.23190  0.84850  0.11100  Biso   1.000  O
  O28      1.0000 0.74500  0.18640  0.53470  Biso   1.000  O
  O29      1.0000 0.96920  0.29250  0.52890  Biso   1.000  O
  O30      1.0000 0.81610  0.76260  0.72380  Biso   1.000  O
  O31      1.0000 0.68930  0.90340  0.62990  Biso   1.000  O
  O32      1.0000 0.74880  0.51750  0.65350  Biso   1.000  O
  O33      1.0000 0.55070  0.53720  0.76670  Biso   1.000  O
  O34      1.0000 0.52570  0.35630  0.64460  Biso   1.000  O
  O35      1.0000 0.44100  0.90730  0.52280  Biso   1.000  O
  O36      1.0000 0.26810  0.15150  0.61100  Biso   1.000  O
