data_image0
_cell_length_a       13.6328
_cell_length_b       14.4083
_cell_length_c       25.846
_cell_angle_alpha    90
_cell_angle_beta     90
_cell_angle_gamma    109.819

_symmetry_space_group_name_H-M    P 1
_symmetry_int_tables_number       1

loop_
  _symmetry_equiv_pos_as_xyz
  'x, y, z'

loop_
  _atom_site_label
  _atom_site_occupancy
  _atom_site_fract_x
  _atom_site_fract_y
  _atom_site_fract_z
  _atom_site_thermal_displace_type
  _atom_site_B_iso_or_equiv
  _atom_site_type_symbol
  Cd1      1.0000 0.63487  0.14435  0.92826  Biso   1.000  Cd
  Cd2      1.0000 0.63141  0.85379  0.00358  Biso   1.000  Cd
  Cd3      1.0000 0.73484  0.75313  0.90081  Biso   1.000  Cd
  Cd4      1.0000 0.75769  0.76013  0.09973  Biso   1.000  Cd
  Cd5      1.0000 0.35733  0.35191  0.24865  Biso   1.000  Cd
  Cd6      1.0000 0.86513  0.35565  0.42826  Biso   1.000  Cd
  Cd7      1.0000 0.86859  0.64621  0.50358  Biso   1.000  Cd
  Cd8      1.0000 0.76516  0.74687  0.40081  Biso   1.000  Cd
  Cd9      1.0000 0.74231  0.73987  0.59973  Biso   1.000  Cd
  Cd10     1.0000 0.14267  0.14809  0.74865  Biso   1.000  Cd
  Cd11     1.0000 0.36513  0.85565  0.07174  Biso   1.000  Cd
  Cd12     1.0000 0.36859  0.14621  0.99642  Biso   1.000  Cd
  Cd13     1.0000 0.26516  0.24687  0.09919  Biso   1.000  Cd
  Cd14     1.0000 0.24231  0.23987  0.90027  Biso   1.000  Cd
  Cd15     1.0000 0.64267  0.64809  0.75135  Biso   1.000  Cd
  Cd16     1.0000 0.13487  0.64435  0.57174  Biso   1.000  Cd
  Cd17     1.0000 0.13141  0.35379  0.49642  Biso   1.000  Cd
  Cd18     1.0000 0.23484  0.25313  0.59919  Biso   1.000  Cd
  Cd19     1.0000 0.25769  0.26013  0.40027  Biso   1.000  Cd
  Cd20     1.0000 0.85733  0.85191  0.25135  Biso   1.000  Cd
  H1       1.0000 0.54500  0.26550  0.87100  Biso   1.000  H
  H2       1.0000 0.53000  0.18500  0.83800  Biso   1.000  H
  H3       1.0000 0.72700  0.13700  0.82910  Biso   1.000  H
  H4       1.0000 0.71600  0.06950  0.86900  Biso   1.000  H
  H5       1.0000 0.44660  0.98800  0.90300  Biso   1.000  H
  H6       1.0000 0.52900  0.95100  0.90300  Biso   1.000  H
  H7       1.0000 0.94980  0.13730  0.98210  Biso   1.000  H
  H8       1.0000 0.66000  0.47160  0.97820  Biso   1.000  H
  H9       1.0000 0.73370  0.53730  0.89930  Biso   1.000  H
  H10      1.0000 0.83330  0.43770  0.90760  Biso   1.000  H
  H11      1.0000 0.14620  0.55170  0.84530  Biso   1.000  H
  H12      1.0000 0.23460  0.44290  0.84730  Biso   1.000  H
  H13      1.0000 0.05370  0.28880  0.95480  Biso   1.000  H
  H14      1.0000 0.95410  0.38680  0.95210  Biso   1.000  H
  H15      1.0000 0.08550  0.67430  0.88050  Biso   1.000  H
  H16      1.0000 0.98020  0.76830  0.87500  Biso   1.000  H
  H17      1.0000 0.86260  0.06350  0.28400  Biso   1.000  H
  H18      1.0000 0.76180  0.16110  0.28980  Biso   1.000  H
  H19      1.0000 0.46740  0.05180  0.20730  Biso   1.000  H
  H20      1.0000 0.37050  0.15450  0.20540  Biso   1.000  H
  H21      1.0000 0.52700  0.30860  0.32120  Biso   1.000  H
  H22      1.0000 0.62740  0.21000  0.32580  Biso   1.000  H
  H23      1.0000 0.51470  0.93070  0.24770  Biso   1.000  H
  H24      1.0000 0.62100  0.83700  0.24550  Biso   1.000  H
  H25      1.0000 0.95500  0.23450  0.37100  Biso   1.000  H
  H26      1.0000 0.97000  0.31500  0.33800  Biso   1.000  H
  H27      1.0000 0.77300  0.36300  0.32910  Biso   1.000  H
  H28      1.0000 0.78400  0.43050  0.36900  Biso   1.000  H
  H29      1.0000 0.05340  0.51200  0.40300  Biso   1.000  H
  H30      1.0000 0.97100  0.54900  0.40300  Biso   1.000  H
  H31      1.0000 0.55020  0.36270  0.48210  Biso   1.000  H
  H32      1.0000 0.84000  0.02840  0.47820  Biso   1.000  H
  H33      1.0000 0.76630  0.96270  0.39930  Biso   1.000  H
  H34      1.0000 0.66670  0.06230  0.40760  Biso   1.000  H
  H35      1.0000 0.35380  0.94830  0.34530  Biso   1.000  H
  H36      1.0000 0.26540  0.05710  0.34730  Biso   1.000  H
  H37      1.0000 0.44630  0.21120  0.45480  Biso   1.000  H
  H38      1.0000 0.54590  0.11320  0.45210  Biso   1.000  H
  H39      1.0000 0.41450  0.82570  0.38050  Biso   1.000  H
  H40      1.0000 0.51980  0.73170  0.37500  Biso   1.000  H
  H41      1.0000 0.63740  0.43650  0.78400  Biso   1.000  H
  H42      1.0000 0.73820  0.33890  0.78980  Biso   1.000  H
  H43      1.0000 0.03260  0.44820  0.70730  Biso   1.000  H
  H44      1.0000 0.12950  0.34550  0.70540  Biso   1.000  H
  H45      1.0000 0.97300  0.19140  0.82120  Biso   1.000  H
  H46      1.0000 0.87260  0.29000  0.82580  Biso   1.000  H
  H47      1.0000 0.98530  0.56930  0.74770  Biso   1.000  H
  H48      1.0000 0.87900  0.66300  0.74550  Biso   1.000  H
  H49      1.0000 0.45500  0.73450  0.12900  Biso   1.000  H
  H50      1.0000 0.47000  0.81500  0.16200  Biso   1.000  H
  H51      1.0000 0.27300  0.86300  0.17090  Biso   1.000  H
  H52      1.0000 0.28400  0.93050  0.13100  Biso   1.000  H
  H53      1.0000 0.55340  0.01200  0.09700  Biso   1.000  H
  H54      1.0000 0.47100  0.04900  0.09700  Biso   1.000  H
  H55      1.0000 0.05020  0.86270  0.01790  Biso   1.000  H
  H56      1.0000 0.34000  0.52840  0.02180  Biso   1.000  H
  H57      1.0000 0.26630  0.46270  0.10070  Biso   1.000  H
  H58      1.0000 0.16670  0.56230  0.09240  Biso   1.000  H
  H59      1.0000 0.85380  0.44830  0.15470  Biso   1.000  H
  H60      1.0000 0.76540  0.55710  0.15270  Biso   1.000  H
  H61      1.0000 0.94630  0.71120  0.04520  Biso   1.000  H
  H62      1.0000 0.04590  0.61320  0.04790  Biso   1.000  H
  H63      1.0000 0.91450  0.32570  0.11950  Biso   1.000  H
  H64      1.0000 0.01980  0.23170  0.12500  Biso   1.000  H
  H65      1.0000 0.13740  0.93650  0.71600  Biso   1.000  H
  H66      1.0000 0.23820  0.83890  0.71020  Biso   1.000  H
  H67      1.0000 0.53260  0.94820  0.79270  Biso   1.000  H
  H68      1.0000 0.62950  0.84550  0.79460  Biso   1.000  H
  H69      1.0000 0.47300  0.69140  0.67880  Biso   1.000  H
  H70      1.0000 0.37260  0.79000  0.67420  Biso   1.000  H
  H71      1.0000 0.48530  0.06930  0.75230  Biso   1.000  H
  H72      1.0000 0.37900  0.16300  0.75450  Biso   1.000  H
  H73      1.0000 0.04500  0.76550  0.62900  Biso   1.000  H
  H74      1.0000 0.03000  0.68500  0.66200  Biso   1.000  H
  H75      1.0000 0.22700  0.63700  0.67090  Biso   1.000  H
  H76      1.0000 0.21600  0.56950  0.63100  Biso   1.000  H
  H77      1.0000 0.94660  0.48800  0.59700  Biso   1.000  H
  H78      1.0000 0.02900  0.45100  0.59700  Biso   1.000  H
  H79      1.0000 0.44980  0.63730  0.51790  Biso   1.000  H
  H80      1.0000 0.16000  0.97160  0.52180  Biso   1.000  H
  H81      1.0000 0.23370  0.03730  0.60070  Biso   1.000  H
  H82      1.0000 0.33330  0.93770  0.59240  Biso   1.000  H
  H83      1.0000 0.64620  0.05170  0.65470  Biso   1.000  H
  H84      1.0000 0.73460  0.94290  0.65270  Biso   1.000  H
  H85      1.0000 0.55370  0.78880  0.54520  Biso   1.000  H
  H86      1.0000 0.45410  0.88680  0.54790  Biso   1.000  H
  H87      1.0000 0.58550  0.17430  0.61950  Biso   1.000  H
  H88      1.0000 0.48020  0.26830  0.62500  Biso   1.000  H
  H89      1.0000 0.36260  0.56350  0.21600  Biso   1.000  H
  H90      1.0000 0.26180  0.66110  0.21020  Biso   1.000  H
  H91      1.0000 0.96740  0.55180  0.29270  Biso   1.000  H
  H92      1.0000 0.87050  0.65450  0.29460  Biso   1.000  H
  H93      1.0000 0.02700  0.80860  0.17880  Biso   1.000  H
  H94      1.0000 0.12740  0.71000  0.17420  Biso   1.000  H
  H95      1.0000 0.01470  0.43070  0.25230  Biso   1.000  H
  H96      1.0000 0.12100  0.33700  0.25450  Biso   1.000  H
  C1       1.0000 0.02900  0.09720  0.03860  Biso   1.000  C
  C2       1.0000 0.01880  0.05170  0.08690  Biso   1.000  C
  C3       1.0000 0.91810  0.01000  0.10810  Biso   1.000  C
  C4       1.0000 0.83040  0.01750  0.08230  Biso   1.000  C
  C5       1.0000 0.84350  0.06850  0.03560  Biso   1.000  C
  C6       1.0000 0.94170  0.10570  0.01400  Biso   1.000  C
  C7       1.0000 0.13050  0.13390  0.00920  Biso   1.000  C
  C8       1.0000 0.10910  0.03900  0.11790  Biso   1.000  C
  C9       1.0000 0.90470  0.95500  0.15880  Biso   1.000  C
  C10      1.0000 0.72240  0.97130  0.10570  Biso   1.000  C
  C11      1.0000 0.75630  0.08100  0.00330  Biso   1.000  C
  C12      1.0000 0.61020  0.53540  0.03720  Biso   1.000  C
  C13      1.0000 0.56460  0.51710  0.08620  Biso   1.000  C
  C14      1.0000 0.52670  0.41870  0.10420  Biso   1.000  C
  C15      1.0000 0.53780  0.34210  0.07500  Biso   1.000  C
  C16      1.0000 0.58930  0.36140  0.02770  Biso   1.000  C
  C17      1.0000 0.62500  0.45810  0.00970  Biso   1.000  C
  C18      1.0000 0.64150  0.63330  0.01060  Biso   1.000  C
  C19      1.0000 0.54720  0.59840  0.11960  Biso   1.000  C
  C20      1.0000 0.46980  0.39890  0.15550  Biso   1.000  C
  C21      1.0000 0.49580  0.23660  0.09510  Biso   1.000  C
  C22      1.0000 0.60660  0.28510  0.99210  Biso   1.000  C
  C23      1.0000 0.80580  0.56570  0.89660  Biso   1.000  C
  C24      1.0000 0.86460  0.50470  0.90090  Biso   1.000  C
  C25      1.0000 0.97220  0.54650  0.89490  Biso   1.000  C
  C26      1.0000 0.03750  0.48080  0.89830  Biso   1.000  C
  C27      1.0000 0.12430  0.49730  0.86720  Biso   1.000  C
  C28      1.0000 0.17760  0.43170  0.86920  Biso   1.000  C
  C29      1.0000 0.07140  0.34090  0.93130  Biso   1.000  C
  C30      1.0000 0.01200  0.40060  0.93060  Biso   1.000  C
  C31      1.0000 0.01400  0.64500  0.88510  Biso   1.000  C
  C32      1.0000 0.95020  0.70130  0.88210  Biso   1.000  C
  C33      1.0000 0.79170  0.03630  0.27690  Biso   1.000  C
  C34      1.0000 0.73200  0.09560  0.27960  Biso   1.000  C
  C35      1.0000 0.62680  0.05770  0.26690  Biso   1.000  C
  C36      1.0000 0.56040  0.12110  0.26630  Biso   1.000  C
  C37      1.0000 0.48150  0.10410  0.23040  Biso   1.000  C
  C38      1.0000 0.42390  0.16650  0.22960  Biso   1.000  C
  C39      1.0000 0.51580  0.25720  0.29760  Biso   1.000  C
  C40      1.0000 0.57590  0.19810  0.30060  Biso   1.000  C
  C41      1.0000 0.58540  0.95930  0.25500  Biso   1.000  C
  C42      1.0000 0.64980  0.90350  0.25400  Biso   1.000  C
  C43      1.0000 0.47100  0.40280  0.53860  Biso   1.000  C
  C44      1.0000 0.48120  0.44830  0.58690  Biso   1.000  C
  C45      1.0000 0.58190  0.49000  0.60810  Biso   1.000  C
  C46      1.0000 0.66960  0.48250  0.58230  Biso   1.000  C
  C47      1.0000 0.65650  0.43150  0.53560  Biso   1.000  C
  C48      1.0000 0.55830  0.39430  0.51400  Biso   1.000  C
  C49      1.0000 0.36950  0.36610  0.50920  Biso   1.000  C
  C50      1.0000 0.39090  0.46100  0.61790  Biso   1.000  C
  C51      1.0000 0.59530  0.54500  0.65880  Biso   1.000  C
  C52      1.0000 0.77760  0.52870  0.60570  Biso   1.000  C
  C53      1.0000 0.74370  0.41900  0.50330  Biso   1.000  C
  C54      1.0000 0.88980  0.96460  0.53720  Biso   1.000  C
  C55      1.0000 0.93540  0.98290  0.58620  Biso   1.000  C
  C56      1.0000 0.97330  0.08130  0.60420  Biso   1.000  C
  C57      1.0000 0.96220  0.15790  0.57500  Biso   1.000  C
  C58      1.0000 0.91070  0.13860  0.52770  Biso   1.000  C
  C59      1.0000 0.87500  0.04190  0.50970  Biso   1.000  C
  C60      1.0000 0.85850  0.86670  0.51060  Biso   1.000  C
  C61      1.0000 0.95280  0.90160  0.61960  Biso   1.000  C
  C62      1.0000 0.03020  0.10110  0.65550  Biso   1.000  C
  C63      1.0000 0.00420  0.26340  0.59510  Biso   1.000  C
  C64      1.0000 0.89340  0.21490  0.49210  Biso   1.000  C
  C65      1.0000 0.69420  0.93430  0.39660  Biso   1.000  C
  C66      1.0000 0.63540  0.99530  0.40090  Biso   1.000  C
  C67      1.0000 0.52780  0.95350  0.39490  Biso   1.000  C
  C68      1.0000 0.46250  0.01920  0.39830  Biso   1.000  C
  C69      1.0000 0.37570  0.00270  0.36720  Biso   1.000  C
  C70      1.0000 0.32240  0.06830  0.36920  Biso   1.000  C
  C71      1.0000 0.42860  0.15910  0.43130  Biso   1.000  C
  C72      1.0000 0.48800  0.09940  0.43060  Biso   1.000  C
  C73      1.0000 0.48600  0.85500  0.38510  Biso   1.000  C
  C74      1.0000 0.54980  0.79870  0.38210  Biso   1.000  C
  C75      1.0000 0.70830  0.46370  0.77690  Biso   1.000  C
  C76      1.0000 0.76800  0.40440  0.77960  Biso   1.000  C
  C77      1.0000 0.87320  0.44230  0.76690  Biso   1.000  C
  C78      1.0000 0.93960  0.37890  0.76630  Biso   1.000  C
  C79      1.0000 0.01850  0.39590  0.73040  Biso   1.000  C
  C80      1.0000 0.07610  0.33350  0.72960  Biso   1.000  C
  C81      1.0000 0.98420  0.24280  0.79760  Biso   1.000  C
  C82      1.0000 0.92410  0.30190  0.80060  Biso   1.000  C
  C83      1.0000 0.91460  0.54070  0.75500  Biso   1.000  C
  C84      1.0000 0.85020  0.59650  0.75400  Biso   1.000  C
  C85      1.0000 0.97100  0.90280  0.96140  Biso   1.000  C
  C86      1.0000 0.98120  0.94830  0.91310  Biso   1.000  C
  C87      1.0000 0.08190  0.99000  0.89190  Biso   1.000  C
  C88      1.0000 0.16960  0.98250  0.91770  Biso   1.000  C
  C89      1.0000 0.15650  0.93150  0.96440  Biso   1.000  C
  C90      1.0000 0.05830  0.89430  0.98600  Biso   1.000  C
  C91      1.0000 0.86950  0.86610  0.99080  Biso   1.000  C
  C92      1.0000 0.89090  0.96100  0.88210  Biso   1.000  C
  C93      1.0000 0.09530  0.04500  0.84120  Biso   1.000  C
  C94      1.0000 0.27760  0.02870  0.89430  Biso   1.000  C
  C95      1.0000 0.24370  0.91900  0.99670  Biso   1.000  C
  C96      1.0000 0.38980  0.46460  0.96280  Biso   1.000  C
  C97      1.0000 0.43540  0.48290  0.91380  Biso   1.000  C
  C98      1.0000 0.47330  0.58130  0.89580  Biso   1.000  C
  C99      1.0000 0.46220  0.65790  0.92500  Biso   1.000  C
  C100     1.0000 0.41070  0.63860  0.97230  Biso   1.000  C
  C101     1.0000 0.37500  0.54190  0.99030  Biso   1.000  C
  C102     1.0000 0.35850  0.36670  0.98940  Biso   1.000  C
  C103     1.0000 0.45280  0.40160  0.88040  Biso   1.000  C
  C104     1.0000 0.53020  0.60110  0.84450  Biso   1.000  C
  C105     1.0000 0.50420  0.76340  0.90490  Biso   1.000  C
  C106     1.0000 0.39340  0.71490  0.00790  Biso   1.000  C
  C107     1.0000 0.19420  0.43430  0.10340  Biso   1.000  C
  C108     1.0000 0.13540  0.49530  0.09910  Biso   1.000  C
  C109     1.0000 0.02780  0.45350  0.10510  Biso   1.000  C
  C110     1.0000 0.96250  0.51920  0.10170  Biso   1.000  C
  C111     1.0000 0.87570  0.50270  0.13280  Biso   1.000  C
  C112     1.0000 0.82240  0.56830  0.13080  Biso   1.000  C
  C113     1.0000 0.92860  0.65910  0.06870  Biso   1.000  C
  C114     1.0000 0.98800  0.59940  0.06940  Biso   1.000  C
  C115     1.0000 0.98600  0.35500  0.11490  Biso   1.000  C
  C116     1.0000 0.04980  0.29870  0.11790  Biso   1.000  C
  C117     1.0000 0.20830  0.96370  0.72310  Biso   1.000  C
  C118     1.0000 0.26800  0.90440  0.72040  Biso   1.000  C
  C119     1.0000 0.37320  0.94230  0.73310  Biso   1.000  C
  C120     1.0000 0.43960  0.87890  0.73370  Biso   1.000  C
  C121     1.0000 0.51850  0.89590  0.76960  Biso   1.000  C
  C122     1.0000 0.57610  0.83350  0.77040  Biso   1.000  C
  C123     1.0000 0.48420  0.74280  0.70240  Biso   1.000  C
  C124     1.0000 0.42410  0.80190  0.69940  Biso   1.000  C
  C125     1.0000 0.41460  0.04070  0.74500  Biso   1.000  C
  C126     1.0000 0.35020  0.09650  0.74600  Biso   1.000  C
  C127     1.0000 0.52900  0.59720  0.46140  Biso   1.000  C
  C128     1.0000 0.51880  0.55170  0.41310  Biso   1.000  C
  C129     1.0000 0.41810  0.51000  0.39190  Biso   1.000  C
  C130     1.0000 0.33040  0.51750  0.41770  Biso   1.000  C
  C131     1.0000 0.34350  0.56850  0.46440  Biso   1.000  C
  C132     1.0000 0.44170  0.60570  0.48600  Biso   1.000  C
  C133     1.0000 0.63050  0.63390  0.49080  Biso   1.000  C
  C134     1.0000 0.60910  0.53900  0.38210  Biso   1.000  C
  C135     1.0000 0.40470  0.45500  0.34120  Biso   1.000  C
  C136     1.0000 0.22240  0.47130  0.39430  Biso   1.000  C
  C137     1.0000 0.25630  0.58100  0.49670  Biso   1.000  C
  C138     1.0000 0.11020  0.03540  0.46280  Biso   1.000  C
  C139     1.0000 0.06460  0.01710  0.41380  Biso   1.000  C
  C140     1.0000 0.02670  0.91870  0.39580  Biso   1.000  C
  C141     1.0000 0.03780  0.84210  0.42500  Biso   1.000  C
  C142     1.0000 0.08930  0.86140  0.47230  Biso   1.000  C
  C143     1.0000 0.12500  0.95810  0.49030  Biso   1.000  C
  C144     1.0000 0.14150  0.13330  0.48940  Biso   1.000  C
  C145     1.0000 0.04720  0.09840  0.38040  Biso   1.000  C
  C146     1.0000 0.96980  0.89890  0.34450  Biso   1.000  C
  C147     1.0000 0.99580  0.73660  0.40490  Biso   1.000  C
  C148     1.0000 0.10660  0.78510  0.50790  Biso   1.000  C
  C149     1.0000 0.30580  0.06570  0.60340  Biso   1.000  C
  C150     1.0000 0.36460  0.00470  0.59910  Biso   1.000  C
  C151     1.0000 0.47220  0.04650  0.60510  Biso   1.000  C
  C152     1.0000 0.53750  0.98080  0.60170  Biso   1.000  C
  C153     1.0000 0.62430  0.99730  0.63280  Biso   1.000  C
  C154     1.0000 0.67760  0.93170  0.63080  Biso   1.000  C
  C155     1.0000 0.57140  0.84090  0.56870  Biso   1.000  C
  C156     1.0000 0.51200  0.90060  0.56940  Biso   1.000  C
  C157     1.0000 0.51400  0.14500  0.61490  Biso   1.000  C
  C158     1.0000 0.45020  0.20130  0.61790  Biso   1.000  C
  C159     1.0000 0.29170  0.53630  0.22310  Biso   1.000  C
  C160     1.0000 0.23200  0.59560  0.22040  Biso   1.000  C
  C161     1.0000 0.12680  0.55770  0.23310  Biso   1.000  C
  C162     1.0000 0.06040  0.62110  0.23370  Biso   1.000  C
  C163     1.0000 0.98150  0.60410  0.26960  Biso   1.000  C
  C164     1.0000 0.92390  0.66650  0.27040  Biso   1.000  C
  C165     1.0000 0.01580  0.75720  0.20240  Biso   1.000  C
  C166     1.0000 0.07590  0.69810  0.19940  Biso   1.000  C
  C167     1.0000 0.08540  0.45930  0.24500  Biso   1.000  C
  C168     1.0000 0.14980  0.40350  0.24600  Biso   1.000  C
  N1       1.0000 0.84610  0.66340  0.88884  Biso   1.000  N
  N2       1.0000 0.15330  0.35270  0.90050  Biso   1.000  N
  N3       1.0000 0.75200  0.94070  0.26453  Biso   1.000  N
  N4       1.0000 0.44070  0.24300  0.26154  Biso   1.000  N
  N5       1.0000 0.65390  0.83660  0.38884  Biso   1.000  N
  N6       1.0000 0.34670  0.14730  0.40050  Biso   1.000  N
  N7       1.0000 0.74800  0.55930  0.76453  Biso   1.000  N
  N8       1.0000 0.05930  0.25700  0.76154  Biso   1.000  N
  N9       1.0000 0.15390  0.33660  0.11116  Biso   1.000  N
  N10      1.0000 0.84670  0.64730  0.09950  Biso   1.000  N
  N11      1.0000 0.24800  0.05930  0.73547  Biso   1.000  N
  N12      1.0000 0.55930  0.75700  0.73846  Biso   1.000  N
  N13      1.0000 0.34610  0.16340  0.61116  Biso   1.000  N
  N14      1.0000 0.65330  0.85270  0.59950  Biso   1.000  N
  N15      1.0000 0.25200  0.44070  0.23547  Biso   1.000  N
  N16      1.0000 0.94070  0.74300  0.23846  Biso   1.000  N
  O1       1.0000 0.12950  0.16570  0.96472  Biso   1.000  O
  O2       1.0000 0.21070  0.12900  0.03264  Biso   1.000  O
  O3       1.0000 0.16800  0.11440  0.14198  Biso   1.000  O
  O4       1.0000 0.11370  0.95580  0.12060  Biso   1.000  O
  O5       1.0000 0.95640  0.99400  0.19681  Biso   1.000  O
  O6       1.0000 0.83810  0.86730  0.16053  Biso   1.000  O
  O7       1.0000 0.69050  0.02030  0.13555  Biso   1.000  O
  O8       1.0000 0.67100  0.88140  0.09153  Biso   1.000  O
  O9       1.0000 0.66640  0.01630  0.00458  Biso   1.000  O
  O10      1.0000 0.77740  0.15500  0.97550  Biso   1.000  O
  O11      1.0000 0.67480  0.63920  0.96541  Biso   1.000  O
  O12      1.0000 0.62980  0.70540  0.03564  Biso   1.000  O
  O13      1.0000 0.62630  0.65570  0.14367  Biso   1.000  O
  O14      1.0000 0.45740  0.59940  0.12202  Biso   1.000  O
  O15      1.0000 0.51050  0.44660  0.19409  Biso   1.000  O
  O16      1.0000 0.38020  0.33190  0.15807  Biso   1.000  O
  O17      1.0000 0.55280  0.20490  0.12076  Biso   1.000  O
  O18      1.0000 0.40120  0.18500  0.08296  Biso   1.000  O
  O19      1.0000 0.54320  0.19520  0.99462  Biso   1.000  O
  O20      1.0000 0.68030  0.31020  0.96140  Biso   1.000  O
  O21      1.0000 0.54090  0.20530  0.86898  Biso   1.000  O
  O22      1.0000 0.73550  0.13070  0.86150  Biso   1.000  O
  O23      1.0000 0.51170  0.00180  0.90790  Biso   1.000  O
  O24      1.0000 0.37050  0.33430  0.46472  Biso   1.000  O
  O25      1.0000 0.28930  0.37100  0.53264  Biso   1.000  O
  O26      1.0000 0.33200  0.38560  0.64198  Biso   1.000  O
  O27      1.0000 0.38630  0.54420  0.62060  Biso   1.000  O
  O28      1.0000 0.54360  0.50600  0.69681  Biso   1.000  O
  O29      1.0000 0.66190  0.63270  0.66053  Biso   1.000  O
  O30      1.0000 0.80950  0.47970  0.63555  Biso   1.000  O
  O31      1.0000 0.82900  0.61860  0.59153  Biso   1.000  O
  O32      1.0000 0.83360  0.48370  0.50458  Biso   1.000  O
  O33      1.0000 0.72260  0.34500  0.47550  Biso   1.000  O
  O34      1.0000 0.82520  0.86080  0.46541  Biso   1.000  O
  O35      1.0000 0.87020  0.79460  0.53564  Biso   1.000  O
  O36      1.0000 0.87370  0.84430  0.64367  Biso   1.000  O
  O37      1.0000 0.04260  0.90060  0.62202  Biso   1.000  O
  O38      1.0000 0.98950  0.05340  0.69409  Biso   1.000  O
  O39      1.0000 0.11980  0.16810  0.65807  Biso   1.000  O
  O40      1.0000 0.94720  0.29510  0.62076  Biso   1.000  O
  O41      1.0000 0.09880  0.31500  0.58296  Biso   1.000  O
  O42      1.0000 0.95680  0.30480  0.49462  Biso   1.000  O
  O43      1.0000 0.81970  0.18980  0.46140  Biso   1.000  O
  O44      1.0000 0.95910  0.29470  0.36898  Biso   1.000  O
  O45      1.0000 0.76450  0.36930  0.36150  Biso   1.000  O
  O46      1.0000 0.98830  0.49820  0.40790  Biso   1.000  O
  O47      1.0000 0.87050  0.83430  0.03528  Biso   1.000  O
  O48      1.0000 0.78930  0.87100  0.96736  Biso   1.000  O
  O49      1.0000 0.83200  0.88560  0.85802  Biso   1.000  O
  O50      1.0000 0.88630  0.04420  0.87940  Biso   1.000  O
  O51      1.0000 0.04360  0.00600  0.80319  Biso   1.000  O
  O52      1.0000 0.16190  0.13270  0.83947  Biso   1.000  O
  O53      1.0000 0.30950  0.97970  0.86445  Biso   1.000  O
  O54      1.0000 0.32900  0.11860  0.90847  Biso   1.000  O
  O55      1.0000 0.33360  0.98370  0.99542  Biso   1.000  O
  O56      1.0000 0.22260  0.84500  0.02450  Biso   1.000  O
  O57      1.0000 0.32520  0.36080  0.03459  Biso   1.000  O
  O58      1.0000 0.37020  0.29460  0.96436  Biso   1.000  O
  O59      1.0000 0.37370  0.34430  0.85633  Biso   1.000  O
  O60      1.0000 0.54260  0.40060  0.87798  Biso   1.000  O
  O61      1.0000 0.48950  0.55340  0.80591  Biso   1.000  O
  O62      1.0000 0.61980  0.66810  0.84193  Biso   1.000  O
  O63      1.0000 0.44720  0.79510  0.87924  Biso   1.000  O
  O64      1.0000 0.59880  0.81500  0.91704  Biso   1.000  O
  O65      1.0000 0.45680  0.80480  0.00538  Biso   1.000  O
  O66      1.0000 0.31970  0.68980  0.03860  Biso   1.000  O
  O67      1.0000 0.45910  0.79470  0.13102  Biso   1.000  O
  O68      1.0000 0.26450  0.86930  0.13850  Biso   1.000  O
  O69      1.0000 0.48830  0.99820  0.09210  Biso   1.000  O
  O70      1.0000 0.62950  0.66570  0.53528  Biso   1.000  O
  O71      1.0000 0.71070  0.62900  0.46736  Biso   1.000  O
  O72      1.0000 0.66800  0.61440  0.35802  Biso   1.000  O
  O73      1.0000 0.61370  0.45580  0.37940  Biso   1.000  O
  O74      1.0000 0.45640  0.49400  0.30319  Biso   1.000  O
  O75      1.0000 0.33810  0.36730  0.33947  Biso   1.000  O
  O76      1.0000 0.19050  0.52030  0.36445  Biso   1.000  O
  O77      1.0000 0.17100  0.38140  0.40847  Biso   1.000  O
  O78      1.0000 0.16640  0.51630  0.49542  Biso   1.000  O
  O79      1.0000 0.27740  0.65500  0.52450  Biso   1.000  O
  O80      1.0000 0.17480  0.13920  0.53459  Biso   1.000  O
  O81      1.0000 0.12980  0.20540  0.46436  Biso   1.000  O
  O82      1.0000 0.12630  0.15570  0.35633  Biso   1.000  O
  O83      1.0000 0.95740  0.09940  0.37798  Biso   1.000  O
  O84      1.0000 0.01050  0.94660  0.30591  Biso   1.000  O
  O85      1.0000 0.88020  0.83190  0.34193  Biso   1.000  O
  O86      1.0000 0.05280  0.70490  0.37924  Biso   1.000  O
  O87      1.0000 0.90120  0.68500  0.41704  Biso   1.000  O
  O88      1.0000 0.04320  0.69520  0.50538  Biso   1.000  O
  O89      1.0000 0.18030  0.81020  0.53860  Biso   1.000  O
  O90      1.0000 0.04090  0.70530  0.63102  Biso   1.000  O
  O91      1.0000 0.23550  0.63070  0.63850  Biso   1.000  O
  O92      1.0000 0.01170  0.50180  0.59210  Biso   1.000  O
