data_image0
_cell_length_a       6.6716
_cell_length_b       7.6444
_cell_length_c       10.5468
_cell_angle_alpha    111.248
_cell_angle_beta     102.922
_cell_angle_gamma    90

_symmetry_space_group_name_H-M    P 1
_symmetry_int_tables_number       1

loop_
  _symmetry_equiv_pos_as_xyz
  'x, y, z'

loop_
  _atom_site_label
  _atom_site_occupancy
  _atom_site_fract_x
  _atom_site_fract_y
  _atom_site_fract_z
  _atom_site_thermal_displace_type
  _atom_site_B_iso_or_equiv
  _atom_site_type_symbol
  Ga1      1.0000 0.42600  0.11180  0.22400  Biso   1.000  Ga
  Ga2      1.0000 0.92600  0.11220  0.22400  Biso   1.000  Ga
  H1       1.0000 0.20430  0.66990  0.89460  Biso   1.000  H
  H2       1.0000 0.61890  0.55330  0.54860  Biso   1.000  H
  H3       1.0000 0.05350  0.48150  0.64700  Biso   1.000  H
  H4       1.0000 0.77070  0.74180  0.79620  Biso   1.000  H
  H5       1.0000 0.16100  0.86120  0.18720  Biso   1.000  H
  H6       1.0000 0.70430  0.22470  0.89460  Biso   1.000  H
  H7       1.0000 0.11890  0.99530  0.54860  Biso   1.000  H
  H8       1.0000 0.55350  0.16550  0.64700  Biso   1.000  H
  H9       1.0000 0.27070  0.05440  0.79620  Biso   1.000  H
  H10      1.0000 0.66100  0.32600  0.18720  Biso   1.000  H
  C1       1.0000 0.58930  0.83210  0.00780  Biso   1.000  C
  C2       1.0000 0.49810  0.71450  0.85940  Biso   1.000  C
  C3       1.0000 0.61710  0.68510  0.76360  Biso   1.000  C
  C4       1.0000 0.29360  0.64380  0.82060  Biso   1.000  C
  C5       1.0000 0.53010  0.57980  0.62280  Biso   1.000  C
  C6       1.0000 0.20720  0.53790  0.67960  Biso   1.000  C
  C7       1.0000 0.32610  0.50890  0.58400  Biso   1.000  C
  C8       1.0000 0.22900  0.39100  0.43660  Biso   1.000  C
  C9       1.0000 0.08930  0.17570  0.00780  Biso   1.000  C
  C10      1.0000 0.99810  0.14490  0.85940  Biso   1.000  C
  C11      1.0000 0.11710  0.07850  0.76360  Biso   1.000  C
  C12      1.0000 0.79360  0.17680  0.82060  Biso   1.000  C
  C13      1.0000 0.03010  0.04300  0.62280  Biso   1.000  C
  C14      1.0000 0.70720  0.14170  0.67960  Biso   1.000  C
  C15      1.0000 0.82610  0.07510  0.58400  Biso   1.000  C
  C16      1.0000 0.72900  0.04560  0.43660  Biso   1.000  C
  O1       1.0000 0.47210  0.85660  0.09160  Biso   1.000  O
  O2       1.0000 0.77320  0.90800  0.04660  Biso   1.000  O
  O3       1.0000 0.34230  0.35430  0.35040  Biso   1.000  O
  O4       1.0000 0.04100  0.33010  0.40360  Biso   1.000  O
  O5       1.0000 0.17260  0.99850  0.21320  Biso   1.000  O
  O6       1.0000 0.97210  0.23500  0.09160  Biso   1.000  O
  O7       1.0000 0.27320  0.13860  0.04660  Biso   1.000  O
  O8       1.0000 0.84230  0.99610  0.35040  Biso   1.000  O
  O9       1.0000 0.54100  0.07350  0.40360  Biso   1.000  O
  O10      1.0000 0.67260  0.21470  0.21320  Biso   1.000  O
