data_image0
_cell_length_a       23.4415
_cell_length_b       23.4415
_cell_length_c       23.4415
_cell_angle_alpha    83.1196
_cell_angle_beta     83.1196
_cell_angle_gamma    83.1196

_symmetry_space_group_name_H-M    P 1
_symmetry_int_tables_number       1

loop_
  _symmetry_equiv_pos_as_xyz
  'x, y, z'

loop_
  _atom_site_label
  _atom_site_occupancy
  _atom_site_fract_x
  _atom_site_fract_y
  _atom_site_fract_z
  _atom_site_thermal_displace_type
  _atom_site_B_iso_or_equiv
  _atom_site_type_symbol
  In1      1.0000 0.64291  0.70585  0.77305  Biso   1.000  In
  In2      1.0000 0.22691  0.29411  0.35702  Biso   1.000  In
  In3      1.0000 0.77305  0.64291  0.70585  Biso   1.000  In
  In4      1.0000 0.35702  0.22691  0.29411  Biso   1.000  In
  In5      1.0000 0.70585  0.77305  0.64291  Biso   1.000  In
  In6      1.0000 0.29411  0.35702  0.22691  Biso   1.000  In
  P1       1.0000 0.64942  0.49501  0.09825  Biso   1.000  P
  P2       1.0000 0.09825  0.64942  0.49501  Biso   1.000  P
  P3       1.0000 0.49501  0.09825  0.64942  Biso   1.000  P
  H1       1.0000 0.70080  0.66840  0.94410  Biso   1.000  H
  H2       1.0000 0.82170  0.55660  0.87260  Biso   1.000  H
  H3       1.0000 0.72220  0.62030  0.03710  Biso   1.000  H
  H4       1.0000 0.84770  0.52030  0.96150  Biso   1.000  H
  H5       1.0000 0.87830  0.51610  0.04460  Biso   1.000  H
  H6       1.0000 0.95520  0.47050  0.11470  Biso   1.000  H
  H7       1.0000 0.80170  0.43130  0.25760  Biso   1.000  H
  H8       1.0000 0.89700  0.40930  0.27490  Biso   1.000  H
  H9       1.0000 0.79030  0.56010  0.23950  Biso   1.000  H
  H10      1.0000 0.96320  0.34030  0.26660  Biso   1.000  H
  H11      1.0000 0.02720  0.45440  0.14460  Biso   1.000  H
  H12      1.0000 0.60220  0.48610  0.33870  Biso   1.000  H
  H13      1.0000 0.65110  0.53230  0.39330  Biso   1.000  H
  H14      1.0000 0.79640  0.59730  0.32640  Biso   1.000  H
  H15      1.0000 0.05830  0.30610  0.28400  Biso   1.000  H
  H16      1.0000 0.11930  0.41680  0.16300  Biso   1.000  H
  H17      1.0000 0.59830  0.36520  0.31320  Biso   1.000  H
  H18      1.0000 0.54270  0.48190  0.18070  Biso   1.000  H
  H19      1.0000 0.52130  0.30750  0.31320  Biso   1.000  H
  H20      1.0000 0.45650  0.42370  0.18080  Biso   1.000  H
  H21      1.0000 0.76040  0.51080  0.46270  Biso   1.000  H
  H22      1.0000 0.72520  0.67630  0.38430  Biso   1.000  H
  H23      1.0000 0.76410  0.55330  0.55180  Biso   1.000  H
  H24      1.0000 0.72570  0.71540  0.47490  Biso   1.000  H
  H25      1.0000 0.94410  0.70080  0.66840  Biso   1.000  H
  H26      1.0000 0.87260  0.82170  0.55660  Biso   1.000  H
  H27      1.0000 0.03710  0.72220  0.62030  Biso   1.000  H
  H28      1.0000 0.96150  0.84770  0.52030  Biso   1.000  H
  H29      1.0000 0.04460  0.87830  0.51610  Biso   1.000  H
  H30      1.0000 0.11470  0.95520  0.47050  Biso   1.000  H
  H31      1.0000 0.25760  0.80170  0.43130  Biso   1.000  H
  H32      1.0000 0.27490  0.89700  0.40930  Biso   1.000  H
  H33      1.0000 0.23950  0.79030  0.56010  Biso   1.000  H
  H34      1.0000 0.26660  0.96320  0.34030  Biso   1.000  H
  H35      1.0000 0.14460  0.02720  0.45440  Biso   1.000  H
  H36      1.0000 0.33870  0.60220  0.48610  Biso   1.000  H
  H37      1.0000 0.39330  0.65110  0.53230  Biso   1.000  H
  H38      1.0000 0.32640  0.79640  0.59730  Biso   1.000  H
  H39      1.0000 0.28400  0.05830  0.30610  Biso   1.000  H
  H40      1.0000 0.16300  0.11930  0.41680  Biso   1.000  H
  H41      1.0000 0.31320  0.59830  0.36520  Biso   1.000  H
  H42      1.0000 0.18070  0.54270  0.48190  Biso   1.000  H
  H43      1.0000 0.31320  0.52130  0.30750  Biso   1.000  H
  H44      1.0000 0.18080  0.45650  0.42370  Biso   1.000  H
  H45      1.0000 0.46270  0.76040  0.51080  Biso   1.000  H
  H46      1.0000 0.38430  0.72520  0.67630  Biso   1.000  H
  H47      1.0000 0.55180  0.76410  0.55330  Biso   1.000  H
  H48      1.0000 0.47490  0.72570  0.71540  Biso   1.000  H
  H49      1.0000 0.66840  0.94410  0.70080  Biso   1.000  H
  H50      1.0000 0.55660  0.87260  0.82170  Biso   1.000  H
  H51      1.0000 0.62030  0.03710  0.72220  Biso   1.000  H
  H52      1.0000 0.52030  0.96150  0.84770  Biso   1.000  H
  H53      1.0000 0.51610  0.04460  0.87830  Biso   1.000  H
  H54      1.0000 0.47050  0.11470  0.95520  Biso   1.000  H
  H55      1.0000 0.43130  0.25760  0.80170  Biso   1.000  H
  H56      1.0000 0.40930  0.27490  0.89700  Biso   1.000  H
  H57      1.0000 0.56010  0.23950  0.79030  Biso   1.000  H
  H58      1.0000 0.34030  0.26660  0.96320  Biso   1.000  H
  H59      1.0000 0.45440  0.14460  0.02720  Biso   1.000  H
  H60      1.0000 0.48610  0.33870  0.60220  Biso   1.000  H
  H61      1.0000 0.53230  0.39330  0.65110  Biso   1.000  H
  H62      1.0000 0.59730  0.32640  0.79640  Biso   1.000  H
  H63      1.0000 0.30610  0.28400  0.05830  Biso   1.000  H
  H64      1.0000 0.41680  0.16300  0.11930  Biso   1.000  H
  H65      1.0000 0.36520  0.31320  0.59830  Biso   1.000  H
  H66      1.0000 0.48190  0.18070  0.54270  Biso   1.000  H
  H67      1.0000 0.30750  0.31320  0.52130  Biso   1.000  H
  H68      1.0000 0.42370  0.18080  0.45650  Biso   1.000  H
  H69      1.0000 0.51080  0.46270  0.76040  Biso   1.000  H
  H70      1.0000 0.67630  0.38430  0.72520  Biso   1.000  H
  H71      1.0000 0.55330  0.55180  0.76410  Biso   1.000  H
  H72      1.0000 0.71540  0.47490  0.72570  Biso   1.000  H
  C1       1.0000 0.74810  0.65020  0.84090  Biso   1.000  C
  C2       1.0000 0.76280  0.61600  0.90180  Biso   1.000  C
  C3       1.0000 0.72980  0.63660  0.94780  Biso   1.000  C
  C4       1.0000 0.80190  0.57150  0.90630  Biso   1.000  C
  C5       1.0000 0.74220  0.60670  0.00280  Biso   1.000  C
  C6       1.0000 0.81420  0.54730  0.95900  Biso   1.000  C
  C7       1.0000 0.78250  0.55860  0.00700  Biso   1.000  C
  C8       1.0000 0.79020  0.52710  0.06350  Biso   1.000  C
  C9       1.0000 0.84840  0.50890  0.07480  Biso   1.000  C
  C10      1.0000 0.75060  0.52170  0.11060  Biso   1.000  C
  C11      1.0000 0.86380  0.48120  0.12700  Biso   1.000  C
  C12      1.0000 0.75860  0.49680  0.16230  Biso   1.000  C
  C13      1.0000 0.81730  0.46960  0.17400  Biso   1.000  C
  C14      1.0000 0.92320  0.46050  0.14140  Biso   1.000  C
  C15      1.0000 0.71290  0.49410  0.21190  Biso   1.000  C
  C16      1.0000 0.83160  0.43990  0.22780  Biso   1.000  C
  C17      1.0000 0.93290  0.42730  0.19220  Biso   1.000  C
  C18      1.0000 0.71880  0.51800  0.26700  Biso   1.000  C
  C19      1.0000 0.66540  0.46940  0.20730  Biso   1.000  C
  C20      1.0000 0.88800  0.42360  0.23690  Biso   1.000  C
  C21      1.0000 0.99170  0.39930  0.20310  Biso   1.000  C
  C22      1.0000 0.67610  0.51510  0.30990  Biso   1.000  C
  C23      1.0000 0.76260  0.55250  0.27180  Biso   1.000  C
  C24      1.0000 0.62330  0.46160  0.25450  Biso   1.000  C
  C25      1.0000 0.99560  0.35660  0.24550  Biso   1.000  C
  C26      1.0000 0.03350  0.42340  0.17380  Biso   1.000  C
  C27      1.0000 0.63100  0.48850  0.30660  Biso   1.000  C
  C28      1.0000 0.68010  0.53750  0.36180  Biso   1.000  C
  C29      1.0000 0.76580  0.57540  0.32250  Biso   1.000  C
  C30      1.0000 0.57400  0.43090  0.25290  Biso   1.000  C
  C31      1.0000 0.05250  0.33840  0.25600  Biso   1.000  C
  C32      1.0000 0.08760  0.40190  0.18680  Biso   1.000  C
  C33      1.0000 0.72400  0.56580  0.36670  Biso   1.000  C
  C34      1.0000 0.56900  0.37850  0.28840  Biso   1.000  C
  C35      1.0000 0.53610  0.44970  0.20840  Biso   1.000  C
  C36      1.0000 0.09940  0.36170  0.23050  Biso   1.000  C
  C37      1.0000 0.73420  0.59000  0.41930  Biso   1.000  C
  C38      1.0000 0.52140  0.34330  0.28930  Biso   1.000  C
  C39      1.0000 0.48350  0.41390  0.20860  Biso   1.000  C
  C40      1.0000 0.15919  0.34903  0.25181  Biso   1.000  C
  C41      1.0000 0.75170  0.55110  0.46530  Biso   1.000  C
  C42      1.0000 0.72980  0.65150  0.41890  Biso   1.000  C
  C43      1.0000 0.47721  0.36131  0.25641  Biso   1.000  C
  C44      1.0000 0.75520  0.57810  0.51820  Biso   1.000  C
  C45      1.0000 0.73290  0.67480  0.47320  Biso   1.000  C
  C46      1.0000 0.42305  0.33465  0.25275  Biso   1.000  C
  C47      1.0000 0.74634  0.63854  0.52284  Biso   1.000  C
  C48      1.0000 0.74777  0.66257  0.57697  Biso   1.000  C
  C49      1.0000 0.84090  0.74810  0.65020  Biso   1.000  C
  C50      1.0000 0.90180  0.76280  0.61600  Biso   1.000  C
  C51      1.0000 0.94780  0.72980  0.63660  Biso   1.000  C
  C52      1.0000 0.90630  0.80190  0.57150  Biso   1.000  C
  C53      1.0000 0.00280  0.74220  0.60670  Biso   1.000  C
  C54      1.0000 0.95900  0.81420  0.54730  Biso   1.000  C
  C55      1.0000 0.00700  0.78250  0.55860  Biso   1.000  C
  C56      1.0000 0.06350  0.79020  0.52710  Biso   1.000  C
  C57      1.0000 0.07480  0.84840  0.50890  Biso   1.000  C
  C58      1.0000 0.11060  0.75060  0.52170  Biso   1.000  C
  C59      1.0000 0.12700  0.86380  0.48120  Biso   1.000  C
  C60      1.0000 0.16230  0.75860  0.49680  Biso   1.000  C
  C61      1.0000 0.17400  0.81730  0.46960  Biso   1.000  C
  C62      1.0000 0.14140  0.92320  0.46050  Biso   1.000  C
  C63      1.0000 0.21190  0.71290  0.49410  Biso   1.000  C
  C64      1.0000 0.22780  0.83160  0.43990  Biso   1.000  C
  C65      1.0000 0.19220  0.93290  0.42730  Biso   1.000  C
  C66      1.0000 0.26700  0.71880  0.51800  Biso   1.000  C
  C67      1.0000 0.20730  0.66540  0.46940  Biso   1.000  C
  C68      1.0000 0.23690  0.88800  0.42360  Biso   1.000  C
  C69      1.0000 0.20310  0.99170  0.39930  Biso   1.000  C
  C70      1.0000 0.30990  0.67610  0.51510  Biso   1.000  C
  C71      1.0000 0.27180  0.76260  0.55250  Biso   1.000  C
  C72      1.0000 0.25450  0.62330  0.46160  Biso   1.000  C
  C73      1.0000 0.24550  0.99560  0.35660  Biso   1.000  C
  C74      1.0000 0.17380  0.03350  0.42340  Biso   1.000  C
  C75      1.0000 0.30660  0.63100  0.48850  Biso   1.000  C
  C76      1.0000 0.36180  0.68010  0.53750  Biso   1.000  C
  C77      1.0000 0.32250  0.76580  0.57540  Biso   1.000  C
  C78      1.0000 0.25290  0.57400  0.43090  Biso   1.000  C
  C79      1.0000 0.25600  0.05250  0.33840  Biso   1.000  C
  C80      1.0000 0.18680  0.08760  0.40190  Biso   1.000  C
  C81      1.0000 0.36670  0.72400  0.56580  Biso   1.000  C
  C82      1.0000 0.28840  0.56900  0.37850  Biso   1.000  C
  C83      1.0000 0.20840  0.53610  0.44970  Biso   1.000  C
  C84      1.0000 0.23050  0.09940  0.36170  Biso   1.000  C
  C85      1.0000 0.41930  0.73420  0.59000  Biso   1.000  C
  C86      1.0000 0.28930  0.52140  0.34330  Biso   1.000  C
  C87      1.0000 0.20860  0.48350  0.41390  Biso   1.000  C
  C88      1.0000 0.25181  0.15919  0.34903  Biso   1.000  C
  C89      1.0000 0.46530  0.75170  0.55110  Biso   1.000  C
  C90      1.0000 0.41890  0.72980  0.65150  Biso   1.000  C
  C91      1.0000 0.25641  0.47721  0.36131  Biso   1.000  C
  C92      1.0000 0.51820  0.75520  0.57810  Biso   1.000  C
  C93      1.0000 0.47320  0.73290  0.67480  Biso   1.000  C
  C94      1.0000 0.25275  0.42305  0.33465  Biso   1.000  C
  C95      1.0000 0.52284  0.74634  0.63854  Biso   1.000  C
  C96      1.0000 0.57697  0.74777  0.66257  Biso   1.000  C
  C97      1.0000 0.65020  0.84090  0.74810  Biso   1.000  C
  C98      1.0000 0.61600  0.90180  0.76280  Biso   1.000  C
  C99      1.0000 0.63660  0.94780  0.72980  Biso   1.000  C
  C100     1.0000 0.57150  0.90630  0.80190  Biso   1.000  C
  C101     1.0000 0.60670  0.00280  0.74220  Biso   1.000  C
  C102     1.0000 0.54730  0.95900  0.81420  Biso   1.000  C
  C103     1.0000 0.55860  0.00700  0.78250  Biso   1.000  C
  C104     1.0000 0.52710  0.06350  0.79020  Biso   1.000  C
  C105     1.0000 0.50890  0.07480  0.84840  Biso   1.000  C
  C106     1.0000 0.52170  0.11060  0.75060  Biso   1.000  C
  C107     1.0000 0.48120  0.12700  0.86380  Biso   1.000  C
  C108     1.0000 0.49680  0.16230  0.75860  Biso   1.000  C
  C109     1.0000 0.46960  0.17400  0.81730  Biso   1.000  C
  C110     1.0000 0.46050  0.14140  0.92320  Biso   1.000  C
  C111     1.0000 0.49410  0.21190  0.71290  Biso   1.000  C
  C112     1.0000 0.43990  0.22780  0.83160  Biso   1.000  C
  C113     1.0000 0.42730  0.19220  0.93290  Biso   1.000  C
  C114     1.0000 0.51800  0.26700  0.71880  Biso   1.000  C
  C115     1.0000 0.46940  0.20730  0.66540  Biso   1.000  C
  C116     1.0000 0.42360  0.23690  0.88800  Biso   1.000  C
  C117     1.0000 0.39930  0.20310  0.99170  Biso   1.000  C
  C118     1.0000 0.51510  0.30990  0.67610  Biso   1.000  C
  C119     1.0000 0.55250  0.27180  0.76260  Biso   1.000  C
  C120     1.0000 0.46160  0.25450  0.62330  Biso   1.000  C
  C121     1.0000 0.35660  0.24550  0.99560  Biso   1.000  C
  C122     1.0000 0.42340  0.17380  0.03350  Biso   1.000  C
  C123     1.0000 0.48850  0.30660  0.63100  Biso   1.000  C
  C124     1.0000 0.53750  0.36180  0.68010  Biso   1.000  C
  C125     1.0000 0.57540  0.32250  0.76580  Biso   1.000  C
  C126     1.0000 0.43090  0.25290  0.57400  Biso   1.000  C
  C127     1.0000 0.33840  0.25600  0.05250  Biso   1.000  C
  C128     1.0000 0.40190  0.18680  0.08760  Biso   1.000  C
  C129     1.0000 0.56580  0.36670  0.72400  Biso   1.000  C
  C130     1.0000 0.37850  0.28840  0.56900  Biso   1.000  C
  C131     1.0000 0.44970  0.20840  0.53610  Biso   1.000  C
  C132     1.0000 0.36170  0.23050  0.09940  Biso   1.000  C
  C133     1.0000 0.59000  0.41930  0.73420  Biso   1.000  C
  C134     1.0000 0.34330  0.28930  0.52140  Biso   1.000  C
  C135     1.0000 0.41390  0.20860  0.48350  Biso   1.000  C
  C136     1.0000 0.34903  0.25181  0.15919  Biso   1.000  C
  C137     1.0000 0.55110  0.46530  0.75170  Biso   1.000  C
  C138     1.0000 0.65150  0.41890  0.72980  Biso   1.000  C
  C139     1.0000 0.36131  0.25641  0.47721  Biso   1.000  C
  C140     1.0000 0.57810  0.51820  0.75520  Biso   1.000  C
  C141     1.0000 0.67480  0.47320  0.73290  Biso   1.000  C
  C142     1.0000 0.33465  0.25275  0.42305  Biso   1.000  C
  C143     1.0000 0.63854  0.52284  0.74634  Biso   1.000  C
  C144     1.0000 0.66257  0.57697  0.74777  Biso   1.000  C
  O1       1.0000 0.70232  0.68259  0.83902  Biso   1.000  O
  O2       1.0000 0.57448  0.70269  0.84377  Biso   1.000  O
  O3       1.0000 0.77248  0.63636  0.61372  Biso   1.000  O
  O4       1.0000 0.72076  0.71362  0.57702  Biso   1.000  O
  O5       1.0000 0.78065  0.63505  0.79836  Biso   1.000  O
  O6       1.0000 0.69461  0.54141  0.10011  Biso   1.000  O
  O7       1.0000 0.66072  0.44892  0.15482  Biso   1.000  O
  O8       1.0000 0.59475  0.52705  0.10435  Biso   1.000  O
  O9       1.0000 0.66920  0.46260  0.05310  Biso   1.000  O
  O10      1.0000 0.16073  0.31714  0.29788  Biso   1.000  O
  O11      1.0000 0.20203  0.36536  0.21964  Biso   1.000  O
  O12      1.0000 0.42325  0.28609  0.27876  Biso   1.000  O
  O13      1.0000 0.38610  0.36293  0.22773  Biso   1.000  O
  O14      1.0000 0.15640  0.29722  0.42521  Biso   1.000  O
  O15      1.0000 0.83902  0.70232  0.68259  Biso   1.000  O
  O16      1.0000 0.84377  0.57448  0.70269  Biso   1.000  O
  O17      1.0000 0.61372  0.77248  0.63636  Biso   1.000  O
  O18      1.0000 0.57702  0.72076  0.71362  Biso   1.000  O
  O19      1.0000 0.79836  0.78065  0.63505  Biso   1.000  O
  O20      1.0000 0.10011  0.69461  0.54141  Biso   1.000  O
  O21      1.0000 0.15482  0.66072  0.44892  Biso   1.000  O
  O22      1.0000 0.10435  0.59475  0.52705  Biso   1.000  O
  O23      1.0000 0.05310  0.66920  0.46260  Biso   1.000  O
  O24      1.0000 0.29788  0.16073  0.31714  Biso   1.000  O
  O25      1.0000 0.21964  0.20203  0.36536  Biso   1.000  O
  O26      1.0000 0.27876  0.42325  0.28609  Biso   1.000  O
  O27      1.0000 0.22773  0.38610  0.36293  Biso   1.000  O
  O28      1.0000 0.42521  0.15640  0.29722  Biso   1.000  O
  O29      1.0000 0.68259  0.83902  0.70232  Biso   1.000  O
  O30      1.0000 0.70269  0.84377  0.57448  Biso   1.000  O
  O31      1.0000 0.63636  0.61372  0.77248  Biso   1.000  O
  O32      1.0000 0.71362  0.57702  0.72076  Biso   1.000  O
  O33      1.0000 0.63505  0.79836  0.78065  Biso   1.000  O
  O34      1.0000 0.54141  0.10011  0.69461  Biso   1.000  O
  O35      1.0000 0.44892  0.15482  0.66072  Biso   1.000  O
  O36      1.0000 0.52705  0.10435  0.59475  Biso   1.000  O
  O37      1.0000 0.46260  0.05310  0.66920  Biso   1.000  O
  O38      1.0000 0.31714  0.29788  0.16073  Biso   1.000  O
  O39      1.0000 0.36536  0.21964  0.20203  Biso   1.000  O
  O40      1.0000 0.28609  0.27876  0.42325  Biso   1.000  O
  O41      1.0000 0.36293  0.22773  0.38610  Biso   1.000  O
  O42      1.0000 0.29722  0.42521  0.15640  Biso   1.000  O
  O43      1.0000 0.70853  0.70853  0.70853  Biso   1.000  O
  O44      1.0000 0.29188  0.29188  0.29188  Biso   1.000  O
