data_image0
_cell_length_a       11.716
_cell_length_b       13.693
_cell_length_c       13.8
_cell_angle_alpha    90
_cell_angle_beta     99.44
_cell_angle_gamma    90

_symmetry_space_group_name_H-M    P 1
_symmetry_int_tables_number       1

loop_
  _symmetry_equiv_pos_as_xyz
  'x, y, z'

loop_
  _atom_site_label
  _atom_site_occupancy
  _atom_site_fract_x
  _atom_site_fract_y
  _atom_site_fract_z
  _atom_site_thermal_displace_type
  _atom_site_B_iso_or_equiv
  _atom_site_type_symbol
  Eu1      1.0000 0.61352  0.04016  0.91342  Biso   1.000  Eu
  Eu2      1.0000 0.88648  0.54016  0.58658  Biso   1.000  Eu
  Eu3      1.0000 0.38648  0.95984  0.08658  Biso   1.000  Eu
  Eu4      1.0000 0.11352  0.45984  0.41342  Biso   1.000  Eu
  H1       1.0000 0.85550  0.76550  0.05900  Biso   1.000  H
  H2       1.0000 0.94180  0.66330  0.18220  Biso   1.000  H
  H3       1.0000 0.67800  0.70590  0.32870  Biso   1.000  H
  H4       1.0000 0.59130  0.81050  0.20680  Biso   1.000  H
  H5       1.0000 0.42990  0.12340  0.58860  Biso   1.000  H
  H6       1.0000 0.64880  0.90100  0.57370  Biso   1.000  H
  H7       1.0000 0.83140  0.02150  0.88940  Biso   1.000  H
  H8       1.0000 0.96970  0.13070  0.93510  Biso   1.000  H
  H9       1.0000 0.87380  0.19100  0.97530  Biso   1.000  H
  H10      1.0000 0.91370  0.09000  0.02260  Biso   1.000  H
  H11      1.0000 0.64940  0.24660  0.86210  Biso   1.000  H
  H12      1.0000 0.62210  0.35720  0.95130  Biso   1.000  H
  H13      1.0000 0.52290  0.29160  0.97950  Biso   1.000  H
  H14      1.0000 0.64840  0.28400  0.03950  Biso   1.000  H
  H15      1.0000 0.64450  0.26550  0.44100  Biso   1.000  H
  H16      1.0000 0.55820  0.16330  0.31780  Biso   1.000  H
  H17      1.0000 0.82200  0.20590  0.17130  Biso   1.000  H
  H18      1.0000 0.90870  0.31050  0.29320  Biso   1.000  H
  H19      1.0000 0.07010  0.62340  0.91140  Biso   1.000  H
  H20      1.0000 0.85120  0.40100  0.92630  Biso   1.000  H
  H21      1.0000 0.66860  0.52150  0.61060  Biso   1.000  H
  H22      1.0000 0.53030  0.63070  0.56490  Biso   1.000  H
  H23      1.0000 0.62620  0.69100  0.52470  Biso   1.000  H
  H24      1.0000 0.58630  0.59000  0.47740  Biso   1.000  H
  H25      1.0000 0.85060  0.74660  0.63790  Biso   1.000  H
  H26      1.0000 0.87790  0.85720  0.54870  Biso   1.000  H
  H27      1.0000 0.97710  0.79160  0.52050  Biso   1.000  H
  H28      1.0000 0.85160  0.78400  0.46050  Biso   1.000  H
  H29      1.0000 0.14450  0.23450  0.94100  Biso   1.000  H
  H30      1.0000 0.05820  0.33670  0.81780  Biso   1.000  H
  H31      1.0000 0.32200  0.29410  0.67130  Biso   1.000  H
  H32      1.0000 0.40870  0.18950  0.79320  Biso   1.000  H
  H33      1.0000 0.57010  0.87660  0.41140  Biso   1.000  H
  H34      1.0000 0.35120  0.09900  0.42630  Biso   1.000  H
  H35      1.0000 0.16860  0.97850  0.11060  Biso   1.000  H
  H36      1.0000 0.03030  0.86930  0.06490  Biso   1.000  H
  H37      1.0000 0.12620  0.80900  0.02470  Biso   1.000  H
  H38      1.0000 0.08630  0.91000  0.97740  Biso   1.000  H
  H39      1.0000 0.35060  0.75340  0.13790  Biso   1.000  H
  H40      1.0000 0.37790  0.64280  0.04870  Biso   1.000  H
  H41      1.0000 0.47710  0.70840  0.02050  Biso   1.000  H
  H42      1.0000 0.35160  0.71600  0.96050  Biso   1.000  H
  H43      1.0000 0.35550  0.73450  0.55900  Biso   1.000  H
  H44      1.0000 0.44180  0.83670  0.68220  Biso   1.000  H
  H45      1.0000 0.17800  0.79410  0.82870  Biso   1.000  H
  H46      1.0000 0.09130  0.68950  0.70680  Biso   1.000  H
  H47      1.0000 0.92990  0.37660  0.08860  Biso   1.000  H
  H48      1.0000 0.14880  0.59900  0.07370  Biso   1.000  H
  H49      1.0000 0.33140  0.47850  0.38940  Biso   1.000  H
  H50      1.0000 0.46970  0.36930  0.43510  Biso   1.000  H
  H51      1.0000 0.37380  0.30900  0.47530  Biso   1.000  H
  H52      1.0000 0.41370  0.41000  0.52260  Biso   1.000  H
  H53      1.0000 0.14940  0.25340  0.36210  Biso   1.000  H
  H54      1.0000 0.12210  0.14280  0.45130  Biso   1.000  H
  H55      1.0000 0.02290  0.20840  0.47950  Biso   1.000  H
  H56      1.0000 0.14840  0.21600  0.53950  Biso   1.000  H
  C1       1.0000 0.66480  0.87200  0.04390  Biso   1.000  C
  C2       1.0000 0.71580  0.79990  0.12100  Biso   1.000  C
  C3       1.0000 0.82020  0.75430  0.11360  Biso   1.000  C
  C4       1.0000 0.87140  0.69270  0.18710  Biso   1.000  C
  C5       1.0000 0.81890  0.67420  0.26860  Biso   1.000  C
  C6       1.0000 0.71400  0.71850  0.27470  Biso   1.000  C
  C7       1.0000 0.66170  0.78120  0.20180  Biso   1.000  C
  C8       1.0000 0.87620  0.60780  0.34980  Biso   1.000  C
  C9       1.0000 0.59590  0.03000  0.70510  Biso   1.000  C
  C10      1.0000 0.54790  0.01470  0.59810  Biso   1.000  C
  C11      1.0000 0.45820  0.07380  0.55310  Biso   1.000  C
  C12      1.0000 0.58890  0.94090  0.54410  Biso   1.000  C
  C13      1.0000 0.89960  0.12650  0.96240  Biso   1.000  C
  C14      1.0000 0.60390  0.29430  0.97540  Biso   1.000  C
  C15      1.0000 0.83520  0.37200  0.45610  Biso   1.000  C
  C16      1.0000 0.78420  0.29990  0.37900  Biso   1.000  C
  C17      1.0000 0.67980  0.25430  0.38640  Biso   1.000  C
  C18      1.0000 0.62860  0.19270  0.31290  Biso   1.000  C
  C19      1.0000 0.68110  0.17420  0.23140  Biso   1.000  C
  C20      1.0000 0.78600  0.21850  0.22530  Biso   1.000  C
  C21      1.0000 0.83830  0.28120  0.29820  Biso   1.000  C
  C22      1.0000 0.62380  0.10780  0.15020  Biso   1.000  C
  C23      1.0000 0.90410  0.53000  0.79490  Biso   1.000  C
  C24      1.0000 0.95210  0.51470  0.90190  Biso   1.000  C
  C25      1.0000 0.04180  0.57380  0.94690  Biso   1.000  C
  C26      1.0000 0.91110  0.44090  0.95590  Biso   1.000  C
  C27      1.0000 0.60040  0.62650  0.53760  Biso   1.000  C
  C28      1.0000 0.89610  0.79430  0.52460  Biso   1.000  C
  C29      1.0000 0.33520  0.12800  0.95610  Biso   1.000  C
  C30      1.0000 0.28420  0.20010  0.87900  Biso   1.000  C
  C31      1.0000 0.17980  0.24570  0.88640  Biso   1.000  C
  C32      1.0000 0.12860  0.30730  0.81290  Biso   1.000  C
  C33      1.0000 0.18110  0.32580  0.73140  Biso   1.000  C
  C34      1.0000 0.28600  0.28150  0.72530  Biso   1.000  C
  C35      1.0000 0.33830  0.21880  0.79820  Biso   1.000  C
  C36      1.0000 0.12380  0.39220  0.65020  Biso   1.000  C
  C37      1.0000 0.40410  0.97000  0.29490  Biso   1.000  C
  C38      1.0000 0.45210  0.98530  0.40190  Biso   1.000  C
  C39      1.0000 0.54180  0.92620  0.44690  Biso   1.000  C
  C40      1.0000 0.41110  0.05910  0.45590  Biso   1.000  C
  C41      1.0000 0.10040  0.87350  0.03760  Biso   1.000  C
  C42      1.0000 0.39610  0.70570  0.02460  Biso   1.000  C
  C43      1.0000 0.16480  0.62800  0.54390  Biso   1.000  C
  C44      1.0000 0.21580  0.70010  0.62100  Biso   1.000  C
  C45      1.0000 0.32020  0.74570  0.61360  Biso   1.000  C
  C46      1.0000 0.37140  0.80730  0.68710  Biso   1.000  C
  C47      1.0000 0.31890  0.82580  0.76860  Biso   1.000  C
  C48      1.0000 0.21400  0.78150  0.77470  Biso   1.000  C
  C49      1.0000 0.16170  0.71880  0.70180  Biso   1.000  C
  C50      1.0000 0.37620  0.89220  0.84980  Biso   1.000  C
  C51      1.0000 0.09590  0.47000  0.20510  Biso   1.000  C
  C52      1.0000 0.04790  0.48530  0.09810  Biso   1.000  C
  C53      1.0000 0.95820  0.42620  0.05310  Biso   1.000  C
  C54      1.0000 0.08890  0.55910  0.04410  Biso   1.000  C
  C55      1.0000 0.39960  0.37350  0.46240  Biso   1.000  C
  C56      1.0000 0.10390  0.20570  0.47540  Biso   1.000  C
  O1       1.0000 0.72207  0.89856  0.97981  Biso   1.000  O
  O2       1.0000 0.56362  0.90632  0.04572  Biso   1.000  O
  O3       1.0000 0.97124  0.57160  0.33863  Biso   1.000  O
  O4       1.0000 0.82501  0.59473  0.42245  Biso   1.000  O
  O5       1.0000 0.55973  0.10221  0.74835  Biso   1.000  O
  O6       1.0000 0.66663  0.97029  0.75120  Biso   1.000  O
  O7       1.0000 0.81330  0.07889  0.89478  Biso   1.000  O
  O8       1.0000 0.63060  0.22111  0.91095  Biso   1.000  O
  O9       1.0000 0.77793  0.39856  0.52019  Biso   1.000  O
  O10      1.0000 0.93638  0.40632  0.45428  Biso   1.000  O
  O11      1.0000 0.52876  0.07160  0.16137  Biso   1.000  O
  O12      1.0000 0.67499  0.09473  0.07755  Biso   1.000  O
  O13      1.0000 0.94027  0.60221  0.75165  Biso   1.000  O
  O14      1.0000 0.83337  0.47029  0.74880  Biso   1.000  O
  O15      1.0000 0.68670  0.57889  0.60522  Biso   1.000  O
  O16      1.0000 0.86940  0.72111  0.58905  Biso   1.000  O
  O17      1.0000 0.27793  0.10144  0.02019  Biso   1.000  O
  O18      1.0000 0.43638  0.09368  0.95428  Biso   1.000  O
  O19      1.0000 0.02876  0.42840  0.66137  Biso   1.000  O
  O20      1.0000 0.17499  0.40527  0.57755  Biso   1.000  O
  O21      1.0000 0.44027  0.89779  0.25165  Biso   1.000  O
  O22      1.0000 0.33337  0.02971  0.24880  Biso   1.000  O
  O23      1.0000 0.18670  0.92111  0.10522  Biso   1.000  O
  O24      1.0000 0.36940  0.77889  0.08905  Biso   1.000  O
  O25      1.0000 0.22207  0.60144  0.47981  Biso   1.000  O
  O26      1.0000 0.06362  0.59368  0.54572  Biso   1.000  O
  O27      1.0000 0.47124  0.92840  0.83863  Biso   1.000  O
  O28      1.0000 0.32501  0.90527  0.92245  Biso   1.000  O
  O29      1.0000 0.05973  0.39779  0.24835  Biso   1.000  O
  O30      1.0000 0.16663  0.52971  0.25120  Biso   1.000  O
  O31      1.0000 0.31330  0.42111  0.39478  Biso   1.000  O
  O32      1.0000 0.13060  0.27889  0.41095  Biso   1.000  O
