data_image0
_cell_length_a       5.459
_cell_length_b       26.5981
_cell_length_c       36.7601
_cell_angle_alpha    90
_cell_angle_beta     90
_cell_angle_gamma    91.406

_symmetry_space_group_name_H-M    P 1
_symmetry_int_tables_number       1

loop_
  _symmetry_equiv_pos_as_xyz
  'x, y, z'

loop_
  _atom_site_label
  _atom_site_occupancy
  _atom_site_fract_x
  _atom_site_fract_y
  _atom_site_fract_z
  _atom_site_thermal_displace_type
  _atom_site_B_iso_or_equiv
  _atom_site_type_symbol
  U1       1.0000 0.89873  0.53673  0.06285  Biso   1.000  U
  U2       1.0000 0.68471  0.61862  0.19080  Biso   1.000  U
  U3       1.0000 0.44725  0.03806  0.09971  Biso   1.000  U
  U4       1.0000 0.10127  0.96327  0.56285  Biso   1.000  U
  U5       1.0000 0.31529  0.88138  0.69080  Biso   1.000  U
  U6       1.0000 0.55275  0.46194  0.59971  Biso   1.000  U
  U7       1.0000 0.10127  0.46327  0.93715  Biso   1.000  U
  U8       1.0000 0.31529  0.38138  0.80920  Biso   1.000  U
  U9       1.0000 0.55275  0.96194  0.90029  Biso   1.000  U
  U10      1.0000 0.89873  0.03673  0.43715  Biso   1.000  U
  U11      1.0000 0.68471  0.11862  0.30920  Biso   1.000  U
  U12      1.0000 0.44725  0.53806  0.40029  Biso   1.000  U
  H1       1.0000 0.91830  0.31030  0.17130  Biso   1.000  H
  H2       1.0000 0.60050  0.57680  0.94140  Biso   1.000  H
  H3       1.0000 0.19700  0.66610  0.00460  Biso   1.000  H
  H4       1.0000 0.43740  0.65500  0.07360  Biso   1.000  H
  H5       1.0000 0.65170  0.41000  0.13410  Biso   1.000  H
  H6       1.0000 0.45290  0.59240  0.25830  Biso   1.000  H
  H7       1.0000 0.51160  0.54140  0.23930  Biso   1.000  H
  H8       1.0000 0.93320  0.75460  0.98610  Biso   1.000  H
  H9       1.0000 0.41270  0.73540  0.98350  Biso   1.000  H
  H10      1.0000 0.20140  0.50320  0.18490  Biso   1.000  H
  H11      1.0000 0.75910  0.23930  0.19930  Biso   1.000  H
  H12      1.0000 0.90290  0.82640  0.87170  Biso   1.000  H
  H13      1.0000 0.27170  0.79860  0.13920  Biso   1.000  H
  H14      1.0000 0.01660  0.72950  0.14370  Biso   1.000  H
  H15      1.0000 0.17290  0.82470  0.97300  Biso   1.000  H
  H16      1.0000 0.74500  0.81350  0.15430  Biso   1.000  H
  H17      1.0000 0.46720  0.34260  0.16360  Biso   1.000  H
  H18      1.0000 0.98390  0.88630  0.15790  Biso   1.000  H
  H19      1.0000 0.16790  0.27010  0.28770  Biso   1.000  H
  H20      1.0000 0.86210  0.91330  0.05260  Biso   1.000  H
  H21      1.0000 0.29260  0.09620  0.05260  Biso   1.000  H
  H22      1.0000 0.06630  0.06910  0.07100  Biso   1.000  H
  H23      1.0000 0.81140  0.03380  0.14000  Biso   1.000  H
  H24      1.0000 0.73320  0.97900  0.12840  Biso   1.000  H
  H25      1.0000 0.36120  0.10120  0.14600  Biso   1.000  H
  H26      1.0000 0.30930  0.04800  0.16300  Biso   1.000  H
  H27      1.0000 0.75170  0.02550  0.05300  Biso   1.000  H
  H28      1.0000 0.50900  0.99640  0.04240  Biso   1.000  H
  H29      1.0000 0.08170  0.18970  0.67130  Biso   1.000  H
  H30      1.0000 0.39950  0.92320  0.44140  Biso   1.000  H
  H31      1.0000 0.80300  0.83390  0.50460  Biso   1.000  H
  H32      1.0000 0.56260  0.84500  0.57360  Biso   1.000  H
  H33      1.0000 0.34830  0.09000  0.63410  Biso   1.000  H
  H34      1.0000 0.54710  0.90760  0.75830  Biso   1.000  H
  H35      1.0000 0.48840  0.95860  0.73930  Biso   1.000  H
  H36      1.0000 0.06680  0.74540  0.48610  Biso   1.000  H
  H37      1.0000 0.58730  0.76460  0.48350  Biso   1.000  H
  H38      1.0000 0.79860  0.99680  0.68490  Biso   1.000  H
  H39      1.0000 0.24090  0.26070  0.69930  Biso   1.000  H
  H40      1.0000 0.09710  0.67360  0.37170  Biso   1.000  H
  H41      1.0000 0.72830  0.70140  0.63920  Biso   1.000  H
  H42      1.0000 0.98340  0.77050  0.64370  Biso   1.000  H
  H43      1.0000 0.82710  0.67530  0.47300  Biso   1.000  H
  H44      1.0000 0.25500  0.68650  0.65430  Biso   1.000  H
  H45      1.0000 0.53280  0.15740  0.66360  Biso   1.000  H
  H46      1.0000 0.01610  0.61370  0.65790  Biso   1.000  H
  H47      1.0000 0.83210  0.22990  0.78770  Biso   1.000  H
  H48      1.0000 0.13790  0.58670  0.55260  Biso   1.000  H
  H49      1.0000 0.70740  0.40380  0.55260  Biso   1.000  H
  H50      1.0000 0.93370  0.43090  0.57100  Biso   1.000  H
  H51      1.0000 0.18860  0.46620  0.64000  Biso   1.000  H
  H52      1.0000 0.26680  0.52100  0.62840  Biso   1.000  H
  H53      1.0000 0.63880  0.39880  0.64600  Biso   1.000  H
  H54      1.0000 0.69070  0.45200  0.66300  Biso   1.000  H
  H55      1.0000 0.24830  0.47450  0.55300  Biso   1.000  H
  H56      1.0000 0.49100  0.50360  0.54240  Biso   1.000  H
  H57      1.0000 0.08170  0.68970  0.82870  Biso   1.000  H
  H58      1.0000 0.39950  0.42320  0.05860  Biso   1.000  H
  H59      1.0000 0.80300  0.33390  0.99540  Biso   1.000  H
  H60      1.0000 0.56260  0.34500  0.92640  Biso   1.000  H
  H61      1.0000 0.34830  0.59000  0.86590  Biso   1.000  H
  H62      1.0000 0.54710  0.40760  0.74170  Biso   1.000  H
  H63      1.0000 0.48840  0.45860  0.76070  Biso   1.000  H
  H64      1.0000 0.06680  0.24540  0.01390  Biso   1.000  H
  H65      1.0000 0.58730  0.26460  0.01650  Biso   1.000  H
  H66      1.0000 0.79860  0.49680  0.81510  Biso   1.000  H
  H67      1.0000 0.24090  0.76070  0.80070  Biso   1.000  H
  H68      1.0000 0.09710  0.17360  0.12830  Biso   1.000  H
  H69      1.0000 0.72830  0.20140  0.86080  Biso   1.000  H
  H70      1.0000 0.98340  0.27050  0.85630  Biso   1.000  H
  H71      1.0000 0.82710  0.17530  0.02700  Biso   1.000  H
  H72      1.0000 0.25500  0.18650  0.84570  Biso   1.000  H
  H73      1.0000 0.53280  0.65740  0.83640  Biso   1.000  H
  H74      1.0000 0.01610  0.11370  0.84210  Biso   1.000  H
  H75      1.0000 0.83210  0.72990  0.71230  Biso   1.000  H
  H76      1.0000 0.13790  0.08670  0.94740  Biso   1.000  H
  H77      1.0000 0.70740  0.90380  0.94740  Biso   1.000  H
  H78      1.0000 0.93370  0.93090  0.92900  Biso   1.000  H
  H79      1.0000 0.18860  0.96620  0.86000  Biso   1.000  H
  H80      1.0000 0.26680  0.02100  0.87160  Biso   1.000  H
  H81      1.0000 0.63880  0.89880  0.85400  Biso   1.000  H
  H82      1.0000 0.69070  0.95200  0.83700  Biso   1.000  H
  H83      1.0000 0.24830  0.97450  0.94700  Biso   1.000  H
  H84      1.0000 0.49100  0.00360  0.95760  Biso   1.000  H
  H85      1.0000 0.91830  0.81030  0.32870  Biso   1.000  H
  H86      1.0000 0.60050  0.07680  0.55860  Biso   1.000  H
  H87      1.0000 0.19700  0.16610  0.49540  Biso   1.000  H
  H88      1.0000 0.43740  0.15500  0.42640  Biso   1.000  H
  H89      1.0000 0.65170  0.91000  0.36590  Biso   1.000  H
  H90      1.0000 0.45290  0.09240  0.24170  Biso   1.000  H
  H91      1.0000 0.51160  0.04140  0.26070  Biso   1.000  H
  H92      1.0000 0.93320  0.25460  0.51390  Biso   1.000  H
  H93      1.0000 0.41270  0.23540  0.51650  Biso   1.000  H
  H94      1.0000 0.20140  0.00320  0.31510  Biso   1.000  H
  H95      1.0000 0.75910  0.73930  0.30070  Biso   1.000  H
  H96      1.0000 0.90290  0.32640  0.62830  Biso   1.000  H
  H97      1.0000 0.27170  0.29860  0.36080  Biso   1.000  H
  H98      1.0000 0.01660  0.22950  0.35630  Biso   1.000  H
  H99      1.0000 0.17290  0.32470  0.52700  Biso   1.000  H
  H100     1.0000 0.74500  0.31350  0.34570  Biso   1.000  H
  H101     1.0000 0.46720  0.84260  0.33640  Biso   1.000  H
  H102     1.0000 0.98390  0.38630  0.34210  Biso   1.000  H
  H103     1.0000 0.16790  0.77010  0.21230  Biso   1.000  H
  H104     1.0000 0.86210  0.41330  0.44740  Biso   1.000  H
  H105     1.0000 0.29260  0.59620  0.44740  Biso   1.000  H
  H106     1.0000 0.06630  0.56910  0.42900  Biso   1.000  H
  H107     1.0000 0.81140  0.53380  0.36000  Biso   1.000  H
  H108     1.0000 0.73320  0.47900  0.37160  Biso   1.000  H
  H109     1.0000 0.36120  0.60120  0.35400  Biso   1.000  H
  H110     1.0000 0.30930  0.54800  0.33700  Biso   1.000  H
  H111     1.0000 0.75170  0.52550  0.44700  Biso   1.000  H
  H112     1.0000 0.50900  0.49640  0.45760  Biso   1.000  H
  C1       1.0000 0.96490  0.30290  0.19500  Biso   1.000  C
  C2       1.0000 0.23010  0.56940  0.98700  Biso   1.000  C
  C3       1.0000 0.03720  0.63970  0.11420  Biso   1.000  C
  C4       1.0000 0.69010  0.65140  0.93770  Biso   1.000  C
  C5       1.0000 0.63190  0.69990  0.94810  Biso   1.000  C
  C6       1.0000 0.37440  0.61420  0.97480  Biso   1.000  C
  C7       1.0000 0.45010  0.46360  0.15760  Biso   1.000  C
  C8       1.0000 0.56110  0.60860  0.94990  Biso   1.000  C
  C9       1.0000 0.12530  0.95110  0.10640  Biso   1.000  C
  C10      1.0000 0.58220  0.50860  0.14150  Biso   1.000  C
  C11      1.0000 0.54880  0.72720  0.08230  Biso   1.000  C
  C12      1.0000 0.76110  0.77110  0.90330  Biso   1.000  C
  C13      1.0000 0.32020  0.66220  0.98740  Biso   1.000  C
  C14      1.0000 0.65350  0.81930  0.10160  Biso   1.000  C
  C15      1.0000 0.20020  0.68490  0.10920  Biso   1.000  C
  C16      1.0000 0.94800  0.24740  0.24580  Biso   1.000  C
  C17      1.0000 0.40120  0.68410  0.08630  Biso   1.000  C
  C18      1.0000 0.77140  0.74690  0.93720  Biso   1.000  C
  C19      1.0000 0.23100  0.38130  0.19420  Biso   1.000  C
  C20      1.0000 0.52670  0.41530  0.15080  Biso   1.000  C
  C21      1.0000 0.50260  0.77140  0.10160  Biso   1.000  C
  C22      1.0000 0.92690  0.76860  0.96290  Biso   1.000  C
  C23      1.0000 0.95540  0.90600  0.10550  Biso   1.000  C
  C24      1.0000 0.12750  0.33570  0.21320  Biso   1.000  C
  C25      1.0000 0.44890  0.70380  0.97450  Biso   1.000  C
  C26      1.0000 0.14990  0.43060  0.19890  Biso   1.000  C
  C27      1.0000 0.19770  0.32190  0.24760  Biso   1.000  C
  C28      1.0000 0.25830  0.47100  0.18110  Biso   1.000  C
  C29      1.0000 0.87240  0.25980  0.21140  Biso   1.000  C
  C30      1.0000 0.91010  0.81190  0.89470  Biso   1.000  C
  C31      1.0000 0.30330  0.77030  0.12520  Biso   1.000  C
  C32      1.0000 0.15250  0.72860  0.12840  Biso   1.000  C
  C33      1.0000 0.07260  0.83140  0.92080  Biso   1.000  C
  C34      1.0000 0.24190  0.87490  0.91280  Biso   1.000  C
  C35      1.0000 0.07350  0.81060  0.95500  Biso   1.000  C
  C36      1.0000 0.76690  0.83340  0.13370  Biso   1.000  C
  C37      1.0000 0.41600  0.37500  0.16880  Biso   1.000  C
  C38      1.0000 0.68650  0.85110  0.07200  Biso   1.000  C
  C39      1.0000 0.91400  0.87690  0.13580  Biso   1.000  C
  C40      1.0000 0.11500  0.27840  0.26450  Biso   1.000  C
  C41      1.0000 0.83900  0.89350  0.07320  Biso   1.000  C
  C42      1.0000 0.84500  0.20280  0.26620  Biso   1.000  C
  C43      1.0000 0.03510  0.19710  0.69500  Biso   1.000  C
  C44      1.0000 0.76990  0.93060  0.48700  Biso   1.000  C
  C45      1.0000 0.96280  0.86030  0.61420  Biso   1.000  C
  C46      1.0000 0.30990  0.84860  0.43770  Biso   1.000  C
  C47      1.0000 0.36810  0.80010  0.44810  Biso   1.000  C
  C48      1.0000 0.62560  0.88580  0.47480  Biso   1.000  C
  C49      1.0000 0.54990  0.03640  0.65760  Biso   1.000  C
  C50      1.0000 0.43890  0.89140  0.44990  Biso   1.000  C
  C51      1.0000 0.87470  0.54890  0.60640  Biso   1.000  C
  C52      1.0000 0.41780  0.99140  0.64150  Biso   1.000  C
  C53      1.0000 0.45120  0.77280  0.58230  Biso   1.000  C
  C54      1.0000 0.23890  0.72890  0.40330  Biso   1.000  C
  C55      1.0000 0.67980  0.83780  0.48740  Biso   1.000  C
  C56      1.0000 0.34650  0.68070  0.60160  Biso   1.000  C
  C57      1.0000 0.79980  0.81510  0.60920  Biso   1.000  C
  C58      1.0000 0.05200  0.25260  0.74580  Biso   1.000  C
  C59      1.0000 0.59880  0.81590  0.58630  Biso   1.000  C
  C60      1.0000 0.22860  0.75310  0.43720  Biso   1.000  C
  C61      1.0000 0.76900  0.11870  0.69420  Biso   1.000  C
  C62      1.0000 0.47330  0.08470  0.65080  Biso   1.000  C
  C63      1.0000 0.49740  0.72860  0.60160  Biso   1.000  C
  C64      1.0000 0.07310  0.73140  0.46290  Biso   1.000  C
  C65      1.0000 0.04460  0.59400  0.60550  Biso   1.000  C
  C66      1.0000 0.87250  0.16430  0.71320  Biso   1.000  C
  C67      1.0000 0.55110  0.79620  0.47450  Biso   1.000  C
  C68      1.0000 0.85010  0.06940  0.69890  Biso   1.000  C
  C69      1.0000 0.80230  0.17810  0.74760  Biso   1.000  C
  C70      1.0000 0.74170  0.02900  0.68110  Biso   1.000  C
  C71      1.0000 0.12760  0.24020  0.71140  Biso   1.000  C
  C72      1.0000 0.08990  0.68810  0.39470  Biso   1.000  C
  C73      1.0000 0.69670  0.72970  0.62520  Biso   1.000  C
  C74      1.0000 0.84750  0.77140  0.62840  Biso   1.000  C
  C75      1.0000 0.92740  0.66860  0.42080  Biso   1.000  C
  C76      1.0000 0.75810  0.62510  0.41280  Biso   1.000  C
  C77      1.0000 0.92650  0.68940  0.45500  Biso   1.000  C
  C78      1.0000 0.23310  0.66660  0.63370  Biso   1.000  C
  C79      1.0000 0.58400  0.12500  0.66880  Biso   1.000  C
  C80      1.0000 0.31350  0.64890  0.57200  Biso   1.000  C
  C81      1.0000 0.08600  0.62310  0.63580  Biso   1.000  C
  C82      1.0000 0.88500  0.22160  0.76450  Biso   1.000  C
  C83      1.0000 0.16100  0.60650  0.57320  Biso   1.000  C
  C84      1.0000 0.15500  0.29720  0.76620  Biso   1.000  C
  C85      1.0000 0.03510  0.69710  0.80500  Biso   1.000  C
  C86      1.0000 0.76990  0.43060  0.01300  Biso   1.000  C
  C87      1.0000 0.96280  0.36030  0.88580  Biso   1.000  C
  C88      1.0000 0.30990  0.34860  0.06230  Biso   1.000  C
  C89      1.0000 0.36810  0.30010  0.05190  Biso   1.000  C
  C90      1.0000 0.62560  0.38580  0.02520  Biso   1.000  C
  C91      1.0000 0.54990  0.53640  0.84240  Biso   1.000  C
  C92      1.0000 0.43890  0.39140  0.05010  Biso   1.000  C
  C93      1.0000 0.87470  0.04890  0.89360  Biso   1.000  C
  C94      1.0000 0.41780  0.49140  0.85850  Biso   1.000  C
  C95      1.0000 0.45120  0.27280  0.91770  Biso   1.000  C
  C96      1.0000 0.23890  0.22890  0.09670  Biso   1.000  C
  C97      1.0000 0.67980  0.33780  0.01260  Biso   1.000  C
  C98      1.0000 0.34650  0.18070  0.89840  Biso   1.000  C
  C99      1.0000 0.79980  0.31510  0.89080  Biso   1.000  C
  C100     1.0000 0.05200  0.75260  0.75420  Biso   1.000  C
  C101     1.0000 0.59880  0.31590  0.91370  Biso   1.000  C
  C102     1.0000 0.22860  0.25310  0.06280  Biso   1.000  C
  C103     1.0000 0.76900  0.61870  0.80580  Biso   1.000  C
  C104     1.0000 0.47330  0.58470  0.84920  Biso   1.000  C
  C105     1.0000 0.49740  0.22860  0.89840  Biso   1.000  C
  C106     1.0000 0.07310  0.23140  0.03710  Biso   1.000  C
  C107     1.0000 0.04460  0.09400  0.89450  Biso   1.000  C
  C108     1.0000 0.87250  0.66430  0.78680  Biso   1.000  C
  C109     1.0000 0.55110  0.29620  0.02550  Biso   1.000  C
  C110     1.0000 0.85010  0.56940  0.80110  Biso   1.000  C
  C111     1.0000 0.80230  0.67810  0.75240  Biso   1.000  C
  C112     1.0000 0.74170  0.52900  0.81890  Biso   1.000  C
  C113     1.0000 0.12760  0.74020  0.78860  Biso   1.000  C
  C114     1.0000 0.08990  0.18810  0.10530  Biso   1.000  C
  C115     1.0000 0.69670  0.22970  0.87480  Biso   1.000  C
  C116     1.0000 0.84750  0.27140  0.87160  Biso   1.000  C
  C117     1.0000 0.92740  0.16860  0.07920  Biso   1.000  C
  C118     1.0000 0.75810  0.12510  0.08720  Biso   1.000  C
  C119     1.0000 0.92650  0.18940  0.04500  Biso   1.000  C
  C120     1.0000 0.23310  0.16660  0.86630  Biso   1.000  C
  C121     1.0000 0.58400  0.62500  0.83120  Biso   1.000  C
  C122     1.0000 0.31350  0.14890  0.92800  Biso   1.000  C
  C123     1.0000 0.08600  0.12310  0.86420  Biso   1.000  C
  C124     1.0000 0.88500  0.72160  0.73550  Biso   1.000  C
  C125     1.0000 0.16100  0.10650  0.92680  Biso   1.000  C
  C126     1.0000 0.15500  0.79720  0.73380  Biso   1.000  C
  C127     1.0000 0.96490  0.80290  0.30500  Biso   1.000  C
  C128     1.0000 0.23010  0.06940  0.51300  Biso   1.000  C
  C129     1.0000 0.03720  0.13970  0.38580  Biso   1.000  C
  C130     1.0000 0.69010  0.15140  0.56230  Biso   1.000  C
  C131     1.0000 0.63190  0.19990  0.55190  Biso   1.000  C
  C132     1.0000 0.37440  0.11420  0.52520  Biso   1.000  C
  C133     1.0000 0.45010  0.96360  0.34240  Biso   1.000  C
  C134     1.0000 0.56110  0.10860  0.55010  Biso   1.000  C
  C135     1.0000 0.12530  0.45110  0.39360  Biso   1.000  C
  C136     1.0000 0.58220  0.00860  0.35850  Biso   1.000  C
  C137     1.0000 0.54880  0.22720  0.41770  Biso   1.000  C
  C138     1.0000 0.76110  0.27110  0.59670  Biso   1.000  C
  C139     1.0000 0.32020  0.16220  0.51260  Biso   1.000  C
  C140     1.0000 0.65350  0.31930  0.39840  Biso   1.000  C
  C141     1.0000 0.20020  0.18490  0.39080  Biso   1.000  C
  C142     1.0000 0.94800  0.74740  0.25420  Biso   1.000  C
  C143     1.0000 0.40120  0.18410  0.41370  Biso   1.000  C
  C144     1.0000 0.77140  0.24690  0.56280  Biso   1.000  C
  C145     1.0000 0.23100  0.88130  0.30580  Biso   1.000  C
  C146     1.0000 0.52670  0.91530  0.34920  Biso   1.000  C
  C147     1.0000 0.50260  0.27140  0.39840  Biso   1.000  C
  C148     1.0000 0.92690  0.26860  0.53710  Biso   1.000  C
  C149     1.0000 0.95540  0.40600  0.39450  Biso   1.000  C
  C150     1.0000 0.12750  0.83570  0.28680  Biso   1.000  C
  C151     1.0000 0.44890  0.20380  0.52550  Biso   1.000  C
  C152     1.0000 0.14990  0.93060  0.30110  Biso   1.000  C
  C153     1.0000 0.19770  0.82190  0.25240  Biso   1.000  C
  C154     1.0000 0.25830  0.97100  0.31890  Biso   1.000  C
  C155     1.0000 0.87240  0.75980  0.28860  Biso   1.000  C
  C156     1.0000 0.91010  0.31190  0.60530  Biso   1.000  C
  C157     1.0000 0.30330  0.27030  0.37480  Biso   1.000  C
  C158     1.0000 0.15250  0.22860  0.37160  Biso   1.000  C
  C159     1.0000 0.07260  0.33140  0.57920  Biso   1.000  C
  C160     1.0000 0.24190  0.37490  0.58720  Biso   1.000  C
  C161     1.0000 0.07350  0.31060  0.54500  Biso   1.000  C
  C162     1.0000 0.76690  0.33340  0.36630  Biso   1.000  C
  C163     1.0000 0.41600  0.87500  0.33120  Biso   1.000  C
  C164     1.0000 0.68650  0.35110  0.42800  Biso   1.000  C
  C165     1.0000 0.91400  0.37690  0.36420  Biso   1.000  C
  C166     1.0000 0.11500  0.77840  0.23550  Biso   1.000  C
  C167     1.0000 0.83900  0.39350  0.42680  Biso   1.000  C
  C168     1.0000 0.84500  0.70280  0.23380  Biso   1.000  C
  N1       1.0000 0.88920  0.64230  0.91140  Biso   1.000  N
  N2       1.0000 0.75950  0.72270  0.05780  Biso   1.000  N
  N3       1.0000 0.58780  0.75400  0.87530  Biso   1.000  N
  N4       1.0000 0.95100  0.44090  0.22400  Biso   1.000  N
  N5       1.0000 0.55900  0.84190  0.03730  Biso   1.000  N
  N6       1.0000 0.36500  0.35360  0.26920  Biso   1.000  N
  N7       1.0000 0.11080  0.85770  0.41140  Biso   1.000  N
  N8       1.0000 0.24050  0.77730  0.55780  Biso   1.000  N
  N9       1.0000 0.41220  0.74600  0.37530  Biso   1.000  N
  N10      1.0000 0.04900  0.05910  0.72400  Biso   1.000  N
  N11      1.0000 0.44100  0.65810  0.53730  Biso   1.000  N
  N12      1.0000 0.63500  0.14640  0.76920  Biso   1.000  N
  N13      1.0000 0.11080  0.35770  0.08860  Biso   1.000  N
  N14      1.0000 0.24050  0.27730  0.94220  Biso   1.000  N
  N15      1.0000 0.41220  0.24600  0.12470  Biso   1.000  N
  N16      1.0000 0.04900  0.55910  0.77600  Biso   1.000  N
  N17      1.0000 0.44100  0.15810  0.96270  Biso   1.000  N
  N18      1.0000 0.63500  0.64640  0.73080  Biso   1.000  N
  N19      1.0000 0.88920  0.14230  0.58860  Biso   1.000  N
  N20      1.0000 0.75950  0.22270  0.44220  Biso   1.000  N
  N21      1.0000 0.58780  0.25400  0.62470  Biso   1.000  N
  N22      1.0000 0.95100  0.94090  0.27600  Biso   1.000  N
  N23      1.0000 0.55900  0.34190  0.46270  Biso   1.000  N
  N24      1.0000 0.36500  0.85360  0.23080  Biso   1.000  N
  O1       1.0000 0.07400  0.57480  0.01190  Biso   1.000  O
  O2       1.0000 0.08390  0.60110  0.09555  Biso   1.000  O
  O3       1.0000 0.72250  0.50160  0.11495  Biso   1.000  O
  O4       1.0000 0.55080  0.55020  0.15577  Biso   1.000  O
  O5       1.0000 0.20200  0.96740  0.07750  Biso   1.000  O
  O6       1.0000 0.44600  0.57420  0.23576  Biso   1.000  O
  O7       1.0000 0.63370  0.57210  0.05530  Biso   1.000  O
  O8       1.0000 0.16660  0.50200  0.07030  Biso   1.000  O
  O9       1.0000 0.41750  0.65020  0.18010  Biso   1.000  O
  O10      1.0000 0.86050  0.64190  0.13607  Biso   1.000  O
  O11      1.0000 0.98380  0.60160  0.91200  Biso   1.000  O
  O12      1.0000 0.89030  0.75980  0.05250  Biso   1.000  O
  O13      1.0000 0.94830  0.58630  0.20270  Biso   1.000  O
  O14      1.0000 0.79900  0.68240  0.04410  Biso   1.000  O
  O15      1.0000 0.94650  0.67510  0.89020  Biso   1.000  O
  O16      1.0000 0.41710  0.72670  0.88410  Biso   1.000  O
  O17      1.0000 0.62610  0.76750  0.84410  Biso   1.000  O
  O18      1.0000 0.32600  0.90040  0.93760  Biso   1.000  O
  O19      1.0000 0.38700  0.81370  0.03690  Biso   1.000  O
  O20      1.0000 0.19600  0.97120  0.13350  Biso   1.000  O
  O21      1.0000 0.83800  0.40940  0.23700  Biso   1.000  O
  O22      1.0000 0.34700  0.39740  0.26770  Biso   1.000  O
  O23      1.0000 0.88490  0.19910  0.29987  Biso   1.000  O
  O24      1.0000 0.72490  0.16830  0.25049  Biso   1.000  O
  O25      1.0000 0.63500  0.86250  0.01050  Biso   1.000  O
  O26      1.0000 0.87400  0.48040  0.22630  Biso   1.000  O
  O27      1.0000 0.48400  0.33850  0.29050  Biso   1.000  O
  O28      1.0000 0.29920  0.88600  0.88160  Biso   1.000  O
  O29      1.0000 0.26850  0.52770  0.97171  Biso   1.000  O
  O30      1.0000 0.22800  0.06460  0.06130  Biso   1.000  O
  O31      1.0000 0.67500  0.01080  0.13670  Biso   1.000  O
  O32      1.0000 0.29000  0.06830  0.14170  Biso   1.000  O
  O33      1.0000 0.62100  0.00410  0.06190  Biso   1.000  O
  O34      1.0000 0.92600  0.92520  0.51190  Biso   1.000  O
  O35      1.0000 0.91610  0.89890  0.59555  Biso   1.000  O
  O36      1.0000 0.27750  0.99840  0.61495  Biso   1.000  O
  O37      1.0000 0.44920  0.94980  0.65577  Biso   1.000  O
  O38      1.0000 0.79800  0.53260  0.57750  Biso   1.000  O
  O39      1.0000 0.55400  0.92580  0.73576  Biso   1.000  O
  O40      1.0000 0.36630  0.92790  0.55530  Biso   1.000  O
  O41      1.0000 0.83340  0.99800  0.57030  Biso   1.000  O
  O42      1.0000 0.58250  0.84980  0.68010  Biso   1.000  O
  O43      1.0000 0.13950  0.85810  0.63607  Biso   1.000  O
  O44      1.0000 0.01620  0.89840  0.41200  Biso   1.000  O
  O45      1.0000 0.10970  0.74020  0.55250  Biso   1.000  O
  O46      1.0000 0.05170  0.91370  0.70270  Biso   1.000  O
  O47      1.0000 0.20100  0.81760  0.54410  Biso   1.000  O
  O48      1.0000 0.05350  0.82490  0.39020  Biso   1.000  O
  O49      1.0000 0.58290  0.77330  0.38410  Biso   1.000  O
  O50      1.0000 0.37390  0.73250  0.34410  Biso   1.000  O
  O51      1.0000 0.67400  0.59960  0.43760  Biso   1.000  O
  O52      1.0000 0.61300  0.68630  0.53690  Biso   1.000  O
  O53      1.0000 0.80400  0.52880  0.63350  Biso   1.000  O
  O54      1.0000 0.16200  0.09060  0.73700  Biso   1.000  O
  O55      1.0000 0.65300  0.10260  0.76770  Biso   1.000  O
  O56      1.0000 0.11510  0.30090  0.79987  Biso   1.000  O
  O57      1.0000 0.27510  0.33170  0.75049  Biso   1.000  O
  O58      1.0000 0.36500  0.63750  0.51050  Biso   1.000  O
  O59      1.0000 0.12600  0.01960  0.72630  Biso   1.000  O
  O60      1.0000 0.51600  0.16150  0.79050  Biso   1.000  O
  O61      1.0000 0.70080  0.61400  0.38160  Biso   1.000  O
  O62      1.0000 0.73150  0.97230  0.47171  Biso   1.000  O
  O63      1.0000 0.77200  0.43540  0.56130  Biso   1.000  O
  O64      1.0000 0.32500  0.48920  0.63670  Biso   1.000  O
  O65      1.0000 0.71000  0.43170  0.64170  Biso   1.000  O
  O66      1.0000 0.37900  0.49590  0.56190  Biso   1.000  O
  O67      1.0000 0.92600  0.42520  0.98810  Biso   1.000  O
  O68      1.0000 0.91610  0.39890  0.90445  Biso   1.000  O
  O69      1.0000 0.27750  0.49840  0.88505  Biso   1.000  O
  O70      1.0000 0.44920  0.44980  0.84423  Biso   1.000  O
  O71      1.0000 0.79800  0.03260  0.92250  Biso   1.000  O
  O72      1.0000 0.55400  0.42580  0.76424  Biso   1.000  O
  O73      1.0000 0.36630  0.42790  0.94470  Biso   1.000  O
  O74      1.0000 0.83340  0.49800  0.92970  Biso   1.000  O
  O75      1.0000 0.58250  0.34980  0.81990  Biso   1.000  O
  O76      1.0000 0.13950  0.35810  0.86393  Biso   1.000  O
  O77      1.0000 0.01620  0.39840  0.08800  Biso   1.000  O
  O78      1.0000 0.10970  0.24020  0.94750  Biso   1.000  O
  O79      1.0000 0.05170  0.41370  0.79730  Biso   1.000  O
  O80      1.0000 0.20100  0.31760  0.95590  Biso   1.000  O
  O81      1.0000 0.05350  0.32490  0.10980  Biso   1.000  O
  O82      1.0000 0.58290  0.27330  0.11590  Biso   1.000  O
  O83      1.0000 0.37390  0.23250  0.15590  Biso   1.000  O
  O84      1.0000 0.67400  0.09960  0.06240  Biso   1.000  O
  O85      1.0000 0.61300  0.18630  0.96310  Biso   1.000  O
  O86      1.0000 0.80400  0.02880  0.86650  Biso   1.000  O
  O87      1.0000 0.16200  0.59060  0.76300  Biso   1.000  O
  O88      1.0000 0.65300  0.60260  0.73230  Biso   1.000  O
  O89      1.0000 0.11510  0.80090  0.70013  Biso   1.000  O
  O90      1.0000 0.27510  0.83170  0.74951  Biso   1.000  O
  O91      1.0000 0.36500  0.13750  0.98950  Biso   1.000  O
  O92      1.0000 0.12600  0.51960  0.77370  Biso   1.000  O
  O93      1.0000 0.51600  0.66150  0.70950  Biso   1.000  O
  O94      1.0000 0.70080  0.11400  0.11840  Biso   1.000  O
  O95      1.0000 0.73150  0.47230  0.02829  Biso   1.000  O
  O96      1.0000 0.77200  0.93540  0.93870  Biso   1.000  O
  O97      1.0000 0.32500  0.98920  0.86330  Biso   1.000  O
  O98      1.0000 0.71000  0.93170  0.85830  Biso   1.000  O
  O99      1.0000 0.37900  0.99590  0.93810  Biso   1.000  O
  O100     1.0000 0.07400  0.07480  0.48810  Biso   1.000  O
  O101     1.0000 0.08390  0.10110  0.40445  Biso   1.000  O
  O102     1.0000 0.72250  0.00160  0.38505  Biso   1.000  O
  O103     1.0000 0.55080  0.05020  0.34423  Biso   1.000  O
  O104     1.0000 0.20200  0.46740  0.42250  Biso   1.000  O
  O105     1.0000 0.44600  0.07420  0.26424  Biso   1.000  O
  O106     1.0000 0.63370  0.07210  0.44470  Biso   1.000  O
  O107     1.0000 0.16660  0.00200  0.42970  Biso   1.000  O
  O108     1.0000 0.41750  0.15020  0.31990  Biso   1.000  O
  O109     1.0000 0.86050  0.14190  0.36393  Biso   1.000  O
  O110     1.0000 0.98380  0.10160  0.58800  Biso   1.000  O
  O111     1.0000 0.89030  0.25980  0.44750  Biso   1.000  O
  O112     1.0000 0.94830  0.08630  0.29730  Biso   1.000  O
  O113     1.0000 0.79900  0.18240  0.45590  Biso   1.000  O
  O114     1.0000 0.94650  0.17510  0.60980  Biso   1.000  O
  O115     1.0000 0.41710  0.22670  0.61590  Biso   1.000  O
  O116     1.0000 0.62610  0.26750  0.65590  Biso   1.000  O
  O117     1.0000 0.32600  0.40040  0.56240  Biso   1.000  O
  O118     1.0000 0.38700  0.31370  0.46310  Biso   1.000  O
  O119     1.0000 0.19600  0.47120  0.36650  Biso   1.000  O
  O120     1.0000 0.83800  0.90940  0.26300  Biso   1.000  O
  O121     1.0000 0.34700  0.89740  0.23230  Biso   1.000  O
  O122     1.0000 0.88490  0.69910  0.20013  Biso   1.000  O
  O123     1.0000 0.72490  0.66830  0.24951  Biso   1.000  O
  O124     1.0000 0.63500  0.36250  0.48950  Biso   1.000  O
  O125     1.0000 0.87400  0.98040  0.27370  Biso   1.000  O
  O126     1.0000 0.48400  0.83850  0.20950  Biso   1.000  O
  O127     1.0000 0.29920  0.38600  0.61840  Biso   1.000  O
  O128     1.0000 0.26850  0.02770  0.52829  Biso   1.000  O
  O129     1.0000 0.22800  0.56460  0.43870  Biso   1.000  O
  O130     1.0000 0.67500  0.51080  0.36330  Biso   1.000  O
  O131     1.0000 0.29000  0.56830  0.35830  Biso   1.000  O
  O132     1.0000 0.62100  0.50410  0.43810  Biso   1.000  O
