data_image0
_cell_length_a       8.7635
_cell_length_b       11.4678
_cell_length_c       11.4678
_cell_angle_alpha    106.056
_cell_angle_beta     103.826
_cell_angle_gamma    76.1737

_symmetry_space_group_name_H-M    P 1
_symmetry_int_tables_number       1

loop_
  _symmetry_equiv_pos_as_xyz
  'x, y, z'

loop_
  _atom_site_label
  _atom_site_occupancy
  _atom_site_fract_x
  _atom_site_fract_y
  _atom_site_fract_z
  _atom_site_thermal_displace_type
  _atom_site_B_iso_or_equiv
  _atom_site_type_symbol
  Sr1      1.0000 0.75000  0.46165  0.46165  Biso   1.000  Sr
  Sr2      1.0000 0.25000  0.53835  0.53835  Biso   1.000  Sr
  Ni1      1.0000 0.00000  0.50000  0.00000  Biso   1.000  Ni
  Ni2      1.0000 0.50000  0.00000  0.50000  Biso   1.000  Ni
  H1       1.0000 0.47570  0.30630  0.45990  Biso   1.000  H
  H2       1.0000 0.46390  0.34730  0.35510  Biso   1.000  H
  H3       1.0000 0.77820  0.69180  0.97900  Biso   1.000  H
  H4       1.0000 0.91670  0.72640  0.99540  Biso   1.000  H
  H5       1.0000 0.57030  0.29730  0.74170  Biso   1.000  H
  H6       1.0000 0.46200  0.26670  0.89590  Biso   1.000  H
  H7       1.0000 0.77350  0.45270  0.14790  Biso   1.000  H
  H8       1.0000 0.02430  0.45990  0.30630  Biso   1.000  H
  H9       1.0000 0.03610  0.35510  0.34730  Biso   1.000  H
  H10      1.0000 0.72180  0.97900  0.69180  Biso   1.000  H
  H11      1.0000 0.58330  0.99540  0.72640  Biso   1.000  H
  H12      1.0000 0.92970  0.74170  0.29730  Biso   1.000  H
  H13      1.0000 0.03800  0.89590  0.26670  Biso   1.000  H
  H14      1.0000 0.72650  0.14790  0.45270  Biso   1.000  H
  H15      1.0000 0.52430  0.69370  0.54010  Biso   1.000  H
  H16      1.0000 0.53610  0.65270  0.64490  Biso   1.000  H
  H17      1.0000 0.22180  0.30820  0.02100  Biso   1.000  H
  H18      1.0000 0.08330  0.27360  0.00460  Biso   1.000  H
  H19      1.0000 0.42970  0.70270  0.25830  Biso   1.000  H
  H20      1.0000 0.53800  0.73330  0.10410  Biso   1.000  H
  H21      1.0000 0.22650  0.54730  0.85210  Biso   1.000  H
  H22      1.0000 0.97570  0.54010  0.69370  Biso   1.000  H
  H23      1.0000 0.96390  0.64490  0.65270  Biso   1.000  H
  H24      1.0000 0.27820  0.02100  0.30820  Biso   1.000  H
  H25      1.0000 0.41670  0.00460  0.27360  Biso   1.000  H
  H26      1.0000 0.07030  0.25830  0.70270  Biso   1.000  H
  H27      1.0000 0.96200  0.10410  0.73330  Biso   1.000  H
  H28      1.0000 0.27350  0.85210  0.54730  Biso   1.000  H
  C1       1.0000 0.73510  0.39097  0.85919  Biso   1.000  C
  C2       1.0000 0.61030  0.32776  0.82464  Biso   1.000  C
  C3       1.0000 0.54530  0.31028  0.91672  Biso   1.000  C
  C4       1.0000 0.60550  0.35824  0.03944  Biso   1.000  C
  C5       1.0000 0.73200  0.42015  0.06571  Biso   1.000  C
  C6       1.0000 0.80970  0.42019  0.76697  Biso   1.000  C
  C7       1.0000 0.54010  0.34698  0.14482  Biso   1.000  C
  C8       1.0000 0.76490  0.85919  0.39097  Biso   1.000  C
  C9       1.0000 0.88970  0.82464  0.32776  Biso   1.000  C
  C10      1.0000 0.95470  0.91672  0.31028  Biso   1.000  C
  C11      1.0000 0.89450  0.03944  0.35824  Biso   1.000  C
  C12      1.0000 0.76800  0.06571  0.42015  Biso   1.000  C
  C13      1.0000 0.69030  0.76697  0.42019  Biso   1.000  C
  C14      1.0000 0.95990  0.14482  0.34698  Biso   1.000  C
  C15      1.0000 0.26490  0.60903  0.14081  Biso   1.000  C
  C16      1.0000 0.38970  0.67224  0.17536  Biso   1.000  C
  C17      1.0000 0.45470  0.68972  0.08328  Biso   1.000  C
  C18      1.0000 0.39450  0.64176  0.96056  Biso   1.000  C
  C19      1.0000 0.26800  0.57985  0.93429  Biso   1.000  C
  C20      1.0000 0.19030  0.57981  0.23303  Biso   1.000  C
  C21      1.0000 0.45990  0.65302  0.85518  Biso   1.000  C
  C22      1.0000 0.23510  0.14081  0.60903  Biso   1.000  C
  C23      1.0000 0.11030  0.17536  0.67224  Biso   1.000  C
  C24      1.0000 0.04530  0.08328  0.68972  Biso   1.000  C
  C25      1.0000 0.10550  0.96056  0.64176  Biso   1.000  C
  C26      1.0000 0.23200  0.93429  0.57985  Biso   1.000  C
  C27      1.0000 0.30970  0.23303  0.57981  Biso   1.000  C
  C28      1.0000 0.04010  0.85518  0.65302  Biso   1.000  C
  N1       1.0000 0.79670  0.43477  0.97765  Biso   1.000  N
  N2       1.0000 0.70330  0.97765  0.43477  Biso   1.000  N
  N3       1.0000 0.20330  0.56523  0.02235  Biso   1.000  N
  N4       1.0000 0.29670  0.02235  0.56523  Biso   1.000  N
  O1       1.0000 0.93070  0.47230  0.81268  Biso   1.000  O
  O2       1.0000 0.75160  0.39258  0.65652  Biso   1.000  O
  O3       1.0000 0.42640  0.29223  0.12217  Biso   1.000  O
  O4       1.0000 0.60390  0.39541  0.24965  Biso   1.000  O
  O5       1.0000 0.46720  0.36977  0.43269  Biso   1.000  O
  O6       1.0000 0.87260  0.68193  0.02075  Biso   1.000  O
  O7       1.0000 0.56930  0.81268  0.47230  Biso   1.000  O
  O8       1.0000 0.74840  0.65652  0.39258  Biso   1.000  O
  O9       1.0000 0.07360  0.12217  0.29223  Biso   1.000  O
  O10      1.0000 0.89610  0.24965  0.39541  Biso   1.000  O
  O11      1.0000 0.03280  0.43269  0.36977  Biso   1.000  O
  O12      1.0000 0.62740  0.02075  0.68193  Biso   1.000  O
  O13      1.0000 0.06930  0.52770  0.18732  Biso   1.000  O
  O14      1.0000 0.24840  0.60742  0.34348  Biso   1.000  O
  O15      1.0000 0.57360  0.70777  0.87783  Biso   1.000  O
  O16      1.0000 0.39610  0.60459  0.75035  Biso   1.000  O
  O17      1.0000 0.53280  0.63023  0.56731  Biso   1.000  O
  O18      1.0000 0.12740  0.31807  0.97925  Biso   1.000  O
  O19      1.0000 0.43070  0.18732  0.52770  Biso   1.000  O
  O20      1.0000 0.25160  0.34348  0.60742  Biso   1.000  O
  O21      1.0000 0.92640  0.87783  0.70777  Biso   1.000  O
  O22      1.0000 0.10390  0.75035  0.60459  Biso   1.000  O
  O23      1.0000 0.96720  0.56731  0.63023  Biso   1.000  O
  O24      1.0000 0.37260  0.97925  0.31807  Biso   1.000  O
