data_image0
_cell_length_a       7.5831
_cell_length_b       13.7989
_cell_length_c       31.0864
_cell_angle_alpha    90
_cell_angle_beta     90
_cell_angle_gamma    90

_symmetry_space_group_name_H-M    P 1
_symmetry_int_tables_number       1

loop_
  _symmetry_equiv_pos_as_xyz
  'x, y, z'

loop_
  _atom_site_label
  _atom_site_occupancy
  _atom_site_fract_x
  _atom_site_fract_y
  _atom_site_fract_z
  _atom_site_thermal_displace_type
  _atom_site_B_iso_or_equiv
  _atom_site_type_symbol
  Mn1      1.0000 0.94600  0.08702  0.25000  Biso   1.000  Mn
  Mn2      1.0000 0.55400  0.58702  0.75000  Biso   1.000  Mn
  Mn3      1.0000 0.05400  0.91298  0.75000  Biso   1.000  Mn
  Mn4      1.0000 0.44600  0.41298  0.25000  Biso   1.000  Mn
  Mn5      1.0000 0.50000  0.50000  0.50000  Biso   1.000  Mn
  Mn6      1.0000 0.00000  0.00000  0.50000  Biso   1.000  Mn
  Mn7      1.0000 0.50000  0.50000  0.00000  Biso   1.000  Mn
  Mn8      1.0000 0.00000  0.00000  0.00000  Biso   1.000  Mn
  Ag1      1.0000 0.49585  0.05619  0.38129  Biso   1.000  Ag
  Ag2      1.0000 0.23704  0.24206  0.38974  Biso   1.000  Ag
  Ag3      1.0000 0.00415  0.55619  0.61871  Biso   1.000  Ag
  Ag4      1.0000 0.26296  0.74206  0.61026  Biso   1.000  Ag
  Ag5      1.0000 0.50415  0.94381  0.88129  Biso   1.000  Ag
  Ag6      1.0000 0.76296  0.75794  0.88974  Biso   1.000  Ag
  Ag7      1.0000 0.99585  0.44381  0.11871  Biso   1.000  Ag
  Ag8      1.0000 0.73704  0.25794  0.11026  Biso   1.000  Ag
  Ag9      1.0000 0.50415  0.94381  0.61871  Biso   1.000  Ag
  Ag10     1.0000 0.76296  0.75794  0.61026  Biso   1.000  Ag
  Ag11     1.0000 0.99585  0.44381  0.38129  Biso   1.000  Ag
  Ag12     1.0000 0.73704  0.25794  0.38974  Biso   1.000  Ag
  Ag13     1.0000 0.49585  0.05619  0.11871  Biso   1.000  Ag
  Ag14     1.0000 0.23704  0.24206  0.11026  Biso   1.000  Ag
  Ag15     1.0000 0.00415  0.55619  0.88129  Biso   1.000  Ag
  Ag16     1.0000 0.26296  0.74206  0.88974  Biso   1.000  Ag
  H1       1.0000 0.64370  0.37130  0.65410  Biso   1.000  H
  H2       1.0000 0.69630  0.16760  0.56300  Biso   1.000  H
  H3       1.0000 0.11610  0.93370  0.22610  Biso   1.000  H
  H4       1.0000 0.57430  0.47990  0.60100  Biso   1.000  H
  H5       1.0000 0.63680  0.28360  0.51240  Biso   1.000  H
  H6       1.0000 0.85630  0.87130  0.34590  Biso   1.000  H
  H7       1.0000 0.80370  0.66760  0.43700  Biso   1.000  H
  H8       1.0000 0.38390  0.43370  0.77390  Biso   1.000  H
  H9       1.0000 0.92570  0.97990  0.39900  Biso   1.000  H
  H10      1.0000 0.86320  0.78360  0.48760  Biso   1.000  H
  H11      1.0000 0.35630  0.62870  0.15410  Biso   1.000  H
  H12      1.0000 0.30370  0.83240  0.06300  Biso   1.000  H
  H13      1.0000 0.88390  0.06630  0.72610  Biso   1.000  H
  H14      1.0000 0.42570  0.52010  0.10100  Biso   1.000  H
  H15      1.0000 0.36320  0.71640  0.01240  Biso   1.000  H
  H16      1.0000 0.14370  0.12870  0.84590  Biso   1.000  H
  H17      1.0000 0.19630  0.33240  0.93700  Biso   1.000  H
  H18      1.0000 0.61610  0.56630  0.27390  Biso   1.000  H
  H19      1.0000 0.07430  0.02010  0.89900  Biso   1.000  H
  H20      1.0000 0.13680  0.21640  0.98760  Biso   1.000  H
  H21      1.0000 0.35630  0.62870  0.34590  Biso   1.000  H
  H22      1.0000 0.30370  0.83240  0.43700  Biso   1.000  H
  H23      1.0000 0.88390  0.06630  0.77390  Biso   1.000  H
  H24      1.0000 0.42570  0.52010  0.39900  Biso   1.000  H
  H25      1.0000 0.36320  0.71640  0.48760  Biso   1.000  H
  H26      1.0000 0.14370  0.12870  0.65410  Biso   1.000  H
  H27      1.0000 0.19630  0.33240  0.56300  Biso   1.000  H
  H28      1.0000 0.61610  0.56630  0.22610  Biso   1.000  H
  H29      1.0000 0.07430  0.02010  0.60100  Biso   1.000  H
  H30      1.0000 0.13680  0.21640  0.51240  Biso   1.000  H
  H31      1.0000 0.64370  0.37130  0.84590  Biso   1.000  H
  H32      1.0000 0.69630  0.16760  0.93700  Biso   1.000  H
  H33      1.0000 0.11610  0.93370  0.27390  Biso   1.000  H
  H34      1.0000 0.57430  0.47990  0.89900  Biso   1.000  H
  H35      1.0000 0.63680  0.28360  0.98760  Biso   1.000  H
  H36      1.0000 0.85630  0.87130  0.15410  Biso   1.000  H
  H37      1.0000 0.80370  0.66760  0.06300  Biso   1.000  H
  H38      1.0000 0.38390  0.43370  0.72610  Biso   1.000  H
  H39      1.0000 0.92570  0.97990  0.10100  Biso   1.000  H
  H40      1.0000 0.86320  0.78360  0.01240  Biso   1.000  H
  C1       1.0000 0.65720  0.05650  0.32827  Biso   1.000  C
  C2       1.0000 0.33620  0.03923  0.43411  Biso   1.000  C
  C3       1.0000 0.63950  0.35180  0.62551  Biso   1.000  C
  C4       1.0000 0.70830  0.18550  0.64724  Biso   1.000  C
  C5       1.0000 0.67260  0.25670  0.61396  Biso   1.000  C
  C6       1.0000 0.67220  0.23100  0.57135  Biso   1.000  C
  C7       1.0000 0.60010  0.41630  0.59338  Biso   1.000  C
  C8       1.0000 0.16280  0.16644  0.33561  Biso   1.000  C
  C9       1.0000 0.31940  0.32740  0.44014  Biso   1.000  C
  C10      1.0000 0.63520  0.30075  0.54134  Biso   1.000  C
  C11      1.0000 0.84280  0.55650  0.67173  Biso   1.000  C
  C12      1.0000 0.16380  0.53923  0.56589  Biso   1.000  C
  C13      1.0000 0.86050  0.85180  0.37449  Biso   1.000  C
  C14      1.0000 0.79170  0.68550  0.35276  Biso   1.000  C
  C15      1.0000 0.82740  0.75670  0.38604  Biso   1.000  C
  C16      1.0000 0.82780  0.73100  0.42865  Biso   1.000  C
  C17      1.0000 0.89990  0.91630  0.40662  Biso   1.000  C
  C18      1.0000 0.33720  0.66644  0.66439  Biso   1.000  C
  C19      1.0000 0.18060  0.82740  0.55986  Biso   1.000  C
  C20      1.0000 0.86480  0.80075  0.45866  Biso   1.000  C
  C21      1.0000 0.34280  0.94350  0.82827  Biso   1.000  C
  C22      1.0000 0.66380  0.96077  0.93411  Biso   1.000  C
  C23      1.0000 0.36050  0.64820  0.12551  Biso   1.000  C
  C24      1.0000 0.29170  0.81450  0.14724  Biso   1.000  C
  C25      1.0000 0.32740  0.74330  0.11396  Biso   1.000  C
  C26      1.0000 0.32780  0.76900  0.07135  Biso   1.000  C
  C27      1.0000 0.39990  0.58370  0.09338  Biso   1.000  C
  C28      1.0000 0.83720  0.83356  0.83561  Biso   1.000  C
  C29      1.0000 0.68060  0.67260  0.94014  Biso   1.000  C
  C30      1.0000 0.36480  0.69925  0.04134  Biso   1.000  C
  C31      1.0000 0.15720  0.44350  0.17173  Biso   1.000  C
  C32      1.0000 0.83620  0.46077  0.06589  Biso   1.000  C
  C33      1.0000 0.13950  0.14820  0.87449  Biso   1.000  C
  C34      1.0000 0.20830  0.31450  0.85276  Biso   1.000  C
  C35      1.0000 0.17260  0.24330  0.88604  Biso   1.000  C
  C36      1.0000 0.17220  0.26900  0.92865  Biso   1.000  C
  C37      1.0000 0.10010  0.08370  0.90662  Biso   1.000  C
  C38      1.0000 0.66280  0.33356  0.16439  Biso   1.000  C
  C39      1.0000 0.81940  0.17260  0.05986  Biso   1.000  C
  C40      1.0000 0.13520  0.19925  0.95866  Biso   1.000  C
  C41      1.0000 0.34280  0.94350  0.67173  Biso   1.000  C
  C42      1.0000 0.66380  0.96077  0.56589  Biso   1.000  C
  C43      1.0000 0.36050  0.64820  0.37449  Biso   1.000  C
  C44      1.0000 0.29170  0.81450  0.35276  Biso   1.000  C
  C45      1.0000 0.32740  0.74330  0.38604  Biso   1.000  C
  C46      1.0000 0.32780  0.76900  0.42865  Biso   1.000  C
  C47      1.0000 0.39990  0.58370  0.40662  Biso   1.000  C
  C48      1.0000 0.83720  0.83356  0.66439  Biso   1.000  C
  C49      1.0000 0.68060  0.67260  0.55986  Biso   1.000  C
  C50      1.0000 0.36480  0.69925  0.45866  Biso   1.000  C
  C51      1.0000 0.15720  0.44350  0.32827  Biso   1.000  C
  C52      1.0000 0.83620  0.46077  0.43411  Biso   1.000  C
  C53      1.0000 0.13950  0.14820  0.62551  Biso   1.000  C
  C54      1.0000 0.20830  0.31450  0.64724  Biso   1.000  C
  C55      1.0000 0.17260  0.24330  0.61396  Biso   1.000  C
  C56      1.0000 0.17220  0.26900  0.57135  Biso   1.000  C
  C57      1.0000 0.10010  0.08370  0.59338  Biso   1.000  C
  C58      1.0000 0.66280  0.33356  0.33561  Biso   1.000  C
  C59      1.0000 0.81940  0.17260  0.44014  Biso   1.000  C
  C60      1.0000 0.13520  0.19925  0.54134  Biso   1.000  C
  C61      1.0000 0.65720  0.05650  0.17173  Biso   1.000  C
  C62      1.0000 0.33620  0.03923  0.06589  Biso   1.000  C
  C63      1.0000 0.63950  0.35180  0.87449  Biso   1.000  C
  C64      1.0000 0.70830  0.18550  0.85276  Biso   1.000  C
  C65      1.0000 0.67260  0.25670  0.88604  Biso   1.000  C
  C66      1.0000 0.67220  0.23100  0.92865  Biso   1.000  C
  C67      1.0000 0.60010  0.41630  0.90662  Biso   1.000  C
  C68      1.0000 0.16280  0.16644  0.16439  Biso   1.000  C
  C69      1.0000 0.31940  0.32740  0.05986  Biso   1.000  C
  C70      1.0000 0.63520  0.30075  0.95866  Biso   1.000  C
  C71      1.0000 0.84280  0.55650  0.82827  Biso   1.000  C
  C72      1.0000 0.16380  0.53923  0.93411  Biso   1.000  C
  C73      1.0000 0.86050  0.85180  0.12551  Biso   1.000  C
  C74      1.0000 0.79170  0.68550  0.14724  Biso   1.000  C
  C75      1.0000 0.82740  0.75670  0.11396  Biso   1.000  C
  C76      1.0000 0.82780  0.73100  0.07135  Biso   1.000  C
  C77      1.0000 0.89990  0.91630  0.09338  Biso   1.000  C
  C78      1.0000 0.33720  0.66644  0.83561  Biso   1.000  C
  C79      1.0000 0.18060  0.82740  0.94014  Biso   1.000  C
  C80      1.0000 0.86480  0.80075  0.04134  Biso   1.000  C
  N1       1.0000 0.75080  0.05560  0.29984  Biso   1.000  N
  N2       1.0000 0.37020  0.37895  0.46571  Biso   1.000  N
  N3       1.0000 0.73670  0.13090  0.67349  Biso   1.000  N
  N4       1.0000 0.59680  0.39247  0.55181  Biso   1.000  N
  N5       1.0000 0.23530  0.02769  0.46067  Biso   1.000  N
  N6       1.0000 0.12090  0.13005  0.30460  Biso   1.000  N
  N7       1.0000 0.74920  0.55560  0.70016  Biso   1.000  N
  N8       1.0000 0.12980  0.87895  0.53429  Biso   1.000  N
  N9       1.0000 0.76330  0.63090  0.32651  Biso   1.000  N
  N10      1.0000 0.90320  0.89247  0.44819  Biso   1.000  N
  N11      1.0000 0.26470  0.52769  0.53933  Biso   1.000  N
  N12      1.0000 0.37910  0.63005  0.69540  Biso   1.000  N
  N13      1.0000 0.24920  0.94440  0.79984  Biso   1.000  N
  N14      1.0000 0.62980  0.62105  0.96571  Biso   1.000  N
  N15      1.0000 0.26330  0.86910  0.17349  Biso   1.000  N
  N16      1.0000 0.40320  0.60753  0.05181  Biso   1.000  N
  N17      1.0000 0.76470  0.97231  0.96067  Biso   1.000  N
  N18      1.0000 0.87910  0.86995  0.80460  Biso   1.000  N
  N19      1.0000 0.25080  0.44440  0.20016  Biso   1.000  N
  N20      1.0000 0.87020  0.12105  0.03429  Biso   1.000  N
  N21      1.0000 0.23670  0.36910  0.82651  Biso   1.000  N
  N22      1.0000 0.09680  0.10753  0.94819  Biso   1.000  N
  N23      1.0000 0.73530  0.47231  0.03933  Biso   1.000  N
  N24      1.0000 0.62090  0.36995  0.19540  Biso   1.000  N
  N25      1.0000 0.24920  0.94440  0.70016  Biso   1.000  N
  N26      1.0000 0.62980  0.62105  0.53429  Biso   1.000  N
  N27      1.0000 0.26330  0.86910  0.32651  Biso   1.000  N
  N28      1.0000 0.40320  0.60753  0.44819  Biso   1.000  N
  N29      1.0000 0.76470  0.97231  0.53933  Biso   1.000  N
  N30      1.0000 0.87910  0.86995  0.69540  Biso   1.000  N
  N31      1.0000 0.25080  0.44440  0.29984  Biso   1.000  N
  N32      1.0000 0.87020  0.12105  0.46571  Biso   1.000  N
  N33      1.0000 0.23670  0.36910  0.67349  Biso   1.000  N
  N34      1.0000 0.09680  0.10753  0.55181  Biso   1.000  N
  N35      1.0000 0.73530  0.47231  0.46067  Biso   1.000  N
  N36      1.0000 0.62090  0.36995  0.30460  Biso   1.000  N
  N37      1.0000 0.75080  0.05560  0.20016  Biso   1.000  N
  N38      1.0000 0.37020  0.37895  0.03429  Biso   1.000  N
  N39      1.0000 0.73670  0.13090  0.82651  Biso   1.000  N
  N40      1.0000 0.59680  0.39247  0.94819  Biso   1.000  N
  N41      1.0000 0.23530  0.02769  0.03933  Biso   1.000  N
  N42      1.0000 0.12090  0.13005  0.19540  Biso   1.000  N
  N43      1.0000 0.74920  0.55560  0.79984  Biso   1.000  N
  N44      1.0000 0.12980  0.87895  0.96571  Biso   1.000  N
  N45      1.0000 0.76330  0.63090  0.17349  Biso   1.000  N
  N46      1.0000 0.90320  0.89247  0.05181  Biso   1.000  N
  N47      1.0000 0.26470  0.52769  0.96067  Biso   1.000  N
  N48      1.0000 0.37910  0.63005  0.80460  Biso   1.000  N
  O1       1.0000 0.07510  0.94460  0.25000  Biso   1.000  O
  O2       1.0000 0.88590  0.24450  0.25000  Biso   1.000  O
  O3       1.0000 0.42490  0.44460  0.75000  Biso   1.000  O
  O4       1.0000 0.61410  0.74450  0.75000  Biso   1.000  O
  O5       1.0000 0.92490  0.05540  0.75000  Biso   1.000  O
  O6       1.0000 0.11410  0.75550  0.75000  Biso   1.000  O
  O7       1.0000 0.57510  0.55540  0.25000  Biso   1.000  O
  O8       1.0000 0.38590  0.25550  0.25000  Biso   1.000  O
