data_image0
_cell_length_a       14.4979
_cell_length_b       15.4716
_cell_length_c       17.5125
_cell_angle_alpha    90
_cell_angle_beta     90
_cell_angle_gamma    90

_symmetry_space_group_name_H-M    P 1
_symmetry_int_tables_number       1

loop_
  _symmetry_equiv_pos_as_xyz
  'x, y, z'

loop_
  _atom_site_label
  _atom_site_occupancy
  _atom_site_fract_x
  _atom_site_fract_y
  _atom_site_fract_z
  _atom_site_thermal_displace_type
  _atom_site_B_iso_or_equiv
  _atom_site_type_symbol
  Cd1      1.0000 0.87214  0.77297  0.95928  Biso   1.000  Cd
  Cd2      1.0000 0.93002  0.22697  0.42415  Biso   1.000  Cd
  Cd3      1.0000 0.12786  0.27297  0.04072  Biso   1.000  Cd
  Cd4      1.0000 0.06998  0.72697  0.57585  Biso   1.000  Cd
  Cd5      1.0000 0.37214  0.77297  0.54072  Biso   1.000  Cd
  Cd6      1.0000 0.43002  0.22697  0.07585  Biso   1.000  Cd
  Cd7      1.0000 0.62786  0.27297  0.45928  Biso   1.000  Cd
  Cd8      1.0000 0.56998  0.72697  0.92415  Biso   1.000  Cd
  H1       1.0000 0.87870  0.35500  0.51900  Biso   1.000  H
  H2       1.0000 0.96900  0.34100  0.54600  Biso   1.000  H
  H3       1.0000 0.11920  0.63680  0.83520  Biso   1.000  H
  H4       1.0000 0.11250  0.56720  0.98550  Biso   1.000  H
  H5       1.0000 0.05780  0.52970  0.91560  Biso   1.000  H
  H6       1.0000 0.19390  0.49030  0.85580  Biso   1.000  H
  H7       1.0000 0.33800  0.50970  0.91070  Biso   1.000  H
  H8       1.0000 0.29390  0.55380  0.98260  Biso   1.000  H
  H9       1.0000 0.29020  0.62350  0.83320  Biso   1.000  H
  H10      1.0000 0.21310  0.70280  0.96420  Biso   1.000  H
  H11      1.0000 0.21530  0.74520  0.88280  Biso   1.000  H
  H12      1.0000 0.78340  0.62390  0.84770  Biso   1.000  H
  H13      1.0000 0.89100  0.74090  0.14330  Biso   1.000  H
  H14      1.0000 0.89900  0.63660  0.23570  Biso   1.000  H
  H15      1.0000 0.86110  0.46000  0.07280  Biso   1.000  H
  H16      1.0000 0.85420  0.57030  0.98510  Biso   1.000  H
  H17      1.0000 0.93720  0.26390  0.24610  Biso   1.000  H
  H18      1.0000 0.91860  0.36630  0.15240  Biso   1.000  H
  H19      1.0000 0.84680  0.53510  0.31640  Biso   1.000  H
  H20      1.0000 0.86310  0.42600  0.40220  Biso   1.000  H
  H21      1.0000 0.88260  0.97060  0.90190  Biso   1.000  H
  H22      1.0000 0.89100  0.05940  0.79760  Biso   1.000  H
  H23      1.0000 0.85150  0.85120  0.66550  Biso   1.000  H
  H24      1.0000 0.84530  0.76900  0.77390  Biso   1.000  H
  H25      1.0000 0.85510  0.21800  0.59460  Biso   1.000  H
  H26      1.0000 0.83660  0.13290  0.69880  Biso   1.000  H
  H27      1.0000 0.93060  0.93340  0.57510  Biso   1.000  H
  H28      1.0000 0.94550  0.02670  0.47440  Biso   1.000  H
  H29      1.0000 0.12130  0.85500  0.48100  Biso   1.000  H
  H30      1.0000 0.03100  0.84100  0.45400  Biso   1.000  H
  H31      1.0000 0.88080  0.13680  0.16480  Biso   1.000  H
  H32      1.0000 0.88750  0.06720  0.01450  Biso   1.000  H
  H33      1.0000 0.94220  0.02970  0.08440  Biso   1.000  H
  H34      1.0000 0.80610  0.99030  0.14420  Biso   1.000  H
  H35      1.0000 0.66200  0.00970  0.08930  Biso   1.000  H
  H36      1.0000 0.70610  0.05380  0.01740  Biso   1.000  H
  H37      1.0000 0.70980  0.12350  0.16680  Biso   1.000  H
  H38      1.0000 0.78690  0.20280  0.03580  Biso   1.000  H
  H39      1.0000 0.78470  0.24520  0.11720  Biso   1.000  H
  H40      1.0000 0.21660  0.12390  0.15230  Biso   1.000  H
  H41      1.0000 0.10900  0.24090  0.85670  Biso   1.000  H
  H42      1.0000 0.10100  0.13660  0.76430  Biso   1.000  H
  H43      1.0000 0.13890  0.96000  0.92720  Biso   1.000  H
  H44      1.0000 0.14580  0.07030  0.01490  Biso   1.000  H
  H45      1.0000 0.06280  0.76390  0.75390  Biso   1.000  H
  H46      1.0000 0.08140  0.86630  0.84760  Biso   1.000  H
  H47      1.0000 0.15320  0.03510  0.68360  Biso   1.000  H
  H48      1.0000 0.13690  0.92600  0.59780  Biso   1.000  H
  H49      1.0000 0.11740  0.47060  0.09810  Biso   1.000  H
  H50      1.0000 0.10900  0.55940  0.20240  Biso   1.000  H
  H51      1.0000 0.14850  0.35120  0.33450  Biso   1.000  H
  H52      1.0000 0.15470  0.26900  0.22610  Biso   1.000  H
  H53      1.0000 0.14490  0.71800  0.40540  Biso   1.000  H
  H54      1.0000 0.16340  0.63290  0.30120  Biso   1.000  H
  H55      1.0000 0.06940  0.43340  0.42490  Biso   1.000  H
  H56      1.0000 0.05450  0.52670  0.52560  Biso   1.000  H
  H57      1.0000 0.37870  0.35500  0.98100  Biso   1.000  H
  H58      1.0000 0.46900  0.34100  0.95400  Biso   1.000  H
  H59      1.0000 0.61920  0.63680  0.66480  Biso   1.000  H
  H60      1.0000 0.61250  0.56720  0.51450  Biso   1.000  H
  H61      1.0000 0.55780  0.52970  0.58440  Biso   1.000  H
  H62      1.0000 0.69390  0.49030  0.64420  Biso   1.000  H
  H63      1.0000 0.83800  0.50970  0.58930  Biso   1.000  H
  H64      1.0000 0.79390  0.55380  0.51740  Biso   1.000  H
  H65      1.0000 0.79020  0.62350  0.66680  Biso   1.000  H
  H66      1.0000 0.71310  0.70280  0.53580  Biso   1.000  H
  H67      1.0000 0.71530  0.74520  0.61720  Biso   1.000  H
  H68      1.0000 0.28340  0.62390  0.65230  Biso   1.000  H
  H69      1.0000 0.39100  0.74090  0.35670  Biso   1.000  H
  H70      1.0000 0.39900  0.63660  0.26430  Biso   1.000  H
  H71      1.0000 0.36110  0.46000  0.42720  Biso   1.000  H
  H72      1.0000 0.35420  0.57030  0.51490  Biso   1.000  H
  H73      1.0000 0.43720  0.26390  0.25390  Biso   1.000  H
  H74      1.0000 0.41860  0.36630  0.34760  Biso   1.000  H
  H75      1.0000 0.34680  0.53510  0.18360  Biso   1.000  H
  H76      1.0000 0.36310  0.42600  0.09780  Biso   1.000  H
  H77      1.0000 0.38260  0.97060  0.59810  Biso   1.000  H
  H78      1.0000 0.39100  0.05940  0.70240  Biso   1.000  H
  H79      1.0000 0.35150  0.85120  0.83450  Biso   1.000  H
  H80      1.0000 0.34530  0.76900  0.72610  Biso   1.000  H
  H81      1.0000 0.35510  0.21800  0.90540  Biso   1.000  H
  H82      1.0000 0.33660  0.13290  0.80120  Biso   1.000  H
  H83      1.0000 0.43060  0.93340  0.92490  Biso   1.000  H
  H84      1.0000 0.44550  0.02670  0.02560  Biso   1.000  H
  H85      1.0000 0.62130  0.85500  0.01900  Biso   1.000  H
  H86      1.0000 0.53100  0.84100  0.04600  Biso   1.000  H
  H87      1.0000 0.38080  0.13680  0.33520  Biso   1.000  H
  H88      1.0000 0.38750  0.06720  0.48550  Biso   1.000  H
  H89      1.0000 0.44220  0.02970  0.41560  Biso   1.000  H
  H90      1.0000 0.30610  0.99030  0.35580  Biso   1.000  H
  H91      1.0000 0.16200  0.00970  0.41070  Biso   1.000  H
  H92      1.0000 0.20610  0.05380  0.48260  Biso   1.000  H
  H93      1.0000 0.20980  0.12350  0.33320  Biso   1.000  H
  H94      1.0000 0.28690  0.20280  0.46420  Biso   1.000  H
  H95      1.0000 0.28470  0.24520  0.38280  Biso   1.000  H
  H96      1.0000 0.71660  0.12390  0.34770  Biso   1.000  H
  H97      1.0000 0.60900  0.24090  0.64330  Biso   1.000  H
  H98      1.0000 0.60100  0.13660  0.73570  Biso   1.000  H
  H99      1.0000 0.63890  0.96000  0.57280  Biso   1.000  H
  H100     1.0000 0.64580  0.07030  0.48510  Biso   1.000  H
  H101     1.0000 0.56280  0.76390  0.74610  Biso   1.000  H
  H102     1.0000 0.58140  0.86630  0.65240  Biso   1.000  H
  H103     1.0000 0.65320  0.03510  0.81640  Biso   1.000  H
  H104     1.0000 0.63690  0.92600  0.90220  Biso   1.000  H
  H105     1.0000 0.61740  0.47060  0.40190  Biso   1.000  H
  H106     1.0000 0.60900  0.55940  0.29760  Biso   1.000  H
  H107     1.0000 0.64850  0.35120  0.16550  Biso   1.000  H
  H108     1.0000 0.65470  0.26900  0.27390  Biso   1.000  H
  H109     1.0000 0.64490  0.71800  0.09460  Biso   1.000  H
  H110     1.0000 0.66340  0.63290  0.19880  Biso   1.000  H
  H111     1.0000 0.56940  0.43340  0.07510  Biso   1.000  H
  H112     1.0000 0.55450  0.52670  0.97440  Biso   1.000  H
  C1       1.0000 0.12050  0.64680  0.89040  Biso   1.000  C
  C2       1.0000 0.11450  0.55840  0.93070  Biso   1.000  C
  C3       1.0000 0.19610  0.50110  0.91090  Biso   1.000  C
  C4       1.0000 0.28750  0.54590  0.92790  Biso   1.000  C
  C5       1.0000 0.29330  0.63370  0.88830  Biso   1.000  C
  C6       1.0000 0.21120  0.69070  0.90990  Biso   1.000  C
  C7       1.0000 0.03580  0.69860  0.91150  Biso   1.000  C
  C8       1.0000 0.18600  0.41360  0.95110  Biso   1.000  C
  C9       1.0000 0.38560  0.67710  0.90520  Biso   1.000  C
  C10      1.0000 0.73040  0.65060  0.86620  Biso   1.000  C
  C11      1.0000 0.88490  0.68340  0.12870  Biso   1.000  C
  C12      1.0000 0.88960  0.62080  0.18510  Biso   1.000  C
  C13      1.0000 0.88030  0.53500  0.16550  Biso   1.000  C
  C14      1.0000 0.86730  0.51700  0.08900  Biso   1.000  C
  C15      1.0000 0.86340  0.58370  0.03640  Biso   1.000  C
  C16      1.0000 0.91860  0.31920  0.26010  Biso   1.000  C
  C17      1.0000 0.90900  0.38100  0.20330  Biso   1.000  C
  C18      1.0000 0.88490  0.46450  0.22300  Biso   1.000  C
  C19      1.0000 0.86580  0.48060  0.30030  Biso   1.000  C
  C20      1.0000 0.87590  0.41450  0.35120  Biso   1.000  C
  C21      1.0000 0.87650  0.94630  0.85360  Biso   1.000  C
  C22      1.0000 0.88190  0.00040  0.79100  Biso   1.000  C
  C23      1.0000 0.87350  0.96580  0.71790  Biso   1.000  C
  C24      1.0000 0.85860  0.87730  0.71290  Biso   1.000  C
  C25      1.0000 0.85450  0.82820  0.77870  Biso   1.000  C
  C26      1.0000 0.87160  0.16000  0.59120  Biso   1.000  C
  C27      1.0000 0.85980  0.10930  0.65380  Biso   1.000  C
  C28      1.0000 0.88220  0.02240  0.65060  Biso   1.000  C
  C29      1.0000 0.91520  0.99130  0.58090  Biso   1.000  C
  C30      1.0000 0.92460  0.04850  0.52080  Biso   1.000  C
  C31      1.0000 0.87950  0.14680  0.10960  Biso   1.000  C
  C32      1.0000 0.88550  0.05840  0.06930  Biso   1.000  C
  C33      1.0000 0.80390  0.00110  0.08910  Biso   1.000  C
  C34      1.0000 0.71250  0.04590  0.07210  Biso   1.000  C
  C35      1.0000 0.70670  0.13370  0.11170  Biso   1.000  C
  C36      1.0000 0.78880  0.19070  0.09010  Biso   1.000  C
  C37      1.0000 0.96420  0.19860  0.08850  Biso   1.000  C
  C38      1.0000 0.81400  0.91360  0.04890  Biso   1.000  C
  C39      1.0000 0.61440  0.17710  0.09480  Biso   1.000  C
  C40      1.0000 0.26960  0.15060  0.13380  Biso   1.000  C
  C41      1.0000 0.11510  0.18340  0.87130  Biso   1.000  C
  C42      1.0000 0.11040  0.12080  0.81490  Biso   1.000  C
  C43      1.0000 0.11970  0.03500  0.83450  Biso   1.000  C
  C44      1.0000 0.13270  0.01700  0.91100  Biso   1.000  C
  C45      1.0000 0.13660  0.08370  0.96360  Biso   1.000  C
  C46      1.0000 0.08140  0.81920  0.73990  Biso   1.000  C
  C47      1.0000 0.09100  0.88100  0.79670  Biso   1.000  C
  C48      1.0000 0.11510  0.96450  0.77700  Biso   1.000  C
  C49      1.0000 0.13420  0.98060  0.69970  Biso   1.000  C
  C50      1.0000 0.12410  0.91450  0.64880  Biso   1.000  C
  C51      1.0000 0.12350  0.44630  0.14640  Biso   1.000  C
  C52      1.0000 0.11810  0.50040  0.20900  Biso   1.000  C
  C53      1.0000 0.12650  0.46580  0.28210  Biso   1.000  C
  C54      1.0000 0.14140  0.37730  0.28710  Biso   1.000  C
  C55      1.0000 0.14550  0.32820  0.22130  Biso   1.000  C
  C56      1.0000 0.12840  0.66000  0.40880  Biso   1.000  C
  C57      1.0000 0.14020  0.60930  0.34620  Biso   1.000  C
  C58      1.0000 0.11780  0.52240  0.34940  Biso   1.000  C
  C59      1.0000 0.08480  0.49130  0.41910  Biso   1.000  C
  C60      1.0000 0.07540  0.54850  0.47920  Biso   1.000  C
  C61      1.0000 0.62050  0.64680  0.60960  Biso   1.000  C
  C62      1.0000 0.61450  0.55840  0.56930  Biso   1.000  C
  C63      1.0000 0.69610  0.50110  0.58910  Biso   1.000  C
  C64      1.0000 0.78750  0.54590  0.57210  Biso   1.000  C
  C65      1.0000 0.79330  0.63370  0.61170  Biso   1.000  C
  C66      1.0000 0.71120  0.69070  0.59010  Biso   1.000  C
  C67      1.0000 0.53580  0.69860  0.58850  Biso   1.000  C
  C68      1.0000 0.68600  0.41360  0.54890  Biso   1.000  C
  C69      1.0000 0.88560  0.67710  0.59480  Biso   1.000  C
  C70      1.0000 0.23040  0.65060  0.63380  Biso   1.000  C
  C71      1.0000 0.38490  0.68340  0.37130  Biso   1.000  C
  C72      1.0000 0.38960  0.62080  0.31490  Biso   1.000  C
  C73      1.0000 0.38030  0.53500  0.33450  Biso   1.000  C
  C74      1.0000 0.36730  0.51700  0.41100  Biso   1.000  C
  C75      1.0000 0.36340  0.58370  0.46360  Biso   1.000  C
  C76      1.0000 0.41860  0.31920  0.23990  Biso   1.000  C
  C77      1.0000 0.40900  0.38100  0.29670  Biso   1.000  C
  C78      1.0000 0.38490  0.46450  0.27700  Biso   1.000  C
  C79      1.0000 0.36580  0.48060  0.19970  Biso   1.000  C
  C80      1.0000 0.37590  0.41450  0.14880  Biso   1.000  C
  C81      1.0000 0.37650  0.94630  0.64640  Biso   1.000  C
  C82      1.0000 0.38190  0.00040  0.70900  Biso   1.000  C
  C83      1.0000 0.37350  0.96580  0.78210  Biso   1.000  C
  C84      1.0000 0.35860  0.87730  0.78710  Biso   1.000  C
  C85      1.0000 0.35450  0.82820  0.72130  Biso   1.000  C
  C86      1.0000 0.37160  0.16000  0.90880  Biso   1.000  C
  C87      1.0000 0.35980  0.10930  0.84620  Biso   1.000  C
  C88      1.0000 0.38220  0.02240  0.84940  Biso   1.000  C
  C89      1.0000 0.41520  0.99130  0.91910  Biso   1.000  C
  C90      1.0000 0.42460  0.04850  0.97920  Biso   1.000  C
  C91      1.0000 0.37950  0.14680  0.39040  Biso   1.000  C
  C92      1.0000 0.38550  0.05840  0.43070  Biso   1.000  C
  C93      1.0000 0.30390  0.00110  0.41090  Biso   1.000  C
  C94      1.0000 0.21250  0.04590  0.42790  Biso   1.000  C
  C95      1.0000 0.20670  0.13370  0.38830  Biso   1.000  C
  C96      1.0000 0.28880  0.19070  0.40990  Biso   1.000  C
  C97      1.0000 0.46420  0.19860  0.41150  Biso   1.000  C
  C98      1.0000 0.31400  0.91360  0.45110  Biso   1.000  C
  C99      1.0000 0.11440  0.17710  0.40520  Biso   1.000  C
  C100     1.0000 0.76960  0.15060  0.36620  Biso   1.000  C
  C101     1.0000 0.61510  0.18340  0.62870  Biso   1.000  C
  C102     1.0000 0.61040  0.12080  0.68510  Biso   1.000  C
  C103     1.0000 0.61970  0.03500  0.66550  Biso   1.000  C
  C104     1.0000 0.63270  0.01700  0.58900  Biso   1.000  C
  C105     1.0000 0.63660  0.08370  0.53640  Biso   1.000  C
  C106     1.0000 0.58140  0.81920  0.76010  Biso   1.000  C
  C107     1.0000 0.59100  0.88100  0.70330  Biso   1.000  C
  C108     1.0000 0.61510  0.96450  0.72300  Biso   1.000  C
  C109     1.0000 0.63420  0.98060  0.80030  Biso   1.000  C
  C110     1.0000 0.62410  0.91450  0.85120  Biso   1.000  C
  C111     1.0000 0.62350  0.44630  0.35360  Biso   1.000  C
  C112     1.0000 0.61810  0.50040  0.29100  Biso   1.000  C
  C113     1.0000 0.62650  0.46580  0.21790  Biso   1.000  C
  C114     1.0000 0.64140  0.37730  0.21290  Biso   1.000  C
  C115     1.0000 0.64550  0.32820  0.27870  Biso   1.000  C
  C116     1.0000 0.62840  0.66000  0.09120  Biso   1.000  C
  C117     1.0000 0.64020  0.60930  0.15380  Biso   1.000  C
  C118     1.0000 0.61780  0.52240  0.15060  Biso   1.000  C
  C119     1.0000 0.58480  0.49130  0.08090  Biso   1.000  C
  C120     1.0000 0.57540  0.54850  0.02080  Biso   1.000  C
  N1       1.0000 0.87250  0.66680  0.05640  Biso   1.000  N
  N2       1.0000 0.90280  0.33480  0.33350  Biso   1.000  N
  N3       1.0000 0.86300  0.86100  0.84880  Biso   1.000  N
  N4       1.0000 0.90600  0.13100  0.52450  Biso   1.000  N
  N5       1.0000 0.12750  0.16680  0.94360  Biso   1.000  N
  N6       1.0000 0.09720  0.83480  0.66650  Biso   1.000  N
  N7       1.0000 0.13700  0.36100  0.15120  Biso   1.000  N
  N8       1.0000 0.09400  0.63100  0.47550  Biso   1.000  N
  N9       1.0000 0.37250  0.66680  0.44360  Biso   1.000  N
  N10      1.0000 0.40280  0.33480  0.16650  Biso   1.000  N
  N11      1.0000 0.36300  0.86100  0.65120  Biso   1.000  N
  N12      1.0000 0.40600  0.13100  0.97550  Biso   1.000  N
  N13      1.0000 0.62750  0.16680  0.55640  Biso   1.000  N
  N14      1.0000 0.59720  0.83480  0.83350  Biso   1.000  N
  N15      1.0000 0.63700  0.36100  0.34880  Biso   1.000  N
  N16      1.0000 0.59400  0.63100  0.02450  Biso   1.000  N
  O1       1.0000 0.95940  0.67400  0.88547  Biso   1.000  O
  O2       1.0000 0.04220  0.76230  0.95510  Biso   1.000  O
  O3       1.0000 0.10840  0.38630  0.96430  Biso   1.000  O
  O4       1.0000 0.25390  0.37290  0.97420  Biso   1.000  O
  O5       1.0000 0.44970  0.66790  0.85950  Biso   1.000  O
  O6       1.0000 0.39770  0.71790  0.96380  Biso   1.000  O
  O7       1.0000 0.73960  0.71010  0.91401  Biso   1.000  O
  O8       1.0000 0.65570  0.62540  0.84240  Biso   1.000  O
  O9       1.0000 0.93320  0.34040  0.50890  Biso   1.000  O
  O10      1.0000 0.04060  0.17400  0.11453  Biso   1.000  O
  O11      1.0000 0.95780  0.26230  0.04490  Biso   1.000  O
  O12      1.0000 0.89160  0.88630  0.03570  Biso   1.000  O
  O13      1.0000 0.74610  0.87290  0.02580  Biso   1.000  O
  O14      1.0000 0.55030  0.16790  0.14050  Biso   1.000  O
  O15      1.0000 0.60230  0.21790  0.03620  Biso   1.000  O
  O16      1.0000 0.26040  0.21010  0.08599  Biso   1.000  O
  O17      1.0000 0.34430  0.12540  0.15760  Biso   1.000  O
  O18      1.0000 0.06680  0.84040  0.49110  Biso   1.000  O
  O19      1.0000 0.45940  0.67400  0.61453  Biso   1.000  O
  O20      1.0000 0.54220  0.76230  0.54490  Biso   1.000  O
  O21      1.0000 0.60840  0.38630  0.53570  Biso   1.000  O
  O22      1.0000 0.75390  0.37290  0.52580  Biso   1.000  O
  O23      1.0000 0.94970  0.66790  0.64050  Biso   1.000  O
  O24      1.0000 0.89770  0.71790  0.53620  Biso   1.000  O
  O25      1.0000 0.23960  0.71010  0.58599  Biso   1.000  O
  O26      1.0000 0.15570  0.62540  0.65760  Biso   1.000  O
  O27      1.0000 0.43320  0.34040  0.99110  Biso   1.000  O
  O28      1.0000 0.54060  0.17400  0.38547  Biso   1.000  O
  O29      1.0000 0.45780  0.26230  0.45510  Biso   1.000  O
  O30      1.0000 0.39160  0.88630  0.46430  Biso   1.000  O
  O31      1.0000 0.24610  0.87290  0.47420  Biso   1.000  O
  O32      1.0000 0.05030  0.16790  0.35950  Biso   1.000  O
  O33      1.0000 0.10230  0.21790  0.46380  Biso   1.000  O
  O34      1.0000 0.76040  0.21010  0.41401  Biso   1.000  O
  O35      1.0000 0.84430  0.12540  0.34240  Biso   1.000  O
  O36      1.0000 0.56680  0.84040  0.00890  Biso   1.000  O
