data_image0
_cell_length_a       13.327
_cell_length_b       14.151
_cell_length_c       26.532
_cell_angle_alpha    90
_cell_angle_beta     101.512
_cell_angle_gamma    90

_symmetry_space_group_name_H-M    P 1
_symmetry_int_tables_number       1

loop_
  _symmetry_equiv_pos_as_xyz
  'x, y, z'

loop_
  _atom_site_label
  _atom_site_occupancy
  _atom_site_fract_x
  _atom_site_fract_y
  _atom_site_fract_z
  _atom_site_thermal_displace_type
  _atom_site_B_iso_or_equiv
  _atom_site_type_symbol
  Co1      1.0000 0.01706  0.86675  0.26907  Biso   1.000  Co
  Co2      1.0000 0.01055  0.11352  0.24393  Biso   1.000  Co
  Co3      1.0000 0.98294  0.36675  0.23093  Biso   1.000  Co
  Co4      1.0000 0.98945  0.61352  0.25607  Biso   1.000  Co
  Co5      1.0000 0.98294  0.13325  0.73093  Biso   1.000  Co
  Co6      1.0000 0.98945  0.88648  0.75607  Biso   1.000  Co
  Co7      1.0000 0.01706  0.63325  0.76907  Biso   1.000  Co
  Co8      1.0000 0.01055  0.38648  0.74393  Biso   1.000  Co
  H1       1.0000 0.26980  0.85930  0.29550  Biso   1.000  H
  H2       1.0000 0.24220  0.11890  0.23280  Biso   1.000  H
  H3       1.0000 0.79380  0.86520  0.29450  Biso   1.000  H
  H4       1.0000 0.76550  0.12260  0.22980  Biso   1.000  H
  H5       1.0000 0.61860  0.86470  0.29900  Biso   1.000  H
  H6       1.0000 0.44690  0.87090  0.30280  Biso   1.000  H
  H7       1.0000 0.41500  0.11740  0.22650  Biso   1.000  H
  H8       1.0000 0.58930  0.12210  0.22970  Biso   1.000  H
  H9       1.0000 0.97520  0.58430  0.37630  Biso   1.000  H
  H10      1.0000 0.01700  0.86260  0.38900  Biso   1.000  H
  H11      1.0000 0.92870  0.85630  0.45730  Biso   1.000  H
  H12      1.0000 0.92430  0.86460  0.54590  Biso   1.000  H
  H13      1.0000 0.01560  0.59330  0.56210  Biso   1.000  H
  H14      1.0000 0.03070  0.58790  0.47510  Biso   1.000  H
  H15      1.0000 0.00700  0.60100  0.64990  Biso   1.000  H
  H16      1.0000 0.93070  0.87610  0.63190  Biso   1.000  H
  H17      1.0000 0.73020  0.35930  0.20450  Biso   1.000  H
  H18      1.0000 0.75780  0.61890  0.26720  Biso   1.000  H
  H19      1.0000 0.20620  0.36520  0.20550  Biso   1.000  H
  H20      1.0000 0.23450  0.62260  0.27020  Biso   1.000  H
  H21      1.0000 0.38140  0.36470  0.20100  Biso   1.000  H
  H22      1.0000 0.55310  0.37090  0.19720  Biso   1.000  H
  H23      1.0000 0.58500  0.61740  0.27350  Biso   1.000  H
  H24      1.0000 0.41070  0.62210  0.27030  Biso   1.000  H
  H25      1.0000 0.02480  0.08430  0.12370  Biso   1.000  H
  H26      1.0000 0.98300  0.36260  0.11100  Biso   1.000  H
  H27      1.0000 0.07130  0.35630  0.04270  Biso   1.000  H
  H28      1.0000 0.07570  0.36460  0.95410  Biso   1.000  H
  H29      1.0000 0.98440  0.09330  0.93790  Biso   1.000  H
  H30      1.0000 0.96930  0.08790  0.02490  Biso   1.000  H
  H31      1.0000 0.99300  0.10100  0.85010  Biso   1.000  H
  H32      1.0000 0.06930  0.37610  0.86810  Biso   1.000  H
  H33      1.0000 0.73020  0.14070  0.70450  Biso   1.000  H
  H34      1.0000 0.75780  0.88110  0.76720  Biso   1.000  H
  H35      1.0000 0.20620  0.13480  0.70550  Biso   1.000  H
  H36      1.0000 0.23450  0.87740  0.77020  Biso   1.000  H
  H37      1.0000 0.38140  0.13530  0.70100  Biso   1.000  H
  H38      1.0000 0.55310  0.12910  0.69720  Biso   1.000  H
  H39      1.0000 0.58500  0.88260  0.77350  Biso   1.000  H
  H40      1.0000 0.41070  0.87790  0.77030  Biso   1.000  H
  H41      1.0000 0.02480  0.41570  0.62370  Biso   1.000  H
  H42      1.0000 0.98300  0.13740  0.61100  Biso   1.000  H
  H43      1.0000 0.07130  0.14370  0.54270  Biso   1.000  H
  H44      1.0000 0.07570  0.13540  0.45410  Biso   1.000  H
  H45      1.0000 0.98440  0.40670  0.43790  Biso   1.000  H
  H46      1.0000 0.96930  0.41210  0.52490  Biso   1.000  H
  H47      1.0000 0.99300  0.39900  0.35010  Biso   1.000  H
  H48      1.0000 0.06930  0.12390  0.36810  Biso   1.000  H
  H49      1.0000 0.26980  0.64070  0.79550  Biso   1.000  H
  H50      1.0000 0.24220  0.38110  0.73280  Biso   1.000  H
  H51      1.0000 0.79380  0.63480  0.79450  Biso   1.000  H
  H52      1.0000 0.76550  0.37740  0.72980  Biso   1.000  H
  H53      1.0000 0.61860  0.63530  0.79900  Biso   1.000  H
  H54      1.0000 0.44690  0.62910  0.80280  Biso   1.000  H
  H55      1.0000 0.41500  0.38260  0.72650  Biso   1.000  H
  H56      1.0000 0.58930  0.37790  0.72970  Biso   1.000  H
  H57      1.0000 0.97520  0.91570  0.87630  Biso   1.000  H
  H58      1.0000 0.01700  0.63740  0.88900  Biso   1.000  H
  H59      1.0000 0.92870  0.64370  0.95730  Biso   1.000  H
  H60      1.0000 0.92430  0.63540  0.04590  Biso   1.000  H
  H61      1.0000 0.01560  0.90670  0.06210  Biso   1.000  H
  H62      1.0000 0.03070  0.91210  0.97510  Biso   1.000  H
  H63      1.0000 0.00700  0.89900  0.14990  Biso   1.000  H
  H64      1.0000 0.93070  0.62390  0.13190  Biso   1.000  H
  C1       1.0000 0.24280  0.91730  0.28050  Biso   1.000  C
  C2       1.0000 0.29930  0.99200  0.26350  Biso   1.000  C
  C3       1.0000 0.22760  0.05950  0.24640  Biso   1.000  C
  C4       1.0000 0.80790  0.92270  0.27880  Biso   1.000  C
  C5       1.0000 0.73200  0.99390  0.26120  Biso   1.000  C
  C6       1.0000 0.79130  0.06340  0.24350  Biso   1.000  C
  C7       1.0000 0.62450  0.99350  0.26470  Biso   1.000  C
  C8       1.0000 0.57880  0.91800  0.28550  Biso   1.000  C
  C9       1.0000 0.47560  0.92110  0.28650  Biso   1.000  C
  C10      1.0000 0.41280  0.99320  0.26530  Biso   1.000  C
  C11      1.0000 0.45700  0.06740  0.24270  Biso   1.000  C
  C12      1.0000 0.56040  0.06910  0.24360  Biso   1.000  C
  C13      1.0000 0.98410  0.64880  0.36840  Biso   1.000  C
  C14      1.0000 0.98870  0.72360  0.40300  Biso   1.000  C
  C15      1.0000 0.00720  0.80040  0.37540  Biso   1.000  C
  C16      1.0000 0.98140  0.72270  0.45890  Biso   1.000  C
  C17      1.0000 0.94880  0.80320  0.47880  Biso   1.000  C
  C18      1.0000 0.94470  0.80760  0.53190  Biso   1.000  C
  C19      1.0000 0.96960  0.73200  0.56250  Biso   1.000  C
  C20      1.0000 0.00010  0.64770  0.54110  Biso   1.000  C
  C21      1.0000 0.00780  0.64380  0.48910  Biso   1.000  C
  C22      1.0000 0.99360  0.66540  0.65630  Biso   1.000  C
  C23      1.0000 0.97100  0.73860  0.61840  Biso   1.000  C
  C24      1.0000 0.95260  0.81630  0.64620  Biso   1.000  C
  C25      1.0000 0.75720  0.41730  0.21950  Biso   1.000  C
  C26      1.0000 0.70070  0.49200  0.23650  Biso   1.000  C
  C27      1.0000 0.77240  0.55950  0.25360  Biso   1.000  C
  C28      1.0000 0.19210  0.42270  0.22120  Biso   1.000  C
  C29      1.0000 0.26800  0.49390  0.23880  Biso   1.000  C
  C30      1.0000 0.20870  0.56340  0.25650  Biso   1.000  C
  C31      1.0000 0.37550  0.49350  0.23530  Biso   1.000  C
  C32      1.0000 0.42120  0.41800  0.21450  Biso   1.000  C
  C33      1.0000 0.52440  0.42110  0.21350  Biso   1.000  C
  C34      1.0000 0.58720  0.49320  0.23470  Biso   1.000  C
  C35      1.0000 0.54300  0.56740  0.25730  Biso   1.000  C
  C36      1.0000 0.43960  0.56910  0.25640  Biso   1.000  C
  C37      1.0000 0.01590  0.14880  0.13160  Biso   1.000  C
  C38      1.0000 0.01130  0.22360  0.09700  Biso   1.000  C
  C39      1.0000 0.99280  0.30040  0.12460  Biso   1.000  C
  C40      1.0000 0.01860  0.22270  0.04110  Biso   1.000  C
  C41      1.0000 0.05120  0.30320  0.02120  Biso   1.000  C
  C42      1.0000 0.05530  0.30760  0.96810  Biso   1.000  C
  C43      1.0000 0.03040  0.23200  0.93750  Biso   1.000  C
  C44      1.0000 0.99990  0.14770  0.95890  Biso   1.000  C
  C45      1.0000 0.99220  0.14380  0.01090  Biso   1.000  C
  C46      1.0000 0.00640  0.16540  0.84370  Biso   1.000  C
  C47      1.0000 0.02900  0.23860  0.88160  Biso   1.000  C
  C48      1.0000 0.04740  0.31630  0.85380  Biso   1.000  C
  C49      1.0000 0.75720  0.08270  0.71950  Biso   1.000  C
  C50      1.0000 0.70070  0.00800  0.73650  Biso   1.000  C
  C51      1.0000 0.77240  0.94050  0.75360  Biso   1.000  C
  C52      1.0000 0.19210  0.07730  0.72120  Biso   1.000  C
  C53      1.0000 0.26800  0.00610  0.73880  Biso   1.000  C
  C54      1.0000 0.20870  0.93660  0.75650  Biso   1.000  C
  C55      1.0000 0.37550  0.00650  0.73530  Biso   1.000  C
  C56      1.0000 0.42120  0.08200  0.71450  Biso   1.000  C
  C57      1.0000 0.52440  0.07890  0.71350  Biso   1.000  C
  C58      1.0000 0.58720  0.00680  0.73470  Biso   1.000  C
  C59      1.0000 0.54300  0.93260  0.75730  Biso   1.000  C
  C60      1.0000 0.43960  0.93090  0.75640  Biso   1.000  C
  C61      1.0000 0.01590  0.35120  0.63160  Biso   1.000  C
  C62      1.0000 0.01130  0.27640  0.59700  Biso   1.000  C
  C63      1.0000 0.99280  0.19960  0.62460  Biso   1.000  C
  C64      1.0000 0.01860  0.27730  0.54110  Biso   1.000  C
  C65      1.0000 0.05120  0.19680  0.52120  Biso   1.000  C
  C66      1.0000 0.05530  0.19240  0.46810  Biso   1.000  C
  C67      1.0000 0.03040  0.26800  0.43750  Biso   1.000  C
  C68      1.0000 0.99990  0.35230  0.45890  Biso   1.000  C
  C69      1.0000 0.99220  0.35620  0.51090  Biso   1.000  C
  C70      1.0000 0.00640  0.33460  0.34370  Biso   1.000  C
  C71      1.0000 0.02900  0.26140  0.38160  Biso   1.000  C
  C72      1.0000 0.04740  0.18370  0.35380  Biso   1.000  C
  C73      1.0000 0.24280  0.58270  0.78050  Biso   1.000  C
  C74      1.0000 0.29930  0.50800  0.76350  Biso   1.000  C
  C75      1.0000 0.22760  0.44050  0.74640  Biso   1.000  C
  C76      1.0000 0.80790  0.57730  0.77880  Biso   1.000  C
  C77      1.0000 0.73200  0.50610  0.76120  Biso   1.000  C
  C78      1.0000 0.79130  0.43660  0.74350  Biso   1.000  C
  C79      1.0000 0.62450  0.50650  0.76470  Biso   1.000  C
  C80      1.0000 0.57880  0.58200  0.78550  Biso   1.000  C
  C81      1.0000 0.47560  0.57890  0.78650  Biso   1.000  C
  C82      1.0000 0.41280  0.50680  0.76530  Biso   1.000  C
  C83      1.0000 0.45700  0.43260  0.74270  Biso   1.000  C
  C84      1.0000 0.56040  0.43090  0.74360  Biso   1.000  C
  C85      1.0000 0.98410  0.85120  0.86840  Biso   1.000  C
  C86      1.0000 0.98870  0.77640  0.90300  Biso   1.000  C
  C87      1.0000 0.00720  0.69960  0.87540  Biso   1.000  C
  C88      1.0000 0.98140  0.77730  0.95890  Biso   1.000  C
  C89      1.0000 0.94880  0.69680  0.97880  Biso   1.000  C
  C90      1.0000 0.94470  0.69240  0.03190  Biso   1.000  C
  C91      1.0000 0.96960  0.76800  0.06250  Biso   1.000  C
  C92      1.0000 0.00010  0.85230  0.04110  Biso   1.000  C
  C93      1.0000 0.00780  0.85620  0.98910  Biso   1.000  C
  C94      1.0000 0.99360  0.83460  0.15630  Biso   1.000  C
  C95      1.0000 0.97100  0.76140  0.11840  Biso   1.000  C
  C96      1.0000 0.95260  0.68370  0.14620  Biso   1.000  C
  N1       1.0000 0.14330  0.94440  0.27140  Biso   1.000  N
  N2       1.0000 0.13370  0.03140  0.25110  Biso   1.000  N
  N3       1.0000 0.89920  0.94600  0.27060  Biso   1.000  N
  N4       1.0000 0.88840  0.03630  0.24820  Biso   1.000  N
  N5       1.0000 0.99460  0.68320  0.32010  Biso   1.000  N
  N6       1.0000 0.01010  0.77630  0.32410  Biso   1.000  N
  N7       1.0000 0.99250  0.70390  0.70180  Biso   1.000  N
  N8       1.0000 0.96980  0.79570  0.69600  Biso   1.000  N
  N9       1.0000 0.85670  0.44440  0.22860  Biso   1.000  N
  N10      1.0000 0.86630  0.53140  0.24890  Biso   1.000  N
  N11      1.0000 0.10080  0.44600  0.22940  Biso   1.000  N
  N12      1.0000 0.11160  0.53630  0.25180  Biso   1.000  N
  N13      1.0000 0.00540  0.18320  0.17990  Biso   1.000  N
  N14      1.0000 0.98990  0.27630  0.17590  Biso   1.000  N
  N15      1.0000 0.00750  0.20390  0.79820  Biso   1.000  N
  N16      1.0000 0.03020  0.29570  0.80400  Biso   1.000  N
  N17      1.0000 0.85670  0.05560  0.72860  Biso   1.000  N
  N18      1.0000 0.86630  0.96860  0.74890  Biso   1.000  N
  N19      1.0000 0.10080  0.05400  0.72940  Biso   1.000  N
  N20      1.0000 0.11160  0.96370  0.75180  Biso   1.000  N
  N21      1.0000 0.00540  0.31680  0.67990  Biso   1.000  N
  N22      1.0000 0.98990  0.22370  0.67590  Biso   1.000  N
  N23      1.0000 0.00750  0.29610  0.29820  Biso   1.000  N
  N24      1.0000 0.03020  0.20430  0.30400  Biso   1.000  N
  N25      1.0000 0.14330  0.55560  0.77140  Biso   1.000  N
  N26      1.0000 0.13370  0.46860  0.75110  Biso   1.000  N
  N27      1.0000 0.89920  0.55400  0.77060  Biso   1.000  N
  N28      1.0000 0.88840  0.46370  0.74820  Biso   1.000  N
  N29      1.0000 0.99460  0.81680  0.82010  Biso   1.000  N
  N30      1.0000 0.01010  0.72370  0.82410  Biso   1.000  N
  N31      1.0000 0.99250  0.79610  0.20180  Biso   1.000  N
  N32      1.0000 0.96980  0.70430  0.19600  Biso   1.000  N
