data_image0
_cell_length_a       11.3966
_cell_length_b       11.4787
_cell_length_c       16.8775
_cell_angle_alpha    90
_cell_angle_beta     90
_cell_angle_gamma    90

_symmetry_space_group_name_H-M    P 1
_symmetry_int_tables_number       1

loop_
  _symmetry_equiv_pos_as_xyz
  'x, y, z'

loop_
  _atom_site_label
  _atom_site_occupancy
  _atom_site_fract_x
  _atom_site_fract_y
  _atom_site_fract_z
  _atom_site_thermal_displace_type
  _atom_site_B_iso_or_equiv
  _atom_site_type_symbol
  Cr1      1.0000 0.00000  0.50000  0.50000  Biso   1.000  Cr
  Cr2      1.0000 0.00000  0.00000  0.00000  Biso   1.000  Cr
  Cr3      1.0000 0.50000  0.50000  0.00000  Biso   1.000  Cr
  Cr4      1.0000 0.50000  0.00000  0.50000  Biso   1.000  Cr
  C1       1.0000 0.77160  0.60380  0.58480  Biso   1.000  C
  C2       1.0000 0.63420  0.75860  0.59030  Biso   1.000  C
  C3       1.0000 0.70600  0.51250  0.73010  Biso   1.000  C
  C4       1.0000 0.54810  0.61790  0.83110  Biso   1.000  C
  C5       1.0000 0.49980  0.76960  0.73780  Biso   1.000  C
  C6       1.0000 0.68220  0.65980  0.62810  Biso   1.000  C
  C7       1.0000 0.64910  0.61970  0.70330  Biso   1.000  C
  C8       1.0000 0.56670  0.66720  0.75470  Biso   1.000  C
  C9       1.0000 0.22840  0.89620  0.08480  Biso   1.000  C
  C10      1.0000 0.36580  0.74140  0.09030  Biso   1.000  C
  C11      1.0000 0.29400  0.98750  0.23010  Biso   1.000  C
  C12      1.0000 0.45190  0.88210  0.33110  Biso   1.000  C
  C13      1.0000 0.50020  0.73040  0.23780  Biso   1.000  C
  C14      1.0000 0.31780  0.84020  0.12810  Biso   1.000  C
  C15      1.0000 0.35090  0.88030  0.20330  Biso   1.000  C
  C16      1.0000 0.43330  0.83280  0.25470  Biso   1.000  C
  C17      1.0000 0.27160  0.39620  0.91520  Biso   1.000  C
  C18      1.0000 0.13420  0.24140  0.90970  Biso   1.000  C
  C19      1.0000 0.20600  0.48750  0.76990  Biso   1.000  C
  C20      1.0000 0.04810  0.38210  0.66890  Biso   1.000  C
  C21      1.0000 0.99980  0.23040  0.76220  Biso   1.000  C
  C22      1.0000 0.18220  0.34020  0.87190  Biso   1.000  C
  C23      1.0000 0.14910  0.38030  0.79670  Biso   1.000  C
  C24      1.0000 0.06670  0.33280  0.74530  Biso   1.000  C
  C25      1.0000 0.72840  0.10380  0.41520  Biso   1.000  C
  C26      1.0000 0.86580  0.25860  0.40970  Biso   1.000  C
  C27      1.0000 0.79400  0.01250  0.26990  Biso   1.000  C
  C28      1.0000 0.95190  0.11790  0.16890  Biso   1.000  C
  C29      1.0000 0.00020  0.26960  0.26220  Biso   1.000  C
  C30      1.0000 0.81780  0.15980  0.37190  Biso   1.000  C
  C31      1.0000 0.85090  0.11970  0.29670  Biso   1.000  C
  C32      1.0000 0.93330  0.16720  0.24530  Biso   1.000  C
  C33      1.0000 0.22840  0.39620  0.41520  Biso   1.000  C
  C34      1.0000 0.36580  0.24140  0.40970  Biso   1.000  C
  C35      1.0000 0.29400  0.48750  0.26990  Biso   1.000  C
  C36      1.0000 0.45190  0.38210  0.16890  Biso   1.000  C
  C37      1.0000 0.50020  0.23040  0.26220  Biso   1.000  C
  C38      1.0000 0.31780  0.34020  0.37190  Biso   1.000  C
  C39      1.0000 0.35090  0.38030  0.29670  Biso   1.000  C
  C40      1.0000 0.43330  0.33280  0.24530  Biso   1.000  C
  C41      1.0000 0.77160  0.10380  0.91520  Biso   1.000  C
  C42      1.0000 0.63420  0.25860  0.90970  Biso   1.000  C
  C43      1.0000 0.70600  0.01250  0.76990  Biso   1.000  C
  C44      1.0000 0.54810  0.11790  0.66890  Biso   1.000  C
  C45      1.0000 0.49980  0.26960  0.76220  Biso   1.000  C
  C46      1.0000 0.68220  0.15980  0.87190  Biso   1.000  C
  C47      1.0000 0.64910  0.11970  0.79670  Biso   1.000  C
  C48      1.0000 0.56670  0.16720  0.74530  Biso   1.000  C
  C49      1.0000 0.72840  0.60380  0.08480  Biso   1.000  C
  C50      1.0000 0.86580  0.75860  0.09030  Biso   1.000  C
  C51      1.0000 0.79400  0.51250  0.23010  Biso   1.000  C
  C52      1.0000 0.95190  0.61790  0.33110  Biso   1.000  C
  C53      1.0000 0.00020  0.76960  0.23780  Biso   1.000  C
  C54      1.0000 0.81780  0.65980  0.12810  Biso   1.000  C
  C55      1.0000 0.85090  0.61970  0.20330  Biso   1.000  C
  C56      1.0000 0.93330  0.66720  0.25470  Biso   1.000  C
  C57      1.0000 0.27160  0.89620  0.58480  Biso   1.000  C
  C58      1.0000 0.13420  0.74140  0.59030  Biso   1.000  C
  C59      1.0000 0.20600  0.98750  0.73010  Biso   1.000  C
  C60      1.0000 0.04810  0.88210  0.83110  Biso   1.000  C
  C61      1.0000 0.99980  0.73040  0.73780  Biso   1.000  C
  C62      1.0000 0.18220  0.84020  0.62810  Biso   1.000  C
  C63      1.0000 0.14910  0.88030  0.70330  Biso   1.000  C
  C64      1.0000 0.06670  0.83280  0.75470  Biso   1.000  C
  N1       1.0000 0.84540  0.56150  0.54850  Biso   1.000  N
  N2       1.0000 0.59830  0.83770  0.55540  Biso   1.000  N
  N3       1.0000 0.74840  0.42780  0.75050  Biso   1.000  N
  N4       1.0000 0.53330  0.58230  0.89323  Biso   1.000  N
  N5       1.0000 0.44380  0.85040  0.72640  Biso   1.000  N
  N6       1.0000 0.15460  0.93850  0.04850  Biso   1.000  N
  N7       1.0000 0.40170  0.66230  0.05540  Biso   1.000  N
  N8       1.0000 0.25160  0.07220  0.25050  Biso   1.000  N
  N9       1.0000 0.46670  0.91770  0.39323  Biso   1.000  N
  N10      1.0000 0.55620  0.64960  0.22640  Biso   1.000  N
  N11      1.0000 0.34540  0.43850  0.95150  Biso   1.000  N
  N12      1.0000 0.09830  0.16230  0.94460  Biso   1.000  N
  N13      1.0000 0.24840  0.57220  0.74950  Biso   1.000  N
  N14      1.0000 0.03330  0.41770  0.60677  Biso   1.000  N
  N15      1.0000 0.94380  0.14960  0.77360  Biso   1.000  N
  N16      1.0000 0.65460  0.06150  0.45150  Biso   1.000  N
  N17      1.0000 0.90170  0.33770  0.44460  Biso   1.000  N
  N18      1.0000 0.75160  0.92780  0.24950  Biso   1.000  N
  N19      1.0000 0.96670  0.08230  0.10677  Biso   1.000  N
  N20      1.0000 0.05620  0.35040  0.27360  Biso   1.000  N
  N21      1.0000 0.15460  0.43850  0.45150  Biso   1.000  N
  N22      1.0000 0.40170  0.16230  0.44460  Biso   1.000  N
  N23      1.0000 0.25160  0.57220  0.24950  Biso   1.000  N
  N24      1.0000 0.46670  0.41770  0.10677  Biso   1.000  N
  N25      1.0000 0.55620  0.14960  0.27360  Biso   1.000  N
  N26      1.0000 0.84540  0.06150  0.95150  Biso   1.000  N
  N27      1.0000 0.59830  0.33770  0.94460  Biso   1.000  N
  N28      1.0000 0.74840  0.92780  0.74950  Biso   1.000  N
  N29      1.0000 0.53330  0.08230  0.60677  Biso   1.000  N
  N30      1.0000 0.44380  0.35040  0.77360  Biso   1.000  N
  N31      1.0000 0.65460  0.56150  0.04850  Biso   1.000  N
  N32      1.0000 0.90170  0.83770  0.05540  Biso   1.000  N
  N33      1.0000 0.75160  0.42780  0.25050  Biso   1.000  N
  N34      1.0000 0.96670  0.58230  0.39323  Biso   1.000  N
  N35      1.0000 0.05620  0.85040  0.22640  Biso   1.000  N
  N36      1.0000 0.34540  0.93850  0.54850  Biso   1.000  N
  N37      1.0000 0.09830  0.66230  0.55540  Biso   1.000  N
  N38      1.0000 0.24840  0.07220  0.75050  Biso   1.000  N
  N39      1.0000 0.03330  0.91770  0.89323  Biso   1.000  N
  N40      1.0000 0.94380  0.64960  0.72640  Biso   1.000  N
