data_image0
_cell_length_a       11.8493
_cell_length_b       13.9604
_cell_length_c       34.2738
_cell_angle_alpha    97.0961
_cell_angle_beta     99.4543
_cell_angle_gamma    100.103

_symmetry_space_group_name_H-M    P 1
_symmetry_int_tables_number       1

loop_
  _symmetry_equiv_pos_as_xyz
  'x, y, z'

loop_
  _atom_site_label
  _atom_site_occupancy
  _atom_site_fract_x
  _atom_site_fract_y
  _atom_site_fract_z
  _atom_site_thermal_displace_type
  _atom_site_B_iso_or_equiv
  _atom_site_type_symbol
  Ce1      1.0000 0.13167  0.95730  0.75018  Biso   1.000  Ce
  Ce2      1.0000 0.84132  0.09220  0.75257  Biso   1.000  Ce
  Ce3      1.0000 0.51281  0.98659  0.24626  Biso   1.000  Ce
  Ce4      1.0000 0.86833  0.04270  0.24982  Biso   1.000  Ce
  Ce5      1.0000 0.15868  0.90780  0.24743  Biso   1.000  Ce
  Ce6      1.0000 0.48719  0.01341  0.75374  Biso   1.000  Ce
  H1       1.0000 0.44760  0.45180  0.85420  Biso   1.000  H
  H2       1.0000 0.60390  0.59320  0.85040  Biso   1.000  H
  H3       1.0000 0.99440  0.78970  0.94900  Biso   1.000  H
  H4       1.0000 0.10270  0.77070  0.01410  Biso   1.000  H
  H5       1.0000 0.02490  0.53240  0.12060  Biso   1.000  H
  H6       1.0000 0.87460  0.38970  0.12360  Biso   1.000  H
  H7       1.0000 0.46750  0.20470  0.02930  Biso   1.000  H
  H8       1.0000 0.36170  0.22560  0.96380  Biso   1.000  H
  H9       1.0000 0.67470  0.51440  0.95990  Biso   1.000  H
  H10      1.0000 0.79390  0.47670  0.01670  Biso   1.000  H
  H11      1.0000 0.92820  0.64360  0.86940  Biso   1.000  H
  H12      1.0000 0.98250  0.74800  0.82490  Biso   1.000  H
  H13      1.0000 0.75520  0.91450  0.85500  Biso   1.000  H
  H14      1.0000 0.69810  0.80710  0.89830  Biso   1.000  H
  H15      1.0000 0.00070  0.78750  0.09120  Biso   1.000  H
  H16      1.0000 0.13930  0.88440  0.14310  Biso   1.000  H
  H17      1.0000 0.35830  0.69680  0.12800  Biso   1.000  H
  H18      1.0000 0.21270  0.59490  0.07820  Biso   1.000  H
  H19      1.0000 0.52730  0.30600  0.10160  Biso   1.000  H
  H20      1.0000 0.51030  0.21190  0.15220  Biso   1.000  H
  H21      1.0000 0.79930  0.11170  0.13350  Biso   1.000  H
  H22      1.0000 0.81310  0.20380  0.08120  Biso   1.000  H
  H23      1.0000 0.26980  0.42990  0.90220  Biso   1.000  H
  H24      1.0000 0.11000  0.34670  0.85500  Biso   1.000  H
  H25      1.0000 0.26910  0.11590  0.83520  Biso   1.000  H
  H26      1.0000 0.43010  0.19910  0.88440  Biso   1.000  H
  H27      1.0000 0.02610  0.44070  0.36070  Biso   1.000  H
  H28      1.0000 0.18370  0.58190  0.35960  Biso   1.000  H
  H29      1.0000 0.52840  0.80970  0.47050  Biso   1.000  H
  H30      1.0000 0.61260  0.80000  0.54080  Biso   1.000  H
  H31      1.0000 0.51920  0.56130  0.64470  Biso   1.000  H
  H32      1.0000 0.36030  0.41900  0.64580  Biso   1.000  H
  H33      1.0000 0.96800  0.23600  0.54370  Biso   1.000  H
  H34      1.0000 0.88190  0.24640  0.47370  Biso   1.000  H
  H35      1.0000 0.20800  0.52610  0.47350  Biso   1.000  H
  H36      1.0000 0.30400  0.50170  0.53610  Biso   1.000  H
  H37      1.0000 0.20350  0.77750  0.39830  Biso   1.000  H
  H38      1.0000 0.23860  0.87310  0.34940  Biso   1.000  H
  H39      1.0000 0.55630  0.80290  0.35530  Biso   1.000  H
  H40      1.0000 0.51610  0.69760  0.40070  Biso   1.000  H
  H41      1.0000 0.51020  0.80240  0.62520  Biso   1.000  H
  H42      1.0000 0.66460  0.89430  0.67430  Biso   1.000  H
  H43      1.0000 0.87100  0.71230  0.64160  Biso   1.000  H
  H44      1.0000 0.71750  0.62230  0.59210  Biso   1.000  H
  H45      1.0000 0.03930  0.37980  0.62230  Biso   1.000  H
  H46      1.0000 0.97710  0.28430  0.66790  Biso   1.000  H
  H47      1.0000 0.20720  0.11130  0.64580  Biso   1.000  H
  H48      1.0000 0.26550  0.20710  0.59850  Biso   1.000  H
  H49      1.0000 0.81710  0.42050  0.39630  Biso   1.000  H
  H50      1.0000 0.68000  0.32310  0.34470  Biso   1.000  H
  H51      1.0000 0.86140  0.10090  0.35190  Biso   1.000  H
  H52      1.0000 0.99020  0.19790  0.40670  Biso   1.000  H
  H53      1.0000 0.31870  0.23860  0.75640  Biso   1.000  H
  H54      1.0000 0.55240  0.54820  0.14580  Biso   1.000  H
  H55      1.0000 0.39610  0.40680  0.14960  Biso   1.000  H
  H56      1.0000 0.00560  0.21030  0.05100  Biso   1.000  H
  H57      1.0000 0.89730  0.22930  0.98590  Biso   1.000  H
  H58      1.0000 0.97510  0.46760  0.87940  Biso   1.000  H
  H59      1.0000 0.12540  0.61030  0.87640  Biso   1.000  H
  H60      1.0000 0.53250  0.79530  0.97070  Biso   1.000  H
  H61      1.0000 0.63830  0.77440  0.03620  Biso   1.000  H
  H62      1.0000 0.32530  0.48560  0.04010  Biso   1.000  H
  H63      1.0000 0.20610  0.52330  0.98330  Biso   1.000  H
  H64      1.0000 0.07180  0.35640  0.13060  Biso   1.000  H
  H65      1.0000 0.01750  0.25200  0.17510  Biso   1.000  H
  H66      1.0000 0.24480  0.08550  0.14500  Biso   1.000  H
  H67      1.0000 0.30190  0.19290  0.10170  Biso   1.000  H
  H68      1.0000 0.99930  0.21250  0.90880  Biso   1.000  H
  H69      1.0000 0.86070  0.11560  0.85690  Biso   1.000  H
  H70      1.0000 0.64170  0.30320  0.87200  Biso   1.000  H
  H71      1.0000 0.78730  0.40510  0.92180  Biso   1.000  H
  H72      1.0000 0.47270  0.69400  0.89840  Biso   1.000  H
  H73      1.0000 0.48970  0.78810  0.84780  Biso   1.000  H
  H74      1.0000 0.20070  0.88830  0.86650  Biso   1.000  H
  H75      1.0000 0.18690  0.79620  0.91880  Biso   1.000  H
  H76      1.0000 0.73020  0.57010  0.09780  Biso   1.000  H
  H77      1.0000 0.89000  0.65330  0.14500  Biso   1.000  H
  H78      1.0000 0.73090  0.88410  0.16480  Biso   1.000  H
  H79      1.0000 0.56990  0.80090  0.11560  Biso   1.000  H
  H80      1.0000 0.97390  0.55930  0.63930  Biso   1.000  H
  H81      1.0000 0.81630  0.41810  0.64040  Biso   1.000  H
  H82      1.0000 0.47160  0.19030  0.52950  Biso   1.000  H
  H83      1.0000 0.38740  0.20000  0.45920  Biso   1.000  H
  H84      1.0000 0.48080  0.43870  0.35530  Biso   1.000  H
  H85      1.0000 0.63970  0.58100  0.35420  Biso   1.000  H
  H86      1.0000 0.03200  0.76400  0.45630  Biso   1.000  H
  H87      1.0000 0.11810  0.75360  0.52630  Biso   1.000  H
  H88      1.0000 0.79200  0.47390  0.52650  Biso   1.000  H
  H89      1.0000 0.69600  0.49830  0.46390  Biso   1.000  H
  H90      1.0000 0.79650  0.22250  0.60170  Biso   1.000  H
  H91      1.0000 0.76140  0.12690  0.65060  Biso   1.000  H
  H92      1.0000 0.44370  0.19710  0.64470  Biso   1.000  H
  H93      1.0000 0.48390  0.30240  0.59930  Biso   1.000  H
  H94      1.0000 0.48980  0.19760  0.37480  Biso   1.000  H
  H95      1.0000 0.33540  0.10570  0.32570  Biso   1.000  H
  H96      1.0000 0.12900  0.28770  0.35840  Biso   1.000  H
  H97      1.0000 0.28250  0.37770  0.40790  Biso   1.000  H
  H98      1.0000 0.96070  0.62020  0.37770  Biso   1.000  H
  H99      1.0000 0.02290  0.71570  0.33210  Biso   1.000  H
  H100     1.0000 0.79280  0.88870  0.35420  Biso   1.000  H
  H101     1.0000 0.73450  0.79290  0.40150  Biso   1.000  H
  H102     1.0000 0.18290  0.57950  0.60370  Biso   1.000  H
  H103     1.0000 0.32000  0.67690  0.65530  Biso   1.000  H
  H104     1.0000 0.13860  0.89910  0.64810  Biso   1.000  H
  H105     1.0000 0.00980  0.80210  0.59330  Biso   1.000  H
  H106     1.0000 0.68130  0.76140  0.24360  Biso   1.000  H
  C1       1.0000 0.54100  0.45580  0.91398  Biso   1.000  C
  C2       1.0000 0.51280  0.48220  0.87459  Biso   1.000  C
  C3       1.0000 0.59830  0.55930  0.87260  Biso   1.000  C
  C4       1.0000 0.67950  0.58020  0.91070  Biso   1.000  C
  C5       1.0000 0.78180  0.65170  0.91938  Biso   1.000  C
  C6       1.0000 0.86820  0.66640  0.95390  Biso   1.000  C
  C7       1.0000 0.97110  0.74080  0.96465  Biso   1.000  C
  C8       1.0000 0.03010  0.73120  0.00040  Biso   1.000  C
  C9       1.0000 0.96310  0.64990  0.01417  Biso   1.000  C
  C10      1.0000 0.99270  0.61560  0.05046  Biso   1.000  C
  C11      1.0000 0.92910  0.53290  0.06204  Biso   1.000  C
  C12      1.0000 0.95910  0.50280  0.10026  Biso   1.000  C
  C13      1.0000 0.87740  0.42560  0.10181  Biso   1.000  C
  C14      1.0000 0.79400  0.40590  0.06474  Biso   1.000  C
  C15      1.0000 0.68980  0.33440  0.05632  Biso   1.000  C
  C16      1.0000 0.60100  0.32220  0.02283  Biso   1.000  C
  C17      1.0000 0.49350  0.25170  0.01325  Biso   1.000  C
  C18      1.0000 0.43530  0.26360  0.97748  Biso   1.000  C
  C19      1.0000 0.50340  0.34340  0.96353  Biso   1.000  C
  C20      1.0000 0.47480  0.37800  0.92718  Biso   1.000  C
  C21      1.0000 0.80940  0.71570  0.88907  Biso   1.000  C
  C22      1.0000 0.89250  0.69890  0.86660  Biso   1.000  C
  C23      1.0000 0.92500  0.76090  0.84003  Biso   1.000  C
  C24      1.0000 0.87370  0.84190  0.83545  Biso   1.000  C
  C25      1.0000 0.79040  0.85890  0.85762  Biso   1.000  C
  C26      1.0000 0.75740  0.79540  0.88381  Biso   1.000  C
  C27      1.0000 0.91460  0.91000  0.80832  Biso   1.000  C
  C28      1.0000 0.09020  0.67980  0.08079  Biso   1.000  C
  C29      1.0000 0.07200  0.76710  0.09949  Biso   1.000  C
  C30      1.0000 0.15470  0.82550  0.12991  Biso   1.000  C
  C31      1.0000 0.26080  0.79800  0.14128  Biso   1.000  C
  C32      1.0000 0.28410  0.71380  0.12136  Biso   1.000  C
  C33      1.0000 0.19780  0.65390  0.09143  Biso   1.000  C
  C34      1.0000 0.34920  0.86110  0.17593  Biso   1.000  C
  C35      1.0000 0.67250  0.26740  0.08702  Biso   1.000  C
  C36      1.0000 0.58350  0.26670  0.10807  Biso   1.000  C
  C37      1.0000 0.57310  0.21100  0.13821  Biso   1.000  C
  C38      1.0000 0.65410  0.15390  0.14805  Biso   1.000  C
  C39      1.0000 0.74370  0.15140  0.12695  Biso   1.000  C
  C40      1.0000 0.75260  0.20690  0.09610  Biso   1.000  C
  C41      1.0000 0.65110  0.09660  0.18180  Biso   1.000  C
  C42      1.0000 0.36750  0.32180  0.89826  Biso   1.000  C
  C43      1.0000 0.26990  0.36600  0.88885  Biso   1.000  C
  C44      1.0000 0.17590  0.31700  0.86061  Biso   1.000  C
  C45      1.0000 0.17410  0.22390  0.83970  Biso   1.000  C
  C46      1.0000 0.26910  0.17950  0.84876  Biso   1.000  C
  C47      1.0000 0.36510  0.22960  0.87820  Biso   1.000  C
  C48      1.0000 0.07130  0.17560  0.80774  Biso   1.000  C
  C49      1.0000 0.09090  0.45910  0.42418  Biso   1.000  C
  C50      1.0000 0.08210  0.47670  0.38307  Biso   1.000  C
  C51      1.0000 0.16770  0.55350  0.38244  Biso   1.000  C
  C52      1.0000 0.23120  0.58440  0.42345  Biso   1.000  C
  C53      1.0000 0.32660  0.66130  0.43463  Biso   1.000  C
  C54      1.0000 0.40100  0.68260  0.47204  Biso   1.000  C
  C55      1.0000 0.50000  0.76150  0.48576  Biso   1.000  C
  C56      1.0000 0.54680  0.75600  0.52444  Biso   1.000  C
  C57      1.0000 0.47960  0.67280  0.53591  Biso   1.000  C
  C58      1.0000 0.49900  0.64260  0.57335  Biso   1.000  C
  C59      1.0000 0.43170  0.56040  0.58420  Biso   1.000  C
  C60      1.0000 0.45560  0.53160  0.62350  Biso   1.000  C
  C61      1.0000 0.36950  0.45390  0.62405  Biso   1.000  C
  C62      1.0000 0.29380  0.43440  0.58458  Biso   1.000  C
  C63      1.0000 0.19070  0.36340  0.57437  Biso   1.000  C
  C64      1.0000 0.10980  0.34910  0.53856  Biso   1.000  C
  C65      1.0000 0.00090  0.27890  0.52731  Biso   1.000  C
  C66      1.0000 0.95330  0.28510  0.48885  Biso   1.000  C
  C67      1.0000 0.02880  0.35930  0.47531  Biso   1.000  C
  C68      1.0000 0.01660  0.38480  0.43700  Biso   1.000  C
  C69      1.0000 0.35380  0.72670  0.40475  Biso   1.000  C
  C70      1.0000 0.27500  0.78070  0.38895  Biso   1.000  C
  C71      1.0000 0.29610  0.83890  0.36021  Biso   1.000  C
  C72      1.0000 0.40160  0.84730  0.34713  Biso   1.000  C
  C73      1.0000 0.48280  0.79570  0.36344  Biso   1.000  C
  C74      1.0000 0.46020  0.73440  0.39104  Biso   1.000  C
  C75      1.0000 0.43090  0.91010  0.31707  Biso   1.000  C
  C76      1.0000 0.59830  0.70150  0.60361  Biso   1.000  C
  C77      1.0000 0.58400  0.78360  0.62825  Biso   1.000  C
  C78      1.0000 0.67650  0.83890  0.65752  Biso   1.000  C
  C79      1.0000 0.78360  0.81410  0.66226  Biso   1.000  C
  C80      1.0000 0.79770  0.73200  0.63820  Biso   1.000  C
  C81      1.0000 0.70520  0.67750  0.60882  Biso   1.000  C
  C82      1.0000 0.88490  0.87150  0.69348  Biso   1.000  C
  C83      1.0000 0.15650  0.30230  0.60537  Biso   1.000  C
  C84      1.0000 0.07280  0.32420  0.62670  Biso   1.000  C
  C85      1.0000 0.03640  0.26830  0.65411  Biso   1.000  C
  C86      1.0000 0.08620  0.18860  0.66168  Biso   1.000  C
  C87      1.0000 0.17220  0.16600  0.64077  Biso   1.000  C
  C88      1.0000 0.20700  0.22290  0.61265  Biso   1.000  C
  C89      1.0000 0.04510  0.12670  0.69080  Biso   1.000  C
  C90      1.0000 0.92000  0.31980  0.40616  Biso   1.000  C
  C91      1.0000 0.82530  0.35530  0.38746  Biso   1.000  C
  C92      1.0000 0.74450  0.29800  0.35676  Biso   1.000  C
  C93      1.0000 0.75650  0.20160  0.34279  Biso   1.000  C
  C94      1.0000 0.85100  0.16510  0.36122  Biso   1.000  C
  C95      1.0000 0.92870  0.22400  0.39319  Biso   1.000  C
  C96      1.0000 0.67640  0.13860  0.30710  Biso   1.000  C
  C97      1.0000 0.36210  0.18740  0.75700  Biso   1.000  C
  C98      1.0000 0.45900  0.54420  0.08602  Biso   1.000  C
  C99      1.0000 0.48720  0.51780  0.12541  Biso   1.000  C
  C100     1.0000 0.40170  0.44070  0.12740  Biso   1.000  C
  C101     1.0000 0.32050  0.41980  0.08930  Biso   1.000  C
  C102     1.0000 0.21820  0.34830  0.08062  Biso   1.000  C
  C103     1.0000 0.13180  0.33360  0.04610  Biso   1.000  C
  C104     1.0000 0.02890  0.25920  0.03535  Biso   1.000  C
  C105     1.0000 0.96990  0.26880  0.99960  Biso   1.000  C
  C106     1.0000 0.03690  0.35010  0.98583  Biso   1.000  C
  C107     1.0000 0.00730  0.38440  0.94954  Biso   1.000  C
  C108     1.0000 0.07090  0.46710  0.93796  Biso   1.000  C
  C109     1.0000 0.04090  0.49720  0.89974  Biso   1.000  C
  C110     1.0000 0.12260  0.57440  0.89819  Biso   1.000  C
  C111     1.0000 0.20600  0.59410  0.93526  Biso   1.000  C
  C112     1.0000 0.31020  0.66560  0.94368  Biso   1.000  C
  C113     1.0000 0.39900  0.67780  0.97717  Biso   1.000  C
  C114     1.0000 0.50650  0.74830  0.98675  Biso   1.000  C
  C115     1.0000 0.56470  0.73640  0.02252  Biso   1.000  C
  C116     1.0000 0.49660  0.65660  0.03647  Biso   1.000  C
  C117     1.0000 0.52520  0.62200  0.07282  Biso   1.000  C
  C118     1.0000 0.19060  0.28430  0.11093  Biso   1.000  C
  C119     1.0000 0.10750  0.30110  0.13340  Biso   1.000  C
  C120     1.0000 0.07500  0.23910  0.15997  Biso   1.000  C
  C121     1.0000 0.12630  0.15810  0.16455  Biso   1.000  C
  C122     1.0000 0.20960  0.14110  0.14238  Biso   1.000  C
  C123     1.0000 0.24260  0.20460  0.11619  Biso   1.000  C
  C124     1.0000 0.08540  0.09000  0.19168  Biso   1.000  C
  C125     1.0000 0.90980  0.32020  0.91921  Biso   1.000  C
  C126     1.0000 0.92800  0.23290  0.90051  Biso   1.000  C
  C127     1.0000 0.84530  0.17450  0.87009  Biso   1.000  C
  C128     1.0000 0.73920  0.20200  0.85872  Biso   1.000  C
  C129     1.0000 0.71590  0.28620  0.87864  Biso   1.000  C
  C130     1.0000 0.80220  0.34610  0.90857  Biso   1.000  C
  C131     1.0000 0.65080  0.13890  0.82407  Biso   1.000  C
  C132     1.0000 0.32750  0.73260  0.91298  Biso   1.000  C
  C133     1.0000 0.41650  0.73330  0.89193  Biso   1.000  C
  C134     1.0000 0.42690  0.78900  0.86179  Biso   1.000  C
  C135     1.0000 0.34590  0.84610  0.85195  Biso   1.000  C
  C136     1.0000 0.25630  0.84860  0.87305  Biso   1.000  C
  C137     1.0000 0.24740  0.79310  0.90390  Biso   1.000  C
  C138     1.0000 0.34890  0.90340  0.81820  Biso   1.000  C
  C139     1.0000 0.63250  0.67820  0.10174  Biso   1.000  C
  C140     1.0000 0.73010  0.63400  0.11115  Biso   1.000  C
  C141     1.0000 0.82410  0.68300  0.13939  Biso   1.000  C
  C142     1.0000 0.82590  0.77610  0.16030  Biso   1.000  C
  C143     1.0000 0.73090  0.82050  0.15124  Biso   1.000  C
  C144     1.0000 0.63490  0.77040  0.12180  Biso   1.000  C
  C145     1.0000 0.92870  0.82440  0.19226  Biso   1.000  C
  C146     1.0000 0.90910  0.54090  0.57582  Biso   1.000  C
  C147     1.0000 0.91790  0.52330  0.61693  Biso   1.000  C
  C148     1.0000 0.83230  0.44650  0.61756  Biso   1.000  C
  C149     1.0000 0.76880  0.41560  0.57655  Biso   1.000  C
  C150     1.0000 0.67340  0.33870  0.56537  Biso   1.000  C
  C151     1.0000 0.59900  0.31740  0.52796  Biso   1.000  C
  C152     1.0000 0.50000  0.23850  0.51424  Biso   1.000  C
  C153     1.0000 0.45320  0.24400  0.47556  Biso   1.000  C
  C154     1.0000 0.52040  0.32720  0.46409  Biso   1.000  C
  C155     1.0000 0.50100  0.35740  0.42665  Biso   1.000  C
  C156     1.0000 0.56830  0.43960  0.41580  Biso   1.000  C
  C157     1.0000 0.54440  0.46840  0.37650  Biso   1.000  C
  C158     1.0000 0.63050  0.54610  0.37595  Biso   1.000  C
  C159     1.0000 0.70620  0.56560  0.41542  Biso   1.000  C
  C160     1.0000 0.80930  0.63660  0.42563  Biso   1.000  C
  C161     1.0000 0.89020  0.65090  0.46144  Biso   1.000  C
  C162     1.0000 0.99910  0.72110  0.47269  Biso   1.000  C
  C163     1.0000 0.04670  0.71490  0.51115  Biso   1.000  C
  C164     1.0000 0.97120  0.64070  0.52469  Biso   1.000  C
  C165     1.0000 0.98340  0.61520  0.56300  Biso   1.000  C
  C166     1.0000 0.64620  0.27330  0.59525  Biso   1.000  C
  C167     1.0000 0.72500  0.21930  0.61105  Biso   1.000  C
  C168     1.0000 0.70390  0.16110  0.63979  Biso   1.000  C
  C169     1.0000 0.59840  0.15270  0.65287  Biso   1.000  C
  C170     1.0000 0.51720  0.20430  0.63656  Biso   1.000  C
  C171     1.0000 0.53980  0.26560  0.60896  Biso   1.000  C
  C172     1.0000 0.56910  0.08990  0.68293  Biso   1.000  C
  C173     1.0000 0.40170  0.29850  0.39639  Biso   1.000  C
  C174     1.0000 0.41600  0.21640  0.37175  Biso   1.000  C
  C175     1.0000 0.32350  0.16110  0.34248  Biso   1.000  C
  C176     1.0000 0.21640  0.18590  0.33774  Biso   1.000  C
  C177     1.0000 0.20230  0.26800  0.36180  Biso   1.000  C
  C178     1.0000 0.29480  0.32250  0.39118  Biso   1.000  C
  C179     1.0000 0.11510  0.12850  0.30652  Biso   1.000  C
  C180     1.0000 0.84350  0.69770  0.39463  Biso   1.000  C
  C181     1.0000 0.92720  0.67580  0.37330  Biso   1.000  C
  C182     1.0000 0.96360  0.73170  0.34589  Biso   1.000  C
  C183     1.0000 0.91380  0.81140  0.33832  Biso   1.000  C
  C184     1.0000 0.82780  0.83400  0.35923  Biso   1.000  C
  C185     1.0000 0.79300  0.77710  0.38735  Biso   1.000  C
  C186     1.0000 0.95490  0.87330  0.30920  Biso   1.000  C
  C187     1.0000 0.08000  0.68020  0.59384  Biso   1.000  C
  C188     1.0000 0.17470  0.64470  0.61254  Biso   1.000  C
  C189     1.0000 0.25550  0.70200  0.64324  Biso   1.000  C
  C190     1.0000 0.24350  0.79840  0.65721  Biso   1.000  C
  C191     1.0000 0.14900  0.83490  0.63878  Biso   1.000  C
  C192     1.0000 0.07130  0.77600  0.60681  Biso   1.000  C
  C193     1.0000 0.32360  0.86140  0.69290  Biso   1.000  C
  C194     1.0000 0.63790  0.81260  0.24300  Biso   1.000  C
  N1       1.0000 0.64110  0.51620  0.93522  Biso   1.000  N
  N2       1.0000 0.86600  0.61150  0.98522  Biso   1.000  N
  N3       1.0000 0.82930  0.47310  0.04101  Biso   1.000  N
  N4       1.0000 0.60310  0.37780  0.99194  Biso   1.000  N
  N5       1.0000 0.18340  0.52370  0.44763  Biso   1.000  N
  N6       1.0000 0.39010  0.63080  0.50390  Biso   1.000  N
  N7       1.0000 0.33440  0.49940  0.56116  Biso   1.000  N
  N8       1.0000 0.12390  0.39730  0.50624  Biso   1.000  N
  N9       1.0000 0.35890  0.48380  0.06478  Biso   1.000  N
  N10      1.0000 0.13400  0.38850  0.01478  Biso   1.000  N
  N11      1.0000 0.17070  0.52690  0.95899  Biso   1.000  N
  N12      1.0000 0.39690  0.62220  0.00806  Biso   1.000  N
  N13      1.0000 0.81660  0.47630  0.55237  Biso   1.000  N
  N14      1.0000 0.60990  0.36920  0.49610  Biso   1.000  N
  N15      1.0000 0.66560  0.50060  0.43884  Biso   1.000  N
  N16      1.0000 0.87610  0.60270  0.49376  Biso   1.000  N
  O1       1.0000 0.99760  0.89180  0.79159  Biso   1.000  O
  O2       1.0000 0.86030  0.97910  0.80241  Biso   1.000  O
  O3       1.0000 0.31150  0.89270  0.20629  Biso   1.000  O
  O4       1.0000 0.45410  0.88290  0.17365  Biso   1.000  O
  O5       1.0000 0.56860  0.10130  0.20098  Biso   1.000  O
  O6       1.0000 0.72810  0.04920  0.19106  Biso   1.000  O
  O7       1.0000 0.98360  0.21570  0.80362  Biso   1.000  O
  O8       1.0000 0.07340  0.09650  0.78551  Biso   1.000  O
  O9       1.0000 0.35050  0.93480  0.29305  Biso   1.000  O
  O10      1.0000 0.53730  0.94030  0.31570  Biso   1.000  O
  O11      1.0000 0.86800  0.94700  0.71487  Biso   1.000  O
  O12      1.0000 0.98080  0.84290  0.69830  Biso   1.000  O
  O13      1.0000 0.09410  0.05580  0.69755  Biso   1.000  O
  O14      1.0000 0.96230  0.14930  0.70698  Biso   1.000  O
  O15      1.0000 0.57230  0.15140  0.29740  Biso   1.000  O
  O16      1.0000 0.71330  0.07550  0.28600  Biso   1.000  O
  O17      1.0000 0.79460  0.26280  0.74670  Biso   1.000  O
  O18      1.0000 0.15090  0.77510  0.75130  Biso   1.000  O
  O19      1.0000 0.36020  0.09480  0.23933  Biso   1.000  O
  O20      1.0000 0.31530  0.09910  0.75989  Biso   1.000  O
  O21      1.0000 0.47420  0.20330  0.75485  Biso   1.000  O
  O22      1.0000 0.00240  0.10820  0.20841  Biso   1.000  O
  O23      1.0000 0.13970  0.02090  0.19759  Biso   1.000  O
  O24      1.0000 0.68850  0.10730  0.79371  Biso   1.000  O
  O25      1.0000 0.54590  0.11710  0.82635  Biso   1.000  O
  O26      1.0000 0.43140  0.89870  0.79902  Biso   1.000  O
  O27      1.0000 0.27190  0.95080  0.80894  Biso   1.000  O
  O28      1.0000 0.01640  0.78430  0.19638  Biso   1.000  O
  O29      1.0000 0.92660  0.90350  0.21449  Biso   1.000  O
  O30      1.0000 0.64950  0.06520  0.70695  Biso   1.000  O
  O31      1.0000 0.46270  0.05970  0.68430  Biso   1.000  O
  O32      1.0000 0.13200  0.05300  0.28513  Biso   1.000  O
  O33      1.0000 0.01920  0.15710  0.30170  Biso   1.000  O
  O34      1.0000 0.90590  0.94420  0.30245  Biso   1.000  O
  O35      1.0000 0.03770  0.85070  0.29302  Biso   1.000  O
  O36      1.0000 0.42770  0.84860  0.70260  Biso   1.000  O
  O37      1.0000 0.28670  0.92450  0.71400  Biso   1.000  O
  O38      1.0000 0.20540  0.73720  0.25330  Biso   1.000  O
  O39      1.0000 0.84910  0.22490  0.24870  Biso   1.000  O
  O40      1.0000 0.63980  0.90520  0.76067  Biso   1.000  O
  O41      1.0000 0.68470  0.90090  0.24011  Biso   1.000  O
  O42      1.0000 0.52580  0.79670  0.24515  Biso   1.000  O
