data_image0
_cell_length_a       7.133
_cell_length_b       10.519
_cell_length_c       11.519
_cell_angle_alpha    74.034
_cell_angle_beta     83.174
_cell_angle_gamma    72.585

_symmetry_space_group_name_H-M    P 1
_symmetry_int_tables_number       1

loop_
  _symmetry_equiv_pos_as_xyz
  'x, y, z'

loop_
  _atom_site_label
  _atom_site_occupancy
  _atom_site_fract_x
  _atom_site_fract_y
  _atom_site_fract_z
  _atom_site_thermal_displace_type
  _atom_site_B_iso_or_equiv
  _atom_site_type_symbol
  Sr1      1.0000 0.77922  0.40007  0.54096  Biso   1.000  Sr
  Sr2      1.0000 0.22078  0.59993  0.45904  Biso   1.000  Sr
  P1       1.0000 0.28767  0.32201  0.67669  Biso   1.000  P
  P2       1.0000 0.82273  0.25826  0.31639  Biso   1.000  P
  P3       1.0000 0.71233  0.67799  0.32331  Biso   1.000  P
  P4       1.0000 0.17727  0.74174  0.68361  Biso   1.000  P
  H1       1.0000 0.54590  0.15130  0.53250  Biso   1.000  H
  H2       1.0000 0.87950  0.51530  0.14590  Biso   1.000  H
  H3       1.0000 0.23860  0.03470  0.55700  Biso   1.000  H
  H4       1.0000 0.22400  0.18820  0.48790  Biso   1.000  H
  H5       1.0000 0.72220  0.94410  0.65140  Biso   1.000  H
  H6       1.0000 0.54130  0.88620  0.65730  Biso   1.000  H
  H7       1.0000 0.30440  0.08820  0.73160  Biso   1.000  H
  H8       1.0000 0.50890  0.10620  0.74720  Biso   1.000  H
  H9       1.0000 0.78460  0.48290  0.93250  Biso   1.000  H
  H10      1.0000 0.66200  0.60140  0.99200  Biso   1.000  H
  H11      1.0000 0.12780  0.31450  0.16090  Biso   1.000  H
  H12      1.0000 0.06990  0.30720  0.03600  Biso   1.000  H
  H13      1.0000 0.60780  0.44210  0.18540  Biso   1.000  H
  H14      1.0000 0.70600  0.32480  0.11980  Biso   1.000  H
  H15      1.0000 0.45410  0.84870  0.46750  Biso   1.000  H
  H16      1.0000 0.12050  0.48470  0.85410  Biso   1.000  H
  H17      1.0000 0.76140  0.96530  0.44300  Biso   1.000  H
  H18      1.0000 0.77600  0.81180  0.51210  Biso   1.000  H
  H19      1.0000 0.27780  0.05590  0.34860  Biso   1.000  H
  H20      1.0000 0.45870  0.11380  0.34270  Biso   1.000  H
  H21      1.0000 0.69560  0.91180  0.26840  Biso   1.000  H
  H22      1.0000 0.49110  0.89380  0.25280  Biso   1.000  H
  H23      1.0000 0.21540  0.51710  0.06750  Biso   1.000  H
  H24      1.0000 0.33800  0.39860  0.00800  Biso   1.000  H
  H25      1.0000 0.87220  0.68550  0.83910  Biso   1.000  H
  H26      1.0000 0.93010  0.69280  0.96400  Biso   1.000  H
  H27      1.0000 0.39220  0.55790  0.81460  Biso   1.000  H
  H28      1.0000 0.29400  0.67520  0.88020  Biso   1.000  H
  C1       1.0000 0.31230  0.09570  0.50780  Biso   1.000  C
  C2       1.0000 0.61220  0.94840  0.60690  Biso   1.000  C
  C3       1.0000 0.40100  0.13640  0.69310  Biso   1.000  C
  C4       1.0000 0.79310  0.54280  0.98120  Biso   1.000  C
  C5       1.0000 0.07460  0.36940  0.08340  Biso   1.000  C
  C6       1.0000 0.73160  0.37750  0.17030  Biso   1.000  C
  C7       1.0000 0.68770  0.90430  0.49220  Biso   1.000  C
  C8       1.0000 0.38780  0.05160  0.39310  Biso   1.000  C
  C9       1.0000 0.59900  0.86360  0.30690  Biso   1.000  C
  C10      1.0000 0.20690  0.45720  0.01880  Biso   1.000  C
  C11      1.0000 0.92540  0.63060  0.91660  Biso   1.000  C
  C12      1.0000 0.26840  0.62250  0.82970  Biso   1.000  C
  N1       1.0000 0.47800  0.09300  0.57830  Biso   1.000  N
  N2       1.0000 0.87100  0.45700  0.10250  Biso   1.000  N
  N3       1.0000 0.52200  0.90700  0.42170  Biso   1.000  N
  N4       1.0000 0.12900  0.54300  0.89750  Biso   1.000  N
  O1       1.0000 0.22230  0.32390  0.80750  Biso   1.000  O
  O2       1.0000 0.11970  0.37220  0.59200  Biso   1.000  O
  O3       1.0000 0.44250  0.39740  0.62430  Biso   1.000  O
  O4       1.0000 0.91580  0.11980  0.29090  Biso   1.000  O
  O5       1.0000 0.96250  0.32000  0.35750  Biso   1.000  O
  O6       1.0000 0.63940  0.26440  0.40060  Biso   1.000  O
  O7       1.0000 0.72210  0.56420  0.68600  Biso   1.000  O
  O8       1.0000 0.85900  0.14640  0.67330  Biso   1.000  O
  O9       1.0000 0.77770  0.67610  0.19250  Biso   1.000  O
  O10      1.0000 0.88030  0.62780  0.40800  Biso   1.000  O
  O11      1.0000 0.55750  0.60260  0.37570  Biso   1.000  O
  O12      1.0000 0.08420  0.88020  0.70910  Biso   1.000  O
  O13      1.0000 0.03750  0.68000  0.64250  Biso   1.000  O
  O14      1.0000 0.36060  0.73560  0.59940  Biso   1.000  O
  O15      1.0000 0.27790  0.43580  0.31400  Biso   1.000  O
  O16      1.0000 0.14100  0.85360  0.32670  Biso   1.000  O
