data_image0
_cell_length_a       7.101
_cell_length_b       7.626
_cell_length_c       11.3156
_cell_angle_alpha    90
_cell_angle_beta     106.603
_cell_angle_gamma    90

_symmetry_space_group_name_H-M    P 1
_symmetry_int_tables_number       1

loop_
  _symmetry_equiv_pos_as_xyz
  'x, y, z'

loop_
  _atom_site_label
  _atom_site_occupancy
  _atom_site_fract_x
  _atom_site_fract_y
  _atom_site_fract_z
  _atom_site_thermal_displace_type
  _atom_site_B_iso_or_equiv
  _atom_site_type_symbol
  Cd1      1.0000 0.00000  0.00000  0.00000  Biso   1.000  Cd
  Ni1      1.0000 0.50000  0.50000  0.00000  Biso   1.000  Ni
  H1       1.0000 0.82099  0.88475  0.75741  Biso   1.000  H
  H2       1.0000 0.53912  0.88475  0.83291  Biso   1.000  H
  H3       1.0000 0.48928  0.88475  0.60835  Biso   1.000  H
  H4       1.0000 0.19702  0.88475  0.68800  Biso   1.000  H
  H5       1.0000 0.17901  0.88475  0.24259  Biso   1.000  H
  H6       1.0000 0.46088  0.88475  0.16709  Biso   1.000  H
  H7       1.0000 0.51072  0.88475  0.39165  Biso   1.000  H
  H8       1.0000 0.80298  0.88475  0.31200  Biso   1.000  H
  H9       1.0000 0.17901  0.11525  0.24259  Biso   1.000  H
  H10      1.0000 0.46088  0.11525  0.16709  Biso   1.000  H
  H11      1.0000 0.51072  0.11525  0.39165  Biso   1.000  H
  H12      1.0000 0.80298  0.11525  0.31200  Biso   1.000  H
  H13      1.0000 0.82099  0.11525  0.75741  Biso   1.000  H
  H14      1.0000 0.53912  0.11525  0.83291  Biso   1.000  H
  H15      1.0000 0.48928  0.11525  0.60835  Biso   1.000  H
  H16      1.0000 0.19702  0.11525  0.68800  Biso   1.000  H
  C1       1.0000 0.69310  0.67130  0.03800  Biso   1.000  C
  C2       1.0000 0.30690  0.67130  0.96200  Biso   1.000  C
  C3       1.0000 0.30690  0.32870  0.96200  Biso   1.000  C
  C4       1.0000 0.69310  0.32870  0.03800  Biso   1.000  C
  C5       1.0000 0.57590  0.00000  0.78790  Biso   1.000  C
  C6       1.0000 0.45280  0.00000  0.65480  Biso   1.000  C
  C7       1.0000 0.23340  0.00000  0.64240  Biso   1.000  C
  C8       1.0000 0.11050  0.00000  0.50650  Biso   1.000  C
  C9       1.0000 0.42410  0.00000  0.21210  Biso   1.000  C
  C10      1.0000 0.54720  0.00000  0.34520  Biso   1.000  C
  C11      1.0000 0.76660  0.00000  0.35760  Biso   1.000  C
  C12      1.0000 0.88950  0.00000  0.49350  Biso   1.000  C
  N1       1.0000 0.81180  0.77700  0.05730  Biso   1.000  N
  N2       1.0000 0.18820  0.77700  0.94270  Biso   1.000  N
  N3       1.0000 0.18820  0.22300  0.94270  Biso   1.000  N
  N4       1.0000 0.81180  0.22300  0.05730  Biso   1.000  N
  N5       1.0000 0.78790  0.00000  0.80510  Biso   1.000  N
  N6       1.0000 0.21210  0.00000  0.19490  Biso   1.000  N
