data_image0
_cell_length_a       12.665
_cell_length_b       15.7376
_cell_length_c       15.7376
_cell_angle_alpha    80.6821
_cell_angle_beta     66.2728
_cell_angle_gamma    66.2728

_symmetry_space_group_name_H-M    P 1
_symmetry_int_tables_number       1

loop_
  _symmetry_equiv_pos_as_xyz
  'x, y, z'

loop_
  _atom_site_label
  _atom_site_occupancy
  _atom_site_fract_x
  _atom_site_fract_y
  _atom_site_fract_z
  _atom_site_thermal_displace_type
  _atom_site_B_iso_or_equiv
  _atom_site_type_symbol
  Cu1      1.0000 0.00000  0.50000  0.50000  Biso   1.000  Cu
  Cu2      1.0000 0.50000  0.00000  0.00000  Biso   1.000  Cu
  Cu3      1.0000 0.50000  0.50000  0.00000  Biso   1.000  Cu
  Cu4      1.0000 0.50000  0.00000  0.50000  Biso   1.000  Cu
  H1       1.0000 0.38330  0.52730  0.85070  Biso   1.000  H
  H2       1.0000 0.54770  0.29250  0.95870  Biso   1.000  H
  H3       1.0000 0.47330  0.25390  0.85490  Biso   1.000  H
  H4       1.0000 0.47490  0.29410  0.69130  Biso   1.000  H
  H5       1.0000 0.37800  0.31020  0.58820  Biso   1.000  H
  H6       1.0000 0.10560  0.53870  0.72170  Biso   1.000  H
  H7       1.0000 0.20260  0.52420  0.82260  Biso   1.000  H
  H8       1.0000 0.26130  0.97270  0.64930  Biso   1.000  H
  H9       1.0000 0.29890  0.20750  0.54130  Biso   1.000  H
  H10      1.0000 0.08210  0.24610  0.64510  Biso   1.000  H
  H11      1.0000 0.96030  0.20590  0.80870  Biso   1.000  H
  H12      1.0000 0.77640  0.18980  0.91180  Biso   1.000  H
  H13      1.0000 0.86600  0.96130  0.77830  Biso   1.000  H
  H14      1.0000 0.04940  0.97580  0.67740  Biso   1.000  H
  H15      1.0000 0.23400  0.14930  0.02730  Biso   1.000  H
  H16      1.0000 0.50640  0.04130  0.79250  Biso   1.000  H
  H17      1.0000 0.32820  0.14510  0.75390  Biso   1.000  H
  H18      1.0000 0.16620  0.30870  0.79410  Biso   1.000  H
  H19      1.0000 0.96620  0.41180  0.81020  Biso   1.000  H
  H20      1.0000 0.82730  0.27830  0.03870  Biso   1.000  H
  H21      1.0000 0.02520  0.17740  0.02420  Biso   1.000  H
  H22      1.0000 0.91060  0.35070  0.47270  Biso   1.000  H
  H23      1.0000 0.84020  0.45870  0.70750  Biso   1.000  H
  H24      1.0000 0.72720  0.35490  0.74610  Biso   1.000  H
  H25      1.0000 0.76900  0.19130  0.70590  Biso   1.000  H
  H26      1.0000 0.68820  0.08820  0.68980  Biso   1.000  H
  H27      1.0000 0.64430  0.22170  0.46130  Biso   1.000  H
  H28      1.0000 0.72680  0.32260  0.47580  Biso   1.000  H
  H29      1.0000 0.61670  0.47270  0.14930  Biso   1.000  H
  H30      1.0000 0.45230  0.70750  0.04130  Biso   1.000  H
  H31      1.0000 0.52670  0.74610  0.14510  Biso   1.000  H
  H32      1.0000 0.52510  0.70590  0.30870  Biso   1.000  H
  H33      1.0000 0.62200  0.68980  0.41180  Biso   1.000  H
  H34      1.0000 0.89440  0.46130  0.27830  Biso   1.000  H
  H35      1.0000 0.79740  0.47580  0.17740  Biso   1.000  H
  H36      1.0000 0.73870  0.02730  0.35070  Biso   1.000  H
  H37      1.0000 0.70110  0.79250  0.45870  Biso   1.000  H
  H38      1.0000 0.91790  0.75390  0.35490  Biso   1.000  H
  H39      1.0000 0.03970  0.79410  0.19130  Biso   1.000  H
  H40      1.0000 0.22360  0.81020  0.08820  Biso   1.000  H
  H41      1.0000 0.13400  0.03870  0.22170  Biso   1.000  H
  H42      1.0000 0.95060  0.02420  0.32260  Biso   1.000  H
  H43      1.0000 0.76600  0.85070  0.97270  Biso   1.000  H
  H44      1.0000 0.49360  0.95870  0.20750  Biso   1.000  H
  H45      1.0000 0.67180  0.85490  0.24610  Biso   1.000  H
  H46      1.0000 0.83380  0.69130  0.20590  Biso   1.000  H
  H47      1.0000 0.03380  0.58820  0.18980  Biso   1.000  H
  H48      1.0000 0.17270  0.72170  0.96130  Biso   1.000  H
  H49      1.0000 0.97480  0.82260  0.97580  Biso   1.000  H
  H50      1.0000 0.08940  0.64930  0.52730  Biso   1.000  H
  H51      1.0000 0.15980  0.54130  0.29250  Biso   1.000  H
  H52      1.0000 0.27280  0.64510  0.25390  Biso   1.000  H
  H53      1.0000 0.23100  0.80870  0.29410  Biso   1.000  H
  H54      1.0000 0.31180  0.91180  0.31020  Biso   1.000  H
  H55      1.0000 0.35570  0.77830  0.53870  Biso   1.000  H
  H56      1.0000 0.27320  0.67740  0.52420  Biso   1.000  H
  C1       1.0000 0.41430  0.46460  0.86520  Biso   1.000  C
  C2       1.0000 0.50500  0.33500  0.92400  Biso   1.000  C
  C3       1.0000 0.46400  0.31290  0.86710  Biso   1.000  C
  C4       1.0000 0.34640  0.40840  0.76580  Biso   1.000  C
  C5       1.0000 0.40070  0.34350  0.69690  Biso   1.000  C
  C6       1.0000 0.34210  0.35340  0.63540  Biso   1.000  C
  C7       1.0000 0.23330  0.42520  0.64360  Biso   1.000  C
  C8       1.0000 0.18040  0.48960  0.71500  Biso   1.000  C
  C9       1.0000 0.23780  0.48090  0.77550  Biso   1.000  C
  C10      1.0000 0.16590  0.43400  0.58020  Biso   1.000  C
  C11      1.0000 0.24410  0.03540  0.63480  Biso   1.000  C
  C12      1.0000 0.26400  0.16500  0.57600  Biso   1.000  C
  C13      1.0000 0.14400  0.18710  0.63290  Biso   1.000  C
  C14      1.0000 0.02060  0.09160  0.73420  Biso   1.000  C
  C15      1.0000 0.94110  0.15650  0.80310  Biso   1.000  C
  C16      1.0000 0.83090  0.14660  0.86460  Biso   1.000  C
  C17      1.0000 0.80210  0.07480  0.85640  Biso   1.000  C
  C18      1.0000 0.88500  0.01040  0.78500  Biso   1.000  C
  C19      1.0000 0.99420  0.01910  0.72450  Biso   1.000  C
  C20      1.0000 0.68010  0.06600  0.91980  Biso   1.000  C
  C21      1.0000 0.27950  0.13480  0.96460  Biso   1.000  C
  C22      1.0000 0.42900  0.07600  0.83500  Biso   1.000  C
  C23      1.0000 0.33110  0.13290  0.81290  Biso   1.000  C
  C24      1.0000 0.11220  0.23420  0.90840  Biso   1.000  C
  C25      1.0000 0.09760  0.30310  0.84350  Biso   1.000  C
  C26      1.0000 0.97750  0.36460  0.85340  Biso   1.000  C
  C27      1.0000 0.87690  0.35640  0.92520  Biso   1.000  C
  C28      1.0000 0.89540  0.28500  0.98960  Biso   1.000  C
  C29      1.0000 0.01330  0.22450  0.98090  Biso   1.000  C
  C30      1.0000 0.74610  0.41980  0.93400  Biso   1.000  C
  C31      1.0000 0.87890  0.36520  0.53540  Biso   1.000  C
  C32      1.0000 0.84000  0.42400  0.66500  Biso   1.000  C
  C33      1.0000 0.77690  0.36710  0.68710  Biso   1.000  C
  C34      1.0000 0.75480  0.26580  0.59160  Biso   1.000  C
  C35      1.0000 0.74420  0.19690  0.65650  Biso   1.000  C
  C36      1.0000 0.69550  0.13540  0.64660  Biso   1.000  C
  C37      1.0000 0.65850  0.14360  0.57480  Biso   1.000  C
  C38      1.0000 0.67000  0.21500  0.51040  Biso   1.000  C
  C39      1.0000 0.71870  0.27550  0.51910  Biso   1.000  C
  C40      1.0000 0.59990  0.08020  0.56600  Biso   1.000  C
  C41      1.0000 0.58570  0.53540  0.13480  Biso   1.000  C
  C42      1.0000 0.49500  0.66500  0.07600  Biso   1.000  C
  C43      1.0000 0.53600  0.68710  0.13290  Biso   1.000  C
  C44      1.0000 0.65360  0.59160  0.23420  Biso   1.000  C
  C45      1.0000 0.59930  0.65650  0.30310  Biso   1.000  C
  C46      1.0000 0.65790  0.64660  0.36460  Biso   1.000  C
  C47      1.0000 0.76670  0.57480  0.35640  Biso   1.000  C
  C48      1.0000 0.81960  0.51040  0.28500  Biso   1.000  C
  C49      1.0000 0.76220  0.51910  0.22450  Biso   1.000  C
  C50      1.0000 0.83410  0.56600  0.41980  Biso   1.000  C
  C51      1.0000 0.75590  0.96460  0.36520  Biso   1.000  C
  C52      1.0000 0.73600  0.83500  0.42400  Biso   1.000  C
  C53      1.0000 0.85600  0.81290  0.36710  Biso   1.000  C
  C54      1.0000 0.97940  0.90840  0.26580  Biso   1.000  C
  C55      1.0000 0.05890  0.84350  0.19690  Biso   1.000  C
  C56      1.0000 0.16910  0.85340  0.13540  Biso   1.000  C
  C57      1.0000 0.19790  0.92520  0.14360  Biso   1.000  C
  C58      1.0000 0.11500  0.98960  0.21500  Biso   1.000  C
  C59      1.0000 0.00580  0.98090  0.27550  Biso   1.000  C
  C60      1.0000 0.31990  0.93400  0.08020  Biso   1.000  C
  C61      1.0000 0.72050  0.86520  0.03540  Biso   1.000  C
  C62      1.0000 0.57100  0.92400  0.16500  Biso   1.000  C
  C63      1.0000 0.66890  0.86710  0.18710  Biso   1.000  C
  C64      1.0000 0.88780  0.76580  0.09160  Biso   1.000  C
  C65      1.0000 0.90240  0.69690  0.15650  Biso   1.000  C
  C66      1.0000 0.02250  0.63540  0.14660  Biso   1.000  C
  C67      1.0000 0.12310  0.64360  0.07480  Biso   1.000  C
  C68      1.0000 0.10460  0.71500  0.01040  Biso   1.000  C
  C69      1.0000 0.98670  0.77550  0.01910  Biso   1.000  C
  C70      1.0000 0.25390  0.58020  0.06600  Biso   1.000  C
  C71      1.0000 0.12110  0.63480  0.46460  Biso   1.000  C
  C72      1.0000 0.16000  0.57600  0.33500  Biso   1.000  C
  C73      1.0000 0.22310  0.63290  0.31290  Biso   1.000  C
  C74      1.0000 0.24520  0.73420  0.40840  Biso   1.000  C
  C75      1.0000 0.25580  0.80310  0.34350  Biso   1.000  C
  C76      1.0000 0.30450  0.86460  0.35340  Biso   1.000  C
  C77      1.0000 0.34150  0.85640  0.42520  Biso   1.000  C
  C78      1.0000 0.33000  0.78500  0.48960  Biso   1.000  C
  C79      1.0000 0.28130  0.72450  0.48090  Biso   1.000  C
  C80      1.0000 0.40010  0.91980  0.43400  Biso   1.000  C
  N1       1.0000 0.47480  0.42870  0.92350  Biso   1.000  N
  N2       1.0000 0.40540  0.39550  0.83070  Biso   1.000  N
  N3       1.0000 0.32700  0.07130  0.57650  Biso   1.000  N
  N4       1.0000 0.13160  0.10450  0.66930  Biso   1.000  N
  N5       1.0000 0.39830  0.07650  0.92870  Biso   1.000  N
  N6       1.0000 0.23610  0.16930  0.89550  Biso   1.000  N
  N7       1.0000 0.90350  0.42350  0.57130  Biso   1.000  N
  N8       1.0000 0.80090  0.33070  0.60450  Biso   1.000  N
  N9       1.0000 0.52520  0.57130  0.07650  Biso   1.000  N
  N10      1.0000 0.59460  0.60450  0.16930  Biso   1.000  N
  N11      1.0000 0.67300  0.92870  0.42350  Biso   1.000  N
  N12      1.0000 0.86840  0.89550  0.33070  Biso   1.000  N
  N13      1.0000 0.60170  0.92350  0.07130  Biso   1.000  N
  N14      1.0000 0.76390  0.83070  0.10450  Biso   1.000  N
  N15      1.0000 0.09650  0.57650  0.42870  Biso   1.000  N
  N16      1.0000 0.19910  0.66930  0.39550  Biso   1.000  N
  O1       1.0000 0.05770  0.49140  0.60020  Biso   1.000  O
  O2       1.0000 0.22730  0.38080  0.51020  Biso   1.000  O
  O3       1.0000 0.64930  0.00860  0.89980  Biso   1.000  O
  O4       1.0000 0.61830  0.11920  0.98980  Biso   1.000  O
  O5       1.0000 0.65790  0.39980  0.99140  Biso   1.000  O
  O6       1.0000 0.73750  0.48980  0.88080  Biso   1.000  O
  O7       1.0000 0.54910  0.10020  0.50860  Biso   1.000  O
  O8       1.0000 0.60810  0.01020  0.61920  Biso   1.000  O
  O9       1.0000 0.94230  0.50860  0.39980  Biso   1.000  O
  O10      1.0000 0.77270  0.61920  0.48980  Biso   1.000  O
  O11      1.0000 0.35070  0.99140  0.10020  Biso   1.000  O
  O12      1.0000 0.38170  0.88080  0.01020  Biso   1.000  O
  O13      1.0000 0.34210  0.60020  0.00860  Biso   1.000  O
  O14      1.0000 0.26250  0.51020  0.11920  Biso   1.000  O
  O15      1.0000 0.45090  0.89980  0.49140  Biso   1.000  O
  O16      1.0000 0.39190  0.98980  0.38080  Biso   1.000  O
