data_image0
_cell_length_a       13.7372
_cell_length_b       14.7731
_cell_length_c       21.075
_cell_angle_alpha    90
_cell_angle_beta     90
_cell_angle_gamma    90

_symmetry_space_group_name_H-M    P 1
_symmetry_int_tables_number       1

loop_
  _symmetry_equiv_pos_as_xyz
  'x, y, z'

loop_
  _atom_site_label
  _atom_site_occupancy
  _atom_site_fract_x
  _atom_site_fract_y
  _atom_site_fract_z
  _atom_site_thermal_displace_type
  _atom_site_B_iso_or_equiv
  _atom_site_type_symbol
  Zn1      1.0000 0.52877  0.09766  0.93839  Biso   1.000  Zn
  Zn2      1.0000 0.47123  0.59766  0.56161  Biso   1.000  Zn
  Zn3      1.0000 0.47123  0.90234  0.06161  Biso   1.000  Zn
  Zn4      1.0000 0.52877  0.40234  0.43839  Biso   1.000  Zn
  H1       1.0000 0.51340  0.36590  0.82010  Biso   1.000  H
  H2       1.0000 0.53160  0.22210  0.73700  Biso   1.000  H
  H3       1.0000 0.50790  0.41040  0.70750  Biso   1.000  H
  H4       1.0000 0.52960  0.26580  0.62540  Biso   1.000  H
  H5       1.0000 0.34700  0.03070  0.86650  Biso   1.000  H
  H6       1.0000 0.18100  0.02780  0.87040  Biso   1.000  H
  H7       1.0000 0.19320  0.17290  0.03180  Biso   1.000  H
  H8       1.0000 0.35960  0.17370  0.02260  Biso   1.000  H
  H9       1.0000 0.03640  0.12950  0.99510  Biso   1.000  H
  H10      1.0000 0.02060  0.04490  0.87900  Biso   1.000  H
  H11      1.0000 0.71750  0.14860  0.01500  Biso   1.000  H
  H12      1.0000 0.88310  0.14120  0.00970  Biso   1.000  H
  H13      1.0000 0.85510  0.01460  0.84130  Biso   1.000  H
  H14      1.0000 0.68960  0.02570  0.85210  Biso   1.000  H
  H15      1.0000 0.48660  0.86590  0.67990  Biso   1.000  H
  H16      1.0000 0.46840  0.72210  0.76300  Biso   1.000  H
  H17      1.0000 0.49210  0.91040  0.79250  Biso   1.000  H
  H18      1.0000 0.47040  0.76580  0.87460  Biso   1.000  H
  H19      1.0000 0.65300  0.53070  0.63350  Biso   1.000  H
  H20      1.0000 0.81900  0.52780  0.62960  Biso   1.000  H
  H21      1.0000 0.80680  0.67290  0.46820  Biso   1.000  H
  H22      1.0000 0.64040  0.67370  0.47740  Biso   1.000  H
  H23      1.0000 0.96360  0.62950  0.50490  Biso   1.000  H
  H24      1.0000 0.97940  0.54490  0.62100  Biso   1.000  H
  H25      1.0000 0.28250  0.64860  0.48500  Biso   1.000  H
  H26      1.0000 0.11690  0.64120  0.49030  Biso   1.000  H
  H27      1.0000 0.14490  0.51460  0.65870  Biso   1.000  H
  H28      1.0000 0.31040  0.52570  0.64790  Biso   1.000  H
  H29      1.0000 0.48660  0.63410  0.17990  Biso   1.000  H
  H30      1.0000 0.46840  0.77790  0.26300  Biso   1.000  H
  H31      1.0000 0.49210  0.58960  0.29250  Biso   1.000  H
  H32      1.0000 0.47040  0.73420  0.37460  Biso   1.000  H
  H33      1.0000 0.65300  0.96930  0.13350  Biso   1.000  H
  H34      1.0000 0.81900  0.97220  0.12960  Biso   1.000  H
  H35      1.0000 0.80680  0.82710  0.96820  Biso   1.000  H
  H36      1.0000 0.64040  0.82630  0.97740  Biso   1.000  H
  H37      1.0000 0.96360  0.87050  0.00490  Biso   1.000  H
  H38      1.0000 0.97940  0.95510  0.12100  Biso   1.000  H
  H39      1.0000 0.28250  0.85140  0.98500  Biso   1.000  H
  H40      1.0000 0.11690  0.85880  0.99030  Biso   1.000  H
  H41      1.0000 0.14490  0.98540  0.15870  Biso   1.000  H
  H42      1.0000 0.31040  0.97430  0.14790  Biso   1.000  H
  H43      1.0000 0.51340  0.13410  0.32010  Biso   1.000  H
  H44      1.0000 0.53160  0.27790  0.23700  Biso   1.000  H
  H45      1.0000 0.50790  0.08960  0.20750  Biso   1.000  H
  H46      1.0000 0.52960  0.23420  0.12540  Biso   1.000  H
  H47      1.0000 0.34700  0.46930  0.36650  Biso   1.000  H
  H48      1.0000 0.18100  0.47220  0.37040  Biso   1.000  H
  H49      1.0000 0.19320  0.32710  0.53180  Biso   1.000  H
  H50      1.0000 0.35960  0.32630  0.52260  Biso   1.000  H
  H51      1.0000 0.03640  0.37050  0.49510  Biso   1.000  H
  H52      1.0000 0.02060  0.45510  0.37900  Biso   1.000  H
  H53      1.0000 0.71750  0.35140  0.51500  Biso   1.000  H
  H54      1.0000 0.88310  0.35880  0.50970  Biso   1.000  H
  H55      1.0000 0.85510  0.48540  0.34130  Biso   1.000  H
  H56      1.0000 0.68960  0.47430  0.35210  Biso   1.000  H
  C1       1.0000 0.52330  0.23590  0.86094  Biso   1.000  C
  C2       1.0000 0.51920  0.30450  0.80892  Biso   1.000  C
  C3       1.0000 0.52340  0.28340  0.74789  Biso   1.000  C
  C4       1.0000 0.51620  0.34910  0.69680  Biso   1.000  C
  C5       1.0000 0.52070  0.32700  0.63605  Biso   1.000  C
  C6       1.0000 0.51240  0.39390  0.58376  Biso   1.000  C
  C7       1.0000 0.31560  0.05970  0.90050  Biso   1.000  C
  C8       1.0000 0.21620  0.05780  0.90230  Biso   1.000  C
  C9       1.0000 0.16760  0.10070  0.95170  Biso   1.000  C
  C10      1.0000 0.22320  0.14360  0.99738  Biso   1.000  C
  C11      1.0000 0.32300  0.14290  0.99174  Biso   1.000  C
  C12      1.0000 0.06140  0.10320  0.95793  Biso   1.000  C
  C13      1.0000 0.99660  0.07190  0.91626  Biso   1.000  C
  C14      1.0000 0.74600  0.12100  0.97933  Biso   1.000  C
  C15      1.0000 0.84540  0.11700  0.97657  Biso   1.000  C
  C16      1.0000 0.89070  0.07680  0.92429  Biso   1.000  C
  C17      1.0000 0.82880  0.04250  0.87752  Biso   1.000  C
  C18      1.0000 0.72940  0.04940  0.88435  Biso   1.000  C
  C19      1.0000 0.47670  0.73590  0.63906  Biso   1.000  C
  C20      1.0000 0.48080  0.80450  0.69108  Biso   1.000  C
  C21      1.0000 0.47660  0.78340  0.75211  Biso   1.000  C
  C22      1.0000 0.48380  0.84910  0.80320  Biso   1.000  C
  C23      1.0000 0.47930  0.82700  0.86395  Biso   1.000  C
  C24      1.0000 0.48760  0.89390  0.91624  Biso   1.000  C
  C25      1.0000 0.68440  0.55970  0.59950  Biso   1.000  C
  C26      1.0000 0.78380  0.55780  0.59770  Biso   1.000  C
  C27      1.0000 0.83240  0.60070  0.54830  Biso   1.000  C
  C28      1.0000 0.77680  0.64360  0.50262  Biso   1.000  C
  C29      1.0000 0.67700  0.64290  0.50826  Biso   1.000  C
  C30      1.0000 0.93860  0.60320  0.54207  Biso   1.000  C
  C31      1.0000 0.00340  0.57190  0.58374  Biso   1.000  C
  C32      1.0000 0.25400  0.62100  0.52067  Biso   1.000  C
  C33      1.0000 0.15460  0.61700  0.52343  Biso   1.000  C
  C34      1.0000 0.10930  0.57680  0.57571  Biso   1.000  C
  C35      1.0000 0.17120  0.54250  0.62248  Biso   1.000  C
  C36      1.0000 0.27060  0.54940  0.61565  Biso   1.000  C
  C37      1.0000 0.47670  0.76410  0.13906  Biso   1.000  C
  C38      1.0000 0.48080  0.69550  0.19108  Biso   1.000  C
  C39      1.0000 0.47660  0.71660  0.25211  Biso   1.000  C
  C40      1.0000 0.48380  0.65090  0.30320  Biso   1.000  C
  C41      1.0000 0.47930  0.67300  0.36395  Biso   1.000  C
  C42      1.0000 0.48760  0.60610  0.41624  Biso   1.000  C
  C43      1.0000 0.68440  0.94030  0.09950  Biso   1.000  C
  C44      1.0000 0.78380  0.94220  0.09770  Biso   1.000  C
  C45      1.0000 0.83240  0.89930  0.04830  Biso   1.000  C
  C46      1.0000 0.77680  0.85640  0.00262  Biso   1.000  C
  C47      1.0000 0.67700  0.85710  0.00826  Biso   1.000  C
  C48      1.0000 0.93860  0.89680  0.04207  Biso   1.000  C
  C49      1.0000 0.00340  0.92810  0.08374  Biso   1.000  C
  C50      1.0000 0.25400  0.87900  0.02067  Biso   1.000  C
  C51      1.0000 0.15460  0.88300  0.02343  Biso   1.000  C
  C52      1.0000 0.10930  0.92320  0.07571  Biso   1.000  C
  C53      1.0000 0.17120  0.95750  0.12248  Biso   1.000  C
  C54      1.0000 0.27060  0.95060  0.11565  Biso   1.000  C
  C55      1.0000 0.52330  0.26410  0.36094  Biso   1.000  C
  C56      1.0000 0.51920  0.19550  0.30892  Biso   1.000  C
  C57      1.0000 0.52340  0.21660  0.24789  Biso   1.000  C
  C58      1.0000 0.51620  0.15090  0.19680  Biso   1.000  C
  C59      1.0000 0.52070  0.17300  0.13605  Biso   1.000  C
  C60      1.0000 0.51240  0.10610  0.08376  Biso   1.000  C
  C61      1.0000 0.31560  0.44030  0.40050  Biso   1.000  C
  C62      1.0000 0.21620  0.44220  0.40230  Biso   1.000  C
  C63      1.0000 0.16760  0.39930  0.45170  Biso   1.000  C
  C64      1.0000 0.22320  0.35640  0.49738  Biso   1.000  C
  C65      1.0000 0.32300  0.35710  0.49174  Biso   1.000  C
  C66      1.0000 0.06140  0.39680  0.45793  Biso   1.000  C
  C67      1.0000 0.99660  0.42810  0.41626  Biso   1.000  C
  C68      1.0000 0.74600  0.37900  0.47933  Biso   1.000  C
  C69      1.0000 0.84540  0.38300  0.47657  Biso   1.000  C
  C70      1.0000 0.89070  0.42320  0.42429  Biso   1.000  C
  C71      1.0000 0.82880  0.45750  0.37752  Biso   1.000  C
  C72      1.0000 0.72940  0.45060  0.38435  Biso   1.000  C
  N1       1.0000 0.37144  0.10094  0.94491  Biso   1.000  N
  N2       1.0000 0.68652  0.08791  0.93437  Biso   1.000  N
  N3       1.0000 0.62856  0.60094  0.55509  Biso   1.000  N
  N4       1.0000 0.31348  0.58791  0.56563  Biso   1.000  N
  N5       1.0000 0.62856  0.89906  0.05509  Biso   1.000  N
  N6       1.0000 0.31348  0.91209  0.06563  Biso   1.000  N
  N7       1.0000 0.37144  0.39906  0.44491  Biso   1.000  N
  N8       1.0000 0.68652  0.41209  0.43437  Biso   1.000  N
  O1       1.0000 0.52531  0.15267  0.84695  Biso   1.000  O
  O2       1.0000 0.52510  0.26186  0.91692  Biso   1.000  O
  O3       1.0000 0.47673  0.46951  0.59623  Biso   1.000  O
  O4       1.0000 0.54249  0.36743  0.53034  Biso   1.000  O
  O5       1.0000 0.47469  0.65267  0.65305  Biso   1.000  O
  O6       1.0000 0.47490  0.76186  0.58308  Biso   1.000  O
  O7       1.0000 0.52327  0.96951  0.90377  Biso   1.000  O
  O8       1.0000 0.45751  0.86743  0.96966  Biso   1.000  O
  O9       1.0000 0.47469  0.84733  0.15305  Biso   1.000  O
  O10      1.0000 0.47490  0.73814  0.08308  Biso   1.000  O
  O11      1.0000 0.52327  0.53049  0.40377  Biso   1.000  O
  O12      1.0000 0.45751  0.63257  0.46966  Biso   1.000  O
  O13      1.0000 0.52531  0.34733  0.34695  Biso   1.000  O
  O14      1.0000 0.52510  0.23814  0.41692  Biso   1.000  O
  O15      1.0000 0.47673  0.03049  0.09623  Biso   1.000  O
  O16      1.0000 0.54249  0.13257  0.03034  Biso   1.000  O
  Zn5      1.0000 0.97123  0.90234  0.43839  Biso   1.000  Zn
  Zn6      1.0000 0.02877  0.40234  0.06161  Biso   1.000  Zn
  Zn7      1.0000 0.02877  0.09766  0.56161  Biso   1.000  Zn
  Zn8      1.0000 0.97123  0.59766  0.93839  Biso   1.000  Zn
  H57      1.0000 0.98660  0.63410  0.32010  Biso   1.000  H
  H58      1.0000 0.96840  0.77790  0.23700  Biso   1.000  H
  H59      1.0000 0.99210  0.58960  0.20750  Biso   1.000  H
  H60      1.0000 0.97040  0.73420  0.12540  Biso   1.000  H
  H61      1.0000 0.15300  0.96930  0.36650  Biso   1.000  H
  H62      1.0000 0.31900  0.97220  0.37040  Biso   1.000  H
  H63      1.0000 0.30680  0.82710  0.53180  Biso   1.000  H
  H64      1.0000 0.14040  0.82630  0.52260  Biso   1.000  H
  H65      1.0000 0.46360  0.87050  0.49510  Biso   1.000  H
  H66      1.0000 0.47940  0.95510  0.37900  Biso   1.000  H
  H67      1.0000 0.78250  0.85140  0.51500  Biso   1.000  H
  H68      1.0000 0.61690  0.85880  0.50970  Biso   1.000  H
  H69      1.0000 0.64490  0.98540  0.34130  Biso   1.000  H
  H70      1.0000 0.81040  0.97430  0.35210  Biso   1.000  H
  H71      1.0000 0.01340  0.13410  0.17990  Biso   1.000  H
  H72      1.0000 0.03160  0.27790  0.26300  Biso   1.000  H
  H73      1.0000 0.00790  0.08960  0.29250  Biso   1.000  H
  H74      1.0000 0.02960  0.23420  0.37460  Biso   1.000  H
  H75      1.0000 0.84700  0.46930  0.13350  Biso   1.000  H
  H76      1.0000 0.68100  0.47220  0.12960  Biso   1.000  H
  H77      1.0000 0.69320  0.32710  0.96820  Biso   1.000  H
  H78      1.0000 0.85960  0.32630  0.97740  Biso   1.000  H
  H79      1.0000 0.53640  0.37050  0.00490  Biso   1.000  H
  H80      1.0000 0.52060  0.45510  0.12100  Biso   1.000  H
  H81      1.0000 0.21750  0.35140  0.98500  Biso   1.000  H
  H82      1.0000 0.38310  0.35880  0.99030  Biso   1.000  H
  H83      1.0000 0.35510  0.48540  0.15870  Biso   1.000  H
  H84      1.0000 0.18960  0.47430  0.14790  Biso   1.000  H
  H85      1.0000 0.01340  0.36590  0.67990  Biso   1.000  H
  H86      1.0000 0.03160  0.22210  0.76300  Biso   1.000  H
  H87      1.0000 0.00790  0.41040  0.79250  Biso   1.000  H
  H88      1.0000 0.02960  0.26580  0.87460  Biso   1.000  H
  H89      1.0000 0.84700  0.03070  0.63350  Biso   1.000  H
  H90      1.0000 0.68100  0.02780  0.62960  Biso   1.000  H
  H91      1.0000 0.69320  0.17290  0.46820  Biso   1.000  H
  H92      1.0000 0.85960  0.17370  0.47740  Biso   1.000  H
  H93      1.0000 0.53640  0.12950  0.50490  Biso   1.000  H
  H94      1.0000 0.52060  0.04490  0.62100  Biso   1.000  H
  H95      1.0000 0.21750  0.14860  0.48500  Biso   1.000  H
  H96      1.0000 0.38310  0.14120  0.49030  Biso   1.000  H
  H97      1.0000 0.35510  0.01460  0.65870  Biso   1.000  H
  H98      1.0000 0.18960  0.02570  0.64790  Biso   1.000  H
  H99      1.0000 0.98660  0.86590  0.82010  Biso   1.000  H
  H100     1.0000 0.96840  0.72210  0.73700  Biso   1.000  H
  H101     1.0000 0.99210  0.91040  0.70750  Biso   1.000  H
  H102     1.0000 0.97040  0.76580  0.62540  Biso   1.000  H
  H103     1.0000 0.15300  0.53070  0.86650  Biso   1.000  H
  H104     1.0000 0.31900  0.52780  0.87040  Biso   1.000  H
  H105     1.0000 0.30680  0.67290  0.03180  Biso   1.000  H
  H106     1.0000 0.14040  0.67370  0.02260  Biso   1.000  H
  H107     1.0000 0.46360  0.62950  0.99510  Biso   1.000  H
  H108     1.0000 0.47940  0.54490  0.87900  Biso   1.000  H
  H109     1.0000 0.78250  0.64860  0.01500  Biso   1.000  H
  H110     1.0000 0.61690  0.64120  0.00970  Biso   1.000  H
  H111     1.0000 0.64490  0.51460  0.84130  Biso   1.000  H
  H112     1.0000 0.81040  0.52570  0.85210  Biso   1.000  H
  C73      1.0000 0.97670  0.76410  0.36094  Biso   1.000  C
  C74      1.0000 0.98080  0.69550  0.30892  Biso   1.000  C
  C75      1.0000 0.97660  0.71660  0.24789  Biso   1.000  C
  C76      1.0000 0.98380  0.65090  0.19680  Biso   1.000  C
  C77      1.0000 0.97930  0.67300  0.13605  Biso   1.000  C
  C78      1.0000 0.98760  0.60610  0.08376  Biso   1.000  C
  C79      1.0000 0.18440  0.94030  0.40050  Biso   1.000  C
  C80      1.0000 0.28380  0.94220  0.40230  Biso   1.000  C
  C81      1.0000 0.33240  0.89930  0.45170  Biso   1.000  C
  C82      1.0000 0.27680  0.85640  0.49738  Biso   1.000  C
  C83      1.0000 0.17700  0.85710  0.49174  Biso   1.000  C
  C84      1.0000 0.43860  0.89680  0.45793  Biso   1.000  C
  C85      1.0000 0.50340  0.92810  0.41626  Biso   1.000  C
  C86      1.0000 0.75400  0.87900  0.47933  Biso   1.000  C
  C87      1.0000 0.65460  0.88300  0.47657  Biso   1.000  C
  C88      1.0000 0.60930  0.92320  0.42429  Biso   1.000  C
  C89      1.0000 0.67120  0.95750  0.37752  Biso   1.000  C
  C90      1.0000 0.77060  0.95060  0.38435  Biso   1.000  C
  C91      1.0000 0.02330  0.26410  0.13906  Biso   1.000  C
  C92      1.0000 0.01920  0.19550  0.19108  Biso   1.000  C
  C93      1.0000 0.02340  0.21660  0.25211  Biso   1.000  C
  C94      1.0000 0.01620  0.15090  0.30320  Biso   1.000  C
  C95      1.0000 0.02070  0.17300  0.36395  Biso   1.000  C
  C96      1.0000 0.01240  0.10610  0.41624  Biso   1.000  C
  C97      1.0000 0.81560  0.44030  0.09950  Biso   1.000  C
  C98      1.0000 0.71620  0.44220  0.09770  Biso   1.000  C
  C99      1.0000 0.66760  0.39930  0.04830  Biso   1.000  C
  C100     1.0000 0.72320  0.35640  0.00262  Biso   1.000  C
  C101     1.0000 0.82300  0.35710  0.00826  Biso   1.000  C
  C102     1.0000 0.56140  0.39680  0.04207  Biso   1.000  C
  C103     1.0000 0.49660  0.42810  0.08374  Biso   1.000  C
  C104     1.0000 0.24600  0.37900  0.02067  Biso   1.000  C
  C105     1.0000 0.34540  0.38300  0.02343  Biso   1.000  C
  C106     1.0000 0.39070  0.42320  0.07571  Biso   1.000  C
  C107     1.0000 0.32880  0.45750  0.12248  Biso   1.000  C
  C108     1.0000 0.22940  0.45060  0.11565  Biso   1.000  C
  C109     1.0000 0.02330  0.23590  0.63906  Biso   1.000  C
  C110     1.0000 0.01920  0.30450  0.69108  Biso   1.000  C
  C111     1.0000 0.02340  0.28340  0.75211  Biso   1.000  C
  C112     1.0000 0.01620  0.34910  0.80320  Biso   1.000  C
  C113     1.0000 0.02070  0.32700  0.86395  Biso   1.000  C
  C114     1.0000 0.01240  0.39390  0.91624  Biso   1.000  C
  C115     1.0000 0.81560  0.05970  0.59950  Biso   1.000  C
  C116     1.0000 0.71620  0.05780  0.59770  Biso   1.000  C
  C117     1.0000 0.66760  0.10070  0.54830  Biso   1.000  C
  C118     1.0000 0.72320  0.14360  0.50262  Biso   1.000  C
  C119     1.0000 0.82300  0.14290  0.50826  Biso   1.000  C
  C120     1.0000 0.56140  0.10320  0.54207  Biso   1.000  C
  C121     1.0000 0.49660  0.07190  0.58374  Biso   1.000  C
  C122     1.0000 0.24600  0.12100  0.52067  Biso   1.000  C
  C123     1.0000 0.34540  0.11700  0.52343  Biso   1.000  C
  C124     1.0000 0.39070  0.07680  0.57571  Biso   1.000  C
  C125     1.0000 0.32880  0.04250  0.62248  Biso   1.000  C
  C126     1.0000 0.22940  0.04940  0.61565  Biso   1.000  C
  C127     1.0000 0.97670  0.73590  0.86094  Biso   1.000  C
  C128     1.0000 0.98080  0.80450  0.80892  Biso   1.000  C
  C129     1.0000 0.97660  0.78340  0.74789  Biso   1.000  C
  C130     1.0000 0.98380  0.84910  0.69680  Biso   1.000  C
  C131     1.0000 0.97930  0.82700  0.63605  Biso   1.000  C
  C132     1.0000 0.98760  0.89390  0.58376  Biso   1.000  C
  C133     1.0000 0.18440  0.55970  0.90050  Biso   1.000  C
  C134     1.0000 0.28380  0.55780  0.90230  Biso   1.000  C
  C135     1.0000 0.33240  0.60070  0.95170  Biso   1.000  C
  C136     1.0000 0.27680  0.64360  0.99738  Biso   1.000  C
  C137     1.0000 0.17700  0.64290  0.99174  Biso   1.000  C
  C138     1.0000 0.43860  0.60320  0.95793  Biso   1.000  C
  C139     1.0000 0.50340  0.57190  0.91626  Biso   1.000  C
  C140     1.0000 0.75400  0.62100  0.97933  Biso   1.000  C
  C141     1.0000 0.65460  0.61700  0.97657  Biso   1.000  C
  C142     1.0000 0.60930  0.57680  0.92429  Biso   1.000  C
  C143     1.0000 0.67120  0.54250  0.87752  Biso   1.000  C
  C144     1.0000 0.77060  0.54940  0.88435  Biso   1.000  C
  N9       1.0000 0.12856  0.89906  0.44491  Biso   1.000  N
  N10      1.0000 0.81348  0.91209  0.43437  Biso   1.000  N
  N11      1.0000 0.87144  0.39906  0.05509  Biso   1.000  N
  N12      1.0000 0.18652  0.41209  0.06563  Biso   1.000  N
  N13      1.0000 0.87144  0.10094  0.55509  Biso   1.000  N
  N14      1.0000 0.18652  0.08791  0.56563  Biso   1.000  N
  N15      1.0000 0.12856  0.60094  0.94491  Biso   1.000  N
  N16      1.0000 0.81348  0.58791  0.93437  Biso   1.000  N
  O17      1.0000 0.97469  0.84733  0.34695  Biso   1.000  O
  O18      1.0000 0.97490  0.73814  0.41692  Biso   1.000  O
  O19      1.0000 0.02327  0.53049  0.09623  Biso   1.000  O
  O20      1.0000 0.95751  0.63257  0.03034  Biso   1.000  O
  O21      1.0000 0.02531  0.34733  0.15305  Biso   1.000  O
  O22      1.0000 0.02510  0.23814  0.08308  Biso   1.000  O
  O23      1.0000 0.97673  0.03049  0.40377  Biso   1.000  O
  O24      1.0000 0.04249  0.13257  0.46966  Biso   1.000  O
  O25      1.0000 0.02531  0.15267  0.65305  Biso   1.000  O
  O26      1.0000 0.02510  0.26186  0.58308  Biso   1.000  O
  O27      1.0000 0.97673  0.46951  0.90377  Biso   1.000  O
  O28      1.0000 0.04249  0.36743  0.96966  Biso   1.000  O
  O29      1.0000 0.97469  0.65267  0.84695  Biso   1.000  O
  O30      1.0000 0.97490  0.76186  0.91692  Biso   1.000  O
  O31      1.0000 0.02327  0.96951  0.59623  Biso   1.000  O
  O32      1.0000 0.95751  0.86743  0.53034  Biso   1.000  O
