data_image0
_cell_length_a       13.5
_cell_length_b       14.702
_cell_length_c       21.245
_cell_angle_alpha    90
_cell_angle_beta     90
_cell_angle_gamma    90

_symmetry_space_group_name_H-M    P 1
_symmetry_int_tables_number       1

loop_
  _symmetry_equiv_pos_as_xyz
  'x, y, z'

loop_
  _atom_site_label
  _atom_site_occupancy
  _atom_site_fract_x
  _atom_site_fract_y
  _atom_site_fract_z
  _atom_site_thermal_displace_type
  _atom_site_B_iso_or_equiv
  _atom_site_type_symbol
  Zn1      1.0000 0.50187  0.39481  0.56855  Biso   1.000  Zn
  Zn2      1.0000 0.49813  0.89481  0.93145  Biso   1.000  Zn
  Zn3      1.0000 0.49813  0.60519  0.43145  Biso   1.000  Zn
  Zn4      1.0000 0.50187  0.10519  0.06855  Biso   1.000  Zn
  H1       1.0000 0.67410  0.47190  0.65110  Biso   1.000  H
  H2       1.0000 0.83900  0.50830  0.64410  Biso   1.000  H
  H3       1.0000 0.85240  0.36720  0.48410  Biso   1.000  H
  H4       1.0000 0.68760  0.33440  0.49570  Biso   1.000  H
  H5       1.0000 0.99440  0.51290  0.58540  Biso   1.000  H
  H6       1.0000 0.30760  0.46300  0.63300  Biso   1.000  H
  H7       1.0000 0.14300  0.48260  0.61370  Biso   1.000  H
  H8       1.0000 0.17470  0.32750  0.46030  Biso   1.000  H
  H9       1.0000 0.33790  0.30990  0.48620  Biso   1.000  H
  H10      1.0000 0.00680  0.37880  0.49100  Biso   1.000  H
  H11      1.0000 0.51700  0.13840  0.69020  Biso   1.000  H
  H12      1.0000 0.50560  0.28270  0.77180  Biso   1.000  H
  H13      1.0000 0.51640  0.09430  0.80150  Biso   1.000  H
  H14      1.0000 0.50000  0.23770  0.88290  Biso   1.000  H
  H15      1.0000 0.32590  0.97190  0.84890  Biso   1.000  H
  H16      1.0000 0.16100  0.00830  0.85590  Biso   1.000  H
  H17      1.0000 0.14760  0.86720  0.01590  Biso   1.000  H
  H18      1.0000 0.31240  0.83440  0.00430  Biso   1.000  H
  H19      1.0000 0.00560  0.01290  0.91460  Biso   1.000  H
  H20      1.0000 0.69240  0.96300  0.86700  Biso   1.000  H
  H21      1.0000 0.85700  0.98260  0.88630  Biso   1.000  H
  H22      1.0000 0.82530  0.82750  0.03970  Biso   1.000  H
  H23      1.0000 0.66210  0.80990  0.01380  Biso   1.000  H
  H24      1.0000 0.99320  0.87880  0.00900  Biso   1.000  H
  H25      1.0000 0.48300  0.63840  0.80980  Biso   1.000  H
  H26      1.0000 0.49440  0.78270  0.72820  Biso   1.000  H
  H27      1.0000 0.48360  0.59430  0.69850  Biso   1.000  H
  H28      1.0000 0.50000  0.73770  0.61710  Biso   1.000  H
  H29      1.0000 0.32590  0.52810  0.34890  Biso   1.000  H
  H30      1.0000 0.16100  0.49170  0.35590  Biso   1.000  H
  H31      1.0000 0.14760  0.63280  0.51590  Biso   1.000  H
  H32      1.0000 0.31240  0.66560  0.50430  Biso   1.000  H
  H33      1.0000 0.00560  0.48710  0.41460  Biso   1.000  H
  H34      1.0000 0.69240  0.53700  0.36700  Biso   1.000  H
  H35      1.0000 0.85700  0.51740  0.38630  Biso   1.000  H
  H36      1.0000 0.82530  0.67250  0.53970  Biso   1.000  H
  H37      1.0000 0.66210  0.69010  0.51380  Biso   1.000  H
  H38      1.0000 0.99320  0.62120  0.50900  Biso   1.000  H
  H39      1.0000 0.48300  0.86160  0.30980  Biso   1.000  H
  H40      1.0000 0.49440  0.71730  0.22820  Biso   1.000  H
  H41      1.0000 0.48360  0.90570  0.19850  Biso   1.000  H
  H42      1.0000 0.50000  0.76230  0.11710  Biso   1.000  H
  H43      1.0000 0.67410  0.02810  0.15110  Biso   1.000  H
  H44      1.0000 0.83900  0.99170  0.14410  Biso   1.000  H
  H45      1.0000 0.85240  0.13280  0.98410  Biso   1.000  H
  H46      1.0000 0.68760  0.16560  0.99570  Biso   1.000  H
  H47      1.0000 0.99440  0.98710  0.08540  Biso   1.000  H
  H48      1.0000 0.30760  0.03700  0.13300  Biso   1.000  H
  H49      1.0000 0.14300  0.01740  0.11370  Biso   1.000  H
  H50      1.0000 0.17470  0.17250  0.96030  Biso   1.000  H
  H51      1.0000 0.33790  0.19010  0.98620  Biso   1.000  H
  H52      1.0000 0.00680  0.12120  0.99100  Biso   1.000  H
  H53      1.0000 0.51700  0.36160  0.19020  Biso   1.000  H
  H54      1.0000 0.50560  0.21730  0.27180  Biso   1.000  H
  H55      1.0000 0.51640  0.40570  0.30150  Biso   1.000  H
  H56      1.0000 0.50000  0.26230  0.38290  Biso   1.000  H
  C1       1.0000 0.70980  0.45260  0.61620  Biso   1.000  C
  C2       1.0000 0.80910  0.47510  0.61210  Biso   1.000  C
  C3       1.0000 0.86390  0.44830  0.56030  Biso   1.000  C
  C4       1.0000 0.81720  0.39180  0.51760  Biso   1.000  C
  C5       1.0000 0.71810  0.37210  0.52500  Biso   1.000  C
  C6       1.0000 0.96340  0.49000  0.54690  Biso   1.000  C
  C7       1.0000 0.28080  0.43670  0.59700  Biso   1.000  C
  C8       1.0000 0.18160  0.44950  0.58550  Biso   1.000  C
  C9       1.0000 0.13940  0.41290  0.53180  Biso   1.000  C
  C10      1.0000 0.20020  0.35760  0.49520  Biso   1.000  C
  C11      1.0000 0.29900  0.34770  0.51120  Biso   1.000  C
  C12      1.0000 0.03840  0.43450  0.50650  Biso   1.000  C
  C13      1.0000 0.50760  0.26890  0.64980  Biso   1.000  C
  C14      1.0000 0.51200  0.19950  0.70120  Biso   1.000  C
  C15      1.0000 0.50910  0.22130  0.76130  Biso   1.000  C
  C16      1.0000 0.51110  0.15540  0.81210  Biso   1.000  C
  C17      1.0000 0.50580  0.17660  0.87210  Biso   1.000  C
  C18      1.0000 0.50870  0.10860  0.92340  Biso   1.000  C
  C19      1.0000 0.29020  0.95260  0.88380  Biso   1.000  C
  C20      1.0000 0.19090  0.97510  0.88790  Biso   1.000  C
  C21      1.0000 0.13610  0.94830  0.93970  Biso   1.000  C
  C22      1.0000 0.18280  0.89180  0.98240  Biso   1.000  C
  C23      1.0000 0.28190  0.87210  0.97500  Biso   1.000  C
  C24      1.0000 0.03660  0.99000  0.95310  Biso   1.000  C
  C25      1.0000 0.71920  0.93670  0.90300  Biso   1.000  C
  C26      1.0000 0.81840  0.94950  0.91450  Biso   1.000  C
  C27      1.0000 0.86060  0.91290  0.96820  Biso   1.000  C
  C28      1.0000 0.79980  0.85760  0.00480  Biso   1.000  C
  C29      1.0000 0.70100  0.84770  0.98880  Biso   1.000  C
  C30      1.0000 0.96160  0.93450  0.99350  Biso   1.000  C
  C31      1.0000 0.49240  0.76890  0.85020  Biso   1.000  C
  C32      1.0000 0.48800  0.69950  0.79880  Biso   1.000  C
  C33      1.0000 0.49090  0.72130  0.73870  Biso   1.000  C
  C34      1.0000 0.48890  0.65540  0.68790  Biso   1.000  C
  C35      1.0000 0.49420  0.67660  0.62790  Biso   1.000  C
  C36      1.0000 0.49130  0.60860  0.57660  Biso   1.000  C
  C37      1.0000 0.29020  0.54740  0.38380  Biso   1.000  C
  C38      1.0000 0.19090  0.52490  0.38790  Biso   1.000  C
  C39      1.0000 0.13610  0.55170  0.43970  Biso   1.000  C
  C40      1.0000 0.18280  0.60820  0.48240  Biso   1.000  C
  C41      1.0000 0.28190  0.62790  0.47500  Biso   1.000  C
  C42      1.0000 0.03660  0.51000  0.45310  Biso   1.000  C
  C43      1.0000 0.71920  0.56330  0.40300  Biso   1.000  C
  C44      1.0000 0.81840  0.55050  0.41450  Biso   1.000  C
  C45      1.0000 0.86060  0.58710  0.46820  Biso   1.000  C
  C46      1.0000 0.79980  0.64240  0.50480  Biso   1.000  C
  C47      1.0000 0.70100  0.65230  0.48880  Biso   1.000  C
  C48      1.0000 0.96160  0.56550  0.49350  Biso   1.000  C
  C49      1.0000 0.49240  0.73110  0.35020  Biso   1.000  C
  C50      1.0000 0.48800  0.80050  0.29880  Biso   1.000  C
  C51      1.0000 0.49090  0.77870  0.23870  Biso   1.000  C
  C52      1.0000 0.48890  0.84460  0.18790  Biso   1.000  C
  C53      1.0000 0.49420  0.82340  0.12790  Biso   1.000  C
  C54      1.0000 0.49130  0.89140  0.07660  Biso   1.000  C
  C55      1.0000 0.70980  0.04740  0.11620  Biso   1.000  C
  C56      1.0000 0.80910  0.02490  0.11210  Biso   1.000  C
  C57      1.0000 0.86390  0.05170  0.06030  Biso   1.000  C
  C58      1.0000 0.81720  0.10820  0.01760  Biso   1.000  C
  C59      1.0000 0.71810  0.12790  0.02500  Biso   1.000  C
  C60      1.0000 0.96340  0.01000  0.04690  Biso   1.000  C
  C61      1.0000 0.28080  0.06330  0.09700  Biso   1.000  C
  C62      1.0000 0.18160  0.05050  0.08550  Biso   1.000  C
  C63      1.0000 0.13940  0.08710  0.03180  Biso   1.000  C
  C64      1.0000 0.20020  0.14240  0.99520  Biso   1.000  C
  C65      1.0000 0.29900  0.15230  0.01120  Biso   1.000  C
  C66      1.0000 0.03840  0.06550  0.00650  Biso   1.000  C
  C67      1.0000 0.50760  0.23110  0.14980  Biso   1.000  C
  C68      1.0000 0.51200  0.30050  0.20120  Biso   1.000  C
  C69      1.0000 0.50910  0.27870  0.26130  Biso   1.000  C
  C70      1.0000 0.51110  0.34460  0.31210  Biso   1.000  C
  C71      1.0000 0.50580  0.32340  0.37210  Biso   1.000  C
  C72      1.0000 0.50870  0.39140  0.42340  Biso   1.000  C
  N1       1.0000 0.66360  0.40500  0.57280  Biso   1.000  N
  N2       1.0000 0.34180  0.38840  0.55960  Biso   1.000  N
  N3       1.0000 0.33640  0.90500  0.92720  Biso   1.000  N
  N4       1.0000 0.65820  0.88840  0.94040  Biso   1.000  N
  N5       1.0000 0.33640  0.59500  0.42720  Biso   1.000  N
  N6       1.0000 0.65820  0.61160  0.44040  Biso   1.000  N
  N7       1.0000 0.66360  0.09500  0.07280  Biso   1.000  N
  N8       1.0000 0.34180  0.11160  0.05960  Biso   1.000  N
  O1       1.0000 0.49890  0.35200  0.66364  Biso   1.000  O
  O2       1.0000 0.51110  0.24200  0.59430  Biso   1.000  O
  O3       1.0000 0.51330  0.14210  0.97744  Biso   1.000  O
  O4       1.0000 0.50790  0.02770  0.90880  Biso   1.000  O
  O5       1.0000 0.50110  0.85200  0.83636  Biso   1.000  O
  O6       1.0000 0.48890  0.74200  0.90570  Biso   1.000  O
  O7       1.0000 0.48670  0.64210  0.52256  Biso   1.000  O
  O8       1.0000 0.49210  0.52770  0.59120  Biso   1.000  O
  O9       1.0000 0.50110  0.64800  0.33636  Biso   1.000  O
  O10      1.0000 0.48890  0.75800  0.40570  Biso   1.000  O
  O11      1.0000 0.48670  0.85790  0.02256  Biso   1.000  O
  O12      1.0000 0.49210  0.97230  0.09120  Biso   1.000  O
  O13      1.0000 0.49890  0.14800  0.16364  Biso   1.000  O
  O14      1.0000 0.51110  0.25800  0.09430  Biso   1.000  O
  O15      1.0000 0.51330  0.35790  0.47744  Biso   1.000  O
  O16      1.0000 0.50790  0.47230  0.40880  Biso   1.000  O
  Zn5      1.0000 0.99813  0.60519  0.06855  Biso   1.000  Zn
  Zn6      1.0000 0.00187  0.10519  0.43145  Biso   1.000  Zn
  Zn7      1.0000 0.00187  0.39481  0.93145  Biso   1.000  Zn
  Zn8      1.0000 0.99813  0.89481  0.56855  Biso   1.000  Zn
  H57      1.0000 0.82590  0.52810  0.15110  Biso   1.000  H
  H58      1.0000 0.66100  0.49170  0.14410  Biso   1.000  H
  H59      1.0000 0.64760  0.63280  0.98410  Biso   1.000  H
  H60      1.0000 0.81240  0.66560  0.99570  Biso   1.000  H
  H61      1.0000 0.50560  0.48710  0.08540  Biso   1.000  H
  H62      1.0000 0.19240  0.53700  0.13300  Biso   1.000  H
  H63      1.0000 0.35700  0.51740  0.11370  Biso   1.000  H
  H64      1.0000 0.32530  0.67250  0.96030  Biso   1.000  H
  H65      1.0000 0.16210  0.69010  0.98620  Biso   1.000  H
  H66      1.0000 0.49320  0.62120  0.99100  Biso   1.000  H
  H67      1.0000 0.98300  0.86160  0.19020  Biso   1.000  H
  H68      1.0000 0.99440  0.71730  0.27180  Biso   1.000  H
  H69      1.0000 0.98360  0.90570  0.30150  Biso   1.000  H
  H70      1.0000 0.00000  0.76230  0.38290  Biso   1.000  H
  H71      1.0000 0.17410  0.02810  0.34890  Biso   1.000  H
  H72      1.0000 0.33900  0.99170  0.35590  Biso   1.000  H
  H73      1.0000 0.35240  0.13280  0.51590  Biso   1.000  H
  H74      1.0000 0.18760  0.16560  0.50430  Biso   1.000  H
  H75      1.0000 0.49440  0.98710  0.41460  Biso   1.000  H
  H76      1.0000 0.80760  0.03700  0.36700  Biso   1.000  H
  H77      1.0000 0.64300  0.01740  0.38630  Biso   1.000  H
  H78      1.0000 0.67470  0.17250  0.53970  Biso   1.000  H
  H79      1.0000 0.83790  0.19010  0.51380  Biso   1.000  H
  H80      1.0000 0.50680  0.12120  0.50900  Biso   1.000  H
  H81      1.0000 0.01700  0.36160  0.30980  Biso   1.000  H
  H82      1.0000 0.00560  0.21730  0.22820  Biso   1.000  H
  H83      1.0000 0.01640  0.40570  0.19850  Biso   1.000  H
  H84      1.0000 0.00000  0.26230  0.11710  Biso   1.000  H
  H85      1.0000 0.17410  0.47190  0.84890  Biso   1.000  H
  H86      1.0000 0.33900  0.50830  0.85590  Biso   1.000  H
  H87      1.0000 0.35240  0.36720  0.01590  Biso   1.000  H
  H88      1.0000 0.18760  0.33440  0.00430  Biso   1.000  H
  H89      1.0000 0.49440  0.51290  0.91460  Biso   1.000  H
  H90      1.0000 0.80760  0.46300  0.86700  Biso   1.000  H
  H91      1.0000 0.64300  0.48260  0.88630  Biso   1.000  H
  H92      1.0000 0.67470  0.32750  0.03970  Biso   1.000  H
  H93      1.0000 0.83790  0.30990  0.01380  Biso   1.000  H
  H94      1.0000 0.50680  0.37880  0.00900  Biso   1.000  H
  H95      1.0000 0.01700  0.13840  0.80980  Biso   1.000  H
  H96      1.0000 0.00560  0.28270  0.72820  Biso   1.000  H
  H97      1.0000 0.01640  0.09430  0.69850  Biso   1.000  H
  H98      1.0000 0.00000  0.23770  0.61710  Biso   1.000  H
  H99      1.0000 0.82590  0.97190  0.65110  Biso   1.000  H
  H100     1.0000 0.66100  0.00830  0.64410  Biso   1.000  H
  H101     1.0000 0.64760  0.86720  0.48410  Biso   1.000  H
  H102     1.0000 0.81240  0.83440  0.49570  Biso   1.000  H
  H103     1.0000 0.50560  0.01290  0.58540  Biso   1.000  H
  H104     1.0000 0.19240  0.96300  0.63300  Biso   1.000  H
  H105     1.0000 0.35700  0.98260  0.61370  Biso   1.000  H
  H106     1.0000 0.32530  0.82750  0.46030  Biso   1.000  H
  H107     1.0000 0.16210  0.80990  0.48620  Biso   1.000  H
  H108     1.0000 0.49320  0.87880  0.49100  Biso   1.000  H
  H109     1.0000 0.98300  0.63840  0.69020  Biso   1.000  H
  H110     1.0000 0.99440  0.78270  0.77180  Biso   1.000  H
  H111     1.0000 0.98360  0.59430  0.80150  Biso   1.000  H
  H112     1.0000 0.00000  0.73770  0.88290  Biso   1.000  H
  C73      1.0000 0.79020  0.54740  0.11620  Biso   1.000  C
  C74      1.0000 0.69090  0.52490  0.11210  Biso   1.000  C
  C75      1.0000 0.63610  0.55170  0.06030  Biso   1.000  C
  C76      1.0000 0.68280  0.60820  0.01760  Biso   1.000  C
  C77      1.0000 0.78190  0.62790  0.02500  Biso   1.000  C
  C78      1.0000 0.53660  0.51000  0.04690  Biso   1.000  C
  C79      1.0000 0.21920  0.56330  0.09700  Biso   1.000  C
  C80      1.0000 0.31840  0.55050  0.08550  Biso   1.000  C
  C81      1.0000 0.36060  0.58710  0.03180  Biso   1.000  C
  C82      1.0000 0.29980  0.64240  0.99520  Biso   1.000  C
  C83      1.0000 0.20100  0.65230  0.01120  Biso   1.000  C
  C84      1.0000 0.46160  0.56550  0.00650  Biso   1.000  C
  C85      1.0000 0.99240  0.73110  0.14980  Biso   1.000  C
  C86      1.0000 0.98800  0.80050  0.20120  Biso   1.000  C
  C87      1.0000 0.99090  0.77870  0.26130  Biso   1.000  C
  C88      1.0000 0.98890  0.84460  0.31210  Biso   1.000  C
  C89      1.0000 0.99420  0.82340  0.37210  Biso   1.000  C
  C90      1.0000 0.99130  0.89140  0.42340  Biso   1.000  C
  C91      1.0000 0.20980  0.04740  0.38380  Biso   1.000  C
  C92      1.0000 0.30910  0.02490  0.38790  Biso   1.000  C
  C93      1.0000 0.36390  0.05170  0.43970  Biso   1.000  C
  C94      1.0000 0.31720  0.10820  0.48240  Biso   1.000  C
  C95      1.0000 0.21810  0.12790  0.47500  Biso   1.000  C
  C96      1.0000 0.46340  0.01000  0.45310  Biso   1.000  C
  C97      1.0000 0.78080  0.06330  0.40300  Biso   1.000  C
  C98      1.0000 0.68160  0.05050  0.41450  Biso   1.000  C
  C99      1.0000 0.63940  0.08710  0.46820  Biso   1.000  C
  C100     1.0000 0.70020  0.14240  0.50480  Biso   1.000  C
  C101     1.0000 0.79900  0.15230  0.48880  Biso   1.000  C
  C102     1.0000 0.53840  0.06550  0.49350  Biso   1.000  C
  C103     1.0000 0.00760  0.23110  0.35020  Biso   1.000  C
  C104     1.0000 0.01200  0.30050  0.29880  Biso   1.000  C
  C105     1.0000 0.00910  0.27870  0.23870  Biso   1.000  C
  C106     1.0000 0.01110  0.34460  0.18790  Biso   1.000  C
  C107     1.0000 0.00580  0.32340  0.12790  Biso   1.000  C
  C108     1.0000 0.00870  0.39140  0.07660  Biso   1.000  C
  C109     1.0000 0.20980  0.45260  0.88380  Biso   1.000  C
  C110     1.0000 0.30910  0.47510  0.88790  Biso   1.000  C
  C111     1.0000 0.36390  0.44830  0.93970  Biso   1.000  C
  C112     1.0000 0.31720  0.39180  0.98240  Biso   1.000  C
  C113     1.0000 0.21810  0.37210  0.97500  Biso   1.000  C
  C114     1.0000 0.46340  0.49000  0.95310  Biso   1.000  C
  C115     1.0000 0.78080  0.43670  0.90300  Biso   1.000  C
  C116     1.0000 0.68160  0.44950  0.91450  Biso   1.000  C
  C117     1.0000 0.63940  0.41290  0.96820  Biso   1.000  C
  C118     1.0000 0.70020  0.35760  0.00480  Biso   1.000  C
  C119     1.0000 0.79900  0.34770  0.98880  Biso   1.000  C
  C120     1.0000 0.53840  0.43450  0.99350  Biso   1.000  C
  C121     1.0000 0.00760  0.26890  0.85020  Biso   1.000  C
  C122     1.0000 0.01200  0.19950  0.79880  Biso   1.000  C
  C123     1.0000 0.00910  0.22130  0.73870  Biso   1.000  C
  C124     1.0000 0.01110  0.15540  0.68790  Biso   1.000  C
  C125     1.0000 0.00580  0.17660  0.62790  Biso   1.000  C
  C126     1.0000 0.00870  0.10860  0.57660  Biso   1.000  C
  C127     1.0000 0.79020  0.95260  0.61620  Biso   1.000  C
  C128     1.0000 0.69090  0.97510  0.61210  Biso   1.000  C
  C129     1.0000 0.63610  0.94830  0.56030  Biso   1.000  C
  C130     1.0000 0.68280  0.89180  0.51760  Biso   1.000  C
  C131     1.0000 0.78190  0.87210  0.52500  Biso   1.000  C
  C132     1.0000 0.53660  0.99000  0.54690  Biso   1.000  C
  C133     1.0000 0.21920  0.93670  0.59700  Biso   1.000  C
  C134     1.0000 0.31840  0.94950  0.58550  Biso   1.000  C
  C135     1.0000 0.36060  0.91290  0.53180  Biso   1.000  C
  C136     1.0000 0.29980  0.85760  0.49520  Biso   1.000  C
  C137     1.0000 0.20100  0.84770  0.51120  Biso   1.000  C
  C138     1.0000 0.46160  0.93450  0.50650  Biso   1.000  C
  C139     1.0000 0.99240  0.76890  0.64980  Biso   1.000  C
  C140     1.0000 0.98800  0.69950  0.70120  Biso   1.000  C
  C141     1.0000 0.99090  0.72130  0.76130  Biso   1.000  C
  C142     1.0000 0.98890  0.65540  0.81210  Biso   1.000  C
  C143     1.0000 0.99420  0.67660  0.87210  Biso   1.000  C
  C144     1.0000 0.99130  0.60860  0.92340  Biso   1.000  C
  N9       1.0000 0.83640  0.59500  0.07280  Biso   1.000  N
  N10      1.0000 0.15820  0.61160  0.05960  Biso   1.000  N
  N11      1.0000 0.16360  0.09500  0.42720  Biso   1.000  N
  N12      1.0000 0.84180  0.11160  0.44040  Biso   1.000  N
  N13      1.0000 0.16360  0.40500  0.92720  Biso   1.000  N
  N14      1.0000 0.84180  0.38840  0.94040  Biso   1.000  N
  N15      1.0000 0.83640  0.90500  0.57280  Biso   1.000  N
  N16      1.0000 0.15820  0.88840  0.55960  Biso   1.000  N
  O17      1.0000 0.00110  0.64800  0.16364  Biso   1.000  O
  O18      1.0000 0.98890  0.75800  0.09430  Biso   1.000  O
  O19      1.0000 0.98670  0.85790  0.47744  Biso   1.000  O
  O20      1.0000 0.99210  0.97230  0.40880  Biso   1.000  O
  O21      1.0000 0.99890  0.14800  0.33636  Biso   1.000  O
  O22      1.0000 0.01110  0.25800  0.40570  Biso   1.000  O
  O23      1.0000 0.01330  0.35790  0.02256  Biso   1.000  O
  O24      1.0000 0.00790  0.47230  0.09120  Biso   1.000  O
  O25      1.0000 0.99890  0.35200  0.83636  Biso   1.000  O
  O26      1.0000 0.01110  0.24200  0.90570  Biso   1.000  O
  O27      1.0000 0.01330  0.14210  0.52256  Biso   1.000  O
  O28      1.0000 0.00790  0.02770  0.59120  Biso   1.000  O
  O29      1.0000 0.00110  0.85200  0.66364  Biso   1.000  O
  O30      1.0000 0.98890  0.74200  0.59430  Biso   1.000  O
  O31      1.0000 0.98670  0.64210  0.97744  Biso   1.000  O
  O32      1.0000 0.99210  0.52770  0.90880  Biso   1.000  O
