data_image0
_cell_length_a       17.48
_cell_length_b       17.48
_cell_length_c       22.69
_cell_angle_alpha    90
_cell_angle_beta     90
_cell_angle_gamma    90

_symmetry_space_group_name_H-M    P 1
_symmetry_int_tables_number       1

loop_
  _symmetry_equiv_pos_as_xyz
  'x, y, z'

loop_
  _atom_site_label
  _atom_site_occupancy
  _atom_site_fract_x
  _atom_site_fract_y
  _atom_site_fract_z
  _atom_site_thermal_displace_type
  _atom_site_B_iso_or_equiv
  _atom_site_type_symbol
  Zn1      1.0000 0.56833  0.08295  0.79704  Biso   1.000  Zn
  Zn2      1.0000 0.43167  0.91705  0.79704  Biso   1.000  Zn
  Zn3      1.0000 0.08295  0.43167  0.20296  Biso   1.000  Zn
  Zn4      1.0000 0.91705  0.56833  0.20296  Biso   1.000  Zn
  Zn5      1.0000 0.93167  0.58295  0.70296  Biso   1.000  Zn
  Zn6      1.0000 0.06833  0.41705  0.70296  Biso   1.000  Zn
  Zn7      1.0000 0.41705  0.93167  0.29704  Biso   1.000  Zn
  Zn8      1.0000 0.58295  0.06833  0.29704  Biso   1.000  Zn
  H1       1.0000 0.63990  0.97490  0.50500  Biso   1.000  H
  H2       1.0000 0.55450  0.77910  0.77200  Biso   1.000  H
  H3       1.0000 0.70960  0.68480  0.73460  Biso   1.000  H
  H4       1.0000 0.46740  0.12720  0.68590  Biso   1.000  H
  H5       1.0000 0.90860  0.84190  0.74280  Biso   1.000  H
  H6       1.0000 0.53200  0.16860  0.39620  Biso   1.000  H
  H7       1.0000 0.66930  0.03100  0.69700  Biso   1.000  H
  H8       1.0000 0.63800  0.97050  0.40460  Biso   1.000  H
  H9       1.0000 0.52810  0.17600  0.49690  Biso   1.000  H
  H10      1.0000 0.47240  0.12740  0.58490  Biso   1.000  H
  H11      1.0000 0.75260  0.94220  0.77610  Biso   1.000  H
  H12      1.0000 0.68070  0.02790  0.59550  Biso   1.000  H
  H13      1.0000 0.36010  0.02510  0.50500  Biso   1.000  H
  H14      1.0000 0.44550  0.22090  0.77200  Biso   1.000  H
  H15      1.0000 0.29040  0.31520  0.73460  Biso   1.000  H
  H16      1.0000 0.53260  0.87280  0.68590  Biso   1.000  H
  H17      1.0000 0.09140  0.15810  0.74280  Biso   1.000  H
  H18      1.0000 0.46800  0.83140  0.39620  Biso   1.000  H
  H19      1.0000 0.33070  0.96900  0.69700  Biso   1.000  H
  H20      1.0000 0.36200  0.02950  0.40460  Biso   1.000  H
  H21      1.0000 0.47190  0.82400  0.49690  Biso   1.000  H
  H22      1.0000 0.52760  0.87260  0.58490  Biso   1.000  H
  H23      1.0000 0.24740  0.05780  0.77610  Biso   1.000  H
  H24      1.0000 0.31930  0.97210  0.59550  Biso   1.000  H
  H25      1.0000 0.97490  0.36010  0.49500  Biso   1.000  H
  H26      1.0000 0.77910  0.44550  0.22800  Biso   1.000  H
  H27      1.0000 0.68480  0.29040  0.26540  Biso   1.000  H
  H28      1.0000 0.12720  0.53260  0.31410  Biso   1.000  H
  H29      1.0000 0.84190  0.09140  0.25720  Biso   1.000  H
  H30      1.0000 0.16860  0.46800  0.60380  Biso   1.000  H
  H31      1.0000 0.03100  0.33070  0.30300  Biso   1.000  H
  H32      1.0000 0.97050  0.36200  0.59540  Biso   1.000  H
  H33      1.0000 0.17600  0.47190  0.50310  Biso   1.000  H
  H34      1.0000 0.12740  0.52760  0.41510  Biso   1.000  H
  H35      1.0000 0.94220  0.24740  0.22390  Biso   1.000  H
  H36      1.0000 0.02790  0.31930  0.40450  Biso   1.000  H
  H37      1.0000 0.02510  0.63990  0.49500  Biso   1.000  H
  H38      1.0000 0.22090  0.55450  0.22800  Biso   1.000  H
  H39      1.0000 0.31520  0.70960  0.26540  Biso   1.000  H
  H40      1.0000 0.87280  0.46740  0.31410  Biso   1.000  H
  H41      1.0000 0.15810  0.90860  0.25720  Biso   1.000  H
  H42      1.0000 0.83140  0.53200  0.60380  Biso   1.000  H
  H43      1.0000 0.96900  0.66930  0.30300  Biso   1.000  H
  H44      1.0000 0.02950  0.63800  0.59540  Biso   1.000  H
  H45      1.0000 0.82400  0.52810  0.50310  Biso   1.000  H
  H46      1.0000 0.87260  0.47240  0.41510  Biso   1.000  H
  H47      1.0000 0.05780  0.75260  0.22390  Biso   1.000  H
  H48      1.0000 0.97210  0.68070  0.40450  Biso   1.000  H
  H49      1.0000 0.86010  0.47490  0.99500  Biso   1.000  H
  H50      1.0000 0.94550  0.27910  0.72800  Biso   1.000  H
  H51      1.0000 0.79040  0.18480  0.76540  Biso   1.000  H
  H52      1.0000 0.03260  0.62720  0.81410  Biso   1.000  H
  H53      1.0000 0.59140  0.34190  0.75720  Biso   1.000  H
  H54      1.0000 0.96800  0.66860  0.10380  Biso   1.000  H
  H55      1.0000 0.83070  0.53100  0.80300  Biso   1.000  H
  H56      1.0000 0.86200  0.47050  0.09540  Biso   1.000  H
  H57      1.0000 0.97190  0.67600  0.00310  Biso   1.000  H
  H58      1.0000 0.02760  0.62740  0.91510  Biso   1.000  H
  H59      1.0000 0.74740  0.44220  0.72390  Biso   1.000  H
  H60      1.0000 0.81930  0.52790  0.90450  Biso   1.000  H
  H61      1.0000 0.13990  0.52510  0.99500  Biso   1.000  H
  H62      1.0000 0.05450  0.72090  0.72800  Biso   1.000  H
  H63      1.0000 0.20960  0.81520  0.76540  Biso   1.000  H
  H64      1.0000 0.96740  0.37280  0.81410  Biso   1.000  H
  H65      1.0000 0.40860  0.65810  0.75720  Biso   1.000  H
  H66      1.0000 0.03200  0.33140  0.10380  Biso   1.000  H
  H67      1.0000 0.16930  0.46900  0.80300  Biso   1.000  H
  H68      1.0000 0.13800  0.52950  0.09540  Biso   1.000  H
  H69      1.0000 0.02810  0.32400  0.00310  Biso   1.000  H
  H70      1.0000 0.97240  0.37260  0.91510  Biso   1.000  H
  H71      1.0000 0.25260  0.55780  0.72390  Biso   1.000  H
  H72      1.0000 0.18070  0.47210  0.90450  Biso   1.000  H
  H73      1.0000 0.52510  0.86010  0.00500  Biso   1.000  H
  H74      1.0000 0.72090  0.94550  0.27200  Biso   1.000  H
  H75      1.0000 0.81520  0.79040  0.23460  Biso   1.000  H
  H76      1.0000 0.37280  0.03260  0.18590  Biso   1.000  H
  H77      1.0000 0.65810  0.59140  0.24280  Biso   1.000  H
  H78      1.0000 0.33140  0.96800  0.89620  Biso   1.000  H
  H79      1.0000 0.46900  0.83070  0.19700  Biso   1.000  H
  H80      1.0000 0.52950  0.86200  0.90460  Biso   1.000  H
  H81      1.0000 0.32400  0.97190  0.99690  Biso   1.000  H
  H82      1.0000 0.37260  0.02760  0.08490  Biso   1.000  H
  H83      1.0000 0.55780  0.74740  0.27610  Biso   1.000  H
  H84      1.0000 0.47210  0.81930  0.09550  Biso   1.000  H
  H85      1.0000 0.47490  0.13990  0.00500  Biso   1.000  H
  H86      1.0000 0.27910  0.05450  0.27200  Biso   1.000  H
  H87      1.0000 0.18480  0.20960  0.23460  Biso   1.000  H
  H88      1.0000 0.62720  0.96740  0.18590  Biso   1.000  H
  H89      1.0000 0.34190  0.40860  0.24280  Biso   1.000  H
  H90      1.0000 0.66860  0.03200  0.89620  Biso   1.000  H
  H91      1.0000 0.53100  0.16930  0.19700  Biso   1.000  H
  H92      1.0000 0.47050  0.13800  0.90460  Biso   1.000  H
  H93      1.0000 0.67600  0.02810  0.99690  Biso   1.000  H
  H94      1.0000 0.62740  0.97240  0.08490  Biso   1.000  H
  H95      1.0000 0.44220  0.25260  0.27610  Biso   1.000  H
  H96      1.0000 0.52790  0.18070  0.09550  Biso   1.000  H
  C1       1.0000 0.58160  0.07580  0.51360  Biso   1.000  C
  C2       1.0000 0.57750  0.07730  0.57860  Biso   1.000  C
  C3       1.0000 0.60690  0.91250  0.79030  Biso   1.000  C
  C4       1.0000 0.61590  0.01500  0.48350  Biso   1.000  C
  C5       1.0000 0.67000  0.85960  0.77320  Biso   1.000  C
  C6       1.0000 0.71810  0.73720  0.74360  Biso   1.000  C
  C7       1.0000 0.65680  0.78200  0.76080  Biso   1.000  C
  C8       1.0000 0.79180  0.76670  0.73890  Biso   1.000  C
  C9       1.0000 0.51130  0.10650  0.66710  Biso   1.000  C
  C10      1.0000 0.55290  0.12780  0.41870  Biso   1.000  C
  C11      1.0000 0.62870  0.05060  0.67360  Biso   1.000  C
  C12      1.0000 0.61490  0.01300  0.42380  Biso   1.000  C
  C13      1.0000 0.55100  0.13260  0.47880  Biso   1.000  C
  C14      1.0000 0.80420  0.84450  0.75140  Biso   1.000  C
  C15      1.0000 0.51380  0.10700  0.60700  Biso   1.000  C
  C16      1.0000 0.74400  0.88960  0.76800  Biso   1.000  C
  C17      1.0000 0.63600  0.04870  0.61320  Biso   1.000  C
  C18      1.0000 0.85490  0.71530  0.72130  Biso   1.000  C
  C19      1.0000 0.41840  0.92420  0.51360  Biso   1.000  C
  C20      1.0000 0.42250  0.92270  0.57860  Biso   1.000  C
  C21      1.0000 0.39310  0.08750  0.79030  Biso   1.000  C
  C22      1.0000 0.38410  0.98500  0.48350  Biso   1.000  C
  C23      1.0000 0.33000  0.14040  0.77320  Biso   1.000  C
  C24      1.0000 0.28190  0.26280  0.74360  Biso   1.000  C
  C25      1.0000 0.34320  0.21800  0.76080  Biso   1.000  C
  C26      1.0000 0.20820  0.23330  0.73890  Biso   1.000  C
  C27      1.0000 0.48870  0.89350  0.66710  Biso   1.000  C
  C28      1.0000 0.44710  0.87220  0.41870  Biso   1.000  C
  C29      1.0000 0.37130  0.94940  0.67360  Biso   1.000  C
  C30      1.0000 0.38510  0.98700  0.42380  Biso   1.000  C
  C31      1.0000 0.44900  0.86740  0.47880  Biso   1.000  C
  C32      1.0000 0.19580  0.15550  0.75140  Biso   1.000  C
  C33      1.0000 0.48620  0.89300  0.60700  Biso   1.000  C
  C34      1.0000 0.25600  0.11040  0.76800  Biso   1.000  C
  C35      1.0000 0.36400  0.95130  0.61320  Biso   1.000  C
  C36      1.0000 0.14510  0.28470  0.72130  Biso   1.000  C
  C37      1.0000 0.07580  0.41840  0.48640  Biso   1.000  C
  C38      1.0000 0.07730  0.42250  0.42140  Biso   1.000  C
  C39      1.0000 0.91250  0.39310  0.20970  Biso   1.000  C
  C40      1.0000 0.01500  0.38410  0.51650  Biso   1.000  C
  C41      1.0000 0.85960  0.33000  0.22680  Biso   1.000  C
  C42      1.0000 0.73720  0.28190  0.25640  Biso   1.000  C
  C43      1.0000 0.78200  0.34320  0.23920  Biso   1.000  C
  C44      1.0000 0.76670  0.20820  0.26110  Biso   1.000  C
  C45      1.0000 0.10650  0.48870  0.33290  Biso   1.000  C
  C46      1.0000 0.12780  0.44710  0.58130  Biso   1.000  C
  C47      1.0000 0.05060  0.37130  0.32640  Biso   1.000  C
  C48      1.0000 0.01300  0.38510  0.57620  Biso   1.000  C
  C49      1.0000 0.13260  0.44900  0.52120  Biso   1.000  C
  C50      1.0000 0.84450  0.19580  0.24860  Biso   1.000  C
  C51      1.0000 0.10700  0.48620  0.39300  Biso   1.000  C
  C52      1.0000 0.88960  0.25600  0.23200  Biso   1.000  C
  C53      1.0000 0.04870  0.36400  0.38680  Biso   1.000  C
  C54      1.0000 0.71530  0.14510  0.27870  Biso   1.000  C
  C55      1.0000 0.92420  0.58160  0.48640  Biso   1.000  C
  C56      1.0000 0.92270  0.57750  0.42140  Biso   1.000  C
  C57      1.0000 0.08750  0.60690  0.20970  Biso   1.000  C
  C58      1.0000 0.98500  0.61590  0.51650  Biso   1.000  C
  C59      1.0000 0.14040  0.67000  0.22680  Biso   1.000  C
  C60      1.0000 0.26280  0.71810  0.25640  Biso   1.000  C
  C61      1.0000 0.21800  0.65680  0.23920  Biso   1.000  C
  C62      1.0000 0.23330  0.79180  0.26110  Biso   1.000  C
  C63      1.0000 0.89350  0.51130  0.33290  Biso   1.000  C
  C64      1.0000 0.87220  0.55290  0.58130  Biso   1.000  C
  C65      1.0000 0.94940  0.62870  0.32640  Biso   1.000  C
  C66      1.0000 0.98700  0.61490  0.57620  Biso   1.000  C
  C67      1.0000 0.86740  0.55100  0.52120  Biso   1.000  C
  C68      1.0000 0.15550  0.80420  0.24860  Biso   1.000  C
  C69      1.0000 0.89300  0.51380  0.39300  Biso   1.000  C
  C70      1.0000 0.11040  0.74400  0.23200  Biso   1.000  C
  C71      1.0000 0.95130  0.63600  0.38680  Biso   1.000  C
  C72      1.0000 0.28470  0.85490  0.27870  Biso   1.000  C
  C73      1.0000 0.91840  0.57580  0.98640  Biso   1.000  C
  C74      1.0000 0.92250  0.57730  0.92140  Biso   1.000  C
  C75      1.0000 0.89310  0.41250  0.70970  Biso   1.000  C
  C76      1.0000 0.88410  0.51500  0.01650  Biso   1.000  C
  C77      1.0000 0.83000  0.35960  0.72680  Biso   1.000  C
  C78      1.0000 0.78190  0.23720  0.75640  Biso   1.000  C
  C79      1.0000 0.84320  0.28200  0.73920  Biso   1.000  C
  C80      1.0000 0.70820  0.26670  0.76110  Biso   1.000  C
  C81      1.0000 0.98870  0.60650  0.83290  Biso   1.000  C
  C82      1.0000 0.94710  0.62780  0.08130  Biso   1.000  C
  C83      1.0000 0.87130  0.55060  0.82640  Biso   1.000  C
  C84      1.0000 0.88510  0.51300  0.07620  Biso   1.000  C
  C85      1.0000 0.94900  0.63260  0.02120  Biso   1.000  C
  C86      1.0000 0.69580  0.34450  0.74860  Biso   1.000  C
  C87      1.0000 0.98620  0.60700  0.89300  Biso   1.000  C
  C88      1.0000 0.75600  0.38960  0.73200  Biso   1.000  C
  C89      1.0000 0.86400  0.54870  0.88680  Biso   1.000  C
  C90      1.0000 0.64510  0.21530  0.77870  Biso   1.000  C
  C91      1.0000 0.08160  0.42420  0.98640  Biso   1.000  C
  C92      1.0000 0.07750  0.42270  0.92140  Biso   1.000  C
  C93      1.0000 0.10690  0.58750  0.70970  Biso   1.000  C
  C94      1.0000 0.11590  0.48500  0.01650  Biso   1.000  C
  C95      1.0000 0.17000  0.64040  0.72680  Biso   1.000  C
  C96      1.0000 0.21810  0.76280  0.75640  Biso   1.000  C
  C97      1.0000 0.15680  0.71800  0.73920  Biso   1.000  C
  C98      1.0000 0.29180  0.73330  0.76110  Biso   1.000  C
  C99      1.0000 0.01130  0.39350  0.83290  Biso   1.000  C
  C100     1.0000 0.05290  0.37220  0.08130  Biso   1.000  C
  C101     1.0000 0.12870  0.44940  0.82640  Biso   1.000  C
  C102     1.0000 0.11490  0.48700  0.07620  Biso   1.000  C
  C103     1.0000 0.05100  0.36740  0.02120  Biso   1.000  C
  C104     1.0000 0.30420  0.65550  0.74860  Biso   1.000  C
  C105     1.0000 0.01380  0.39300  0.89300  Biso   1.000  C
  C106     1.0000 0.24400  0.61040  0.73200  Biso   1.000  C
  C107     1.0000 0.13600  0.45130  0.88680  Biso   1.000  C
  C108     1.0000 0.35490  0.78470  0.77870  Biso   1.000  C
  C109     1.0000 0.42420  0.91840  0.01360  Biso   1.000  C
  C110     1.0000 0.42270  0.92250  0.07860  Biso   1.000  C
  C111     1.0000 0.58750  0.89310  0.29030  Biso   1.000  C
  C112     1.0000 0.48500  0.88410  0.98350  Biso   1.000  C
  C113     1.0000 0.64040  0.83000  0.27320  Biso   1.000  C
  C114     1.0000 0.76280  0.78190  0.24360  Biso   1.000  C
  C115     1.0000 0.71800  0.84320  0.26080  Biso   1.000  C
  C116     1.0000 0.73330  0.70820  0.23890  Biso   1.000  C
  C117     1.0000 0.39350  0.98870  0.16710  Biso   1.000  C
  C118     1.0000 0.37220  0.94710  0.91870  Biso   1.000  C
  C119     1.0000 0.44940  0.87130  0.17360  Biso   1.000  C
  C120     1.0000 0.48700  0.88510  0.92380  Biso   1.000  C
  C121     1.0000 0.36740  0.94900  0.97880  Biso   1.000  C
  C122     1.0000 0.65550  0.69580  0.25140  Biso   1.000  C
  C123     1.0000 0.39300  0.98620  0.10700  Biso   1.000  C
  C124     1.0000 0.61040  0.75600  0.26800  Biso   1.000  C
  C125     1.0000 0.45130  0.86400  0.11320  Biso   1.000  C
  C126     1.0000 0.78470  0.64510  0.22130  Biso   1.000  C
  C127     1.0000 0.57580  0.08160  0.01360  Biso   1.000  C
  C128     1.0000 0.57730  0.07750  0.07860  Biso   1.000  C
  C129     1.0000 0.41250  0.10690  0.29030  Biso   1.000  C
  C130     1.0000 0.51500  0.11590  0.98350  Biso   1.000  C
  C131     1.0000 0.35960  0.17000  0.27320  Biso   1.000  C
  C132     1.0000 0.23720  0.21810  0.24360  Biso   1.000  C
  C133     1.0000 0.28200  0.15680  0.26080  Biso   1.000  C
  C134     1.0000 0.26670  0.29180  0.23890  Biso   1.000  C
  C135     1.0000 0.60650  0.01130  0.16710  Biso   1.000  C
  C136     1.0000 0.62780  0.05290  0.91870  Biso   1.000  C
  C137     1.0000 0.55060  0.12870  0.17360  Biso   1.000  C
  C138     1.0000 0.51300  0.11490  0.92380  Biso   1.000  C
  C139     1.0000 0.63260  0.05100  0.97880  Biso   1.000  C
  C140     1.0000 0.34450  0.30420  0.25140  Biso   1.000  C
  C141     1.0000 0.60700  0.01380  0.10700  Biso   1.000  C
  C142     1.0000 0.38960  0.24400  0.26800  Biso   1.000  C
  C143     1.0000 0.54870  0.13600  0.11320  Biso   1.000  C
  C144     1.0000 0.21530  0.35490  0.22130  Biso   1.000  C
  N1       1.0000 0.56700  0.07860  0.70090  Biso   1.000  N
  N2       1.0000 0.58310  0.06780  0.39030  Biso   1.000  N
  N3       1.0000 0.43300  0.92140  0.70090  Biso   1.000  N
  N4       1.0000 0.41690  0.93220  0.39030  Biso   1.000  N
  N5       1.0000 0.07860  0.43300  0.29910  Biso   1.000  N
  N6       1.0000 0.06780  0.41690  0.60970  Biso   1.000  N
  N7       1.0000 0.92140  0.56700  0.29910  Biso   1.000  N
  N8       1.0000 0.93220  0.58310  0.60970  Biso   1.000  N
  N9       1.0000 0.93300  0.57860  0.79910  Biso   1.000  N
  N10      1.0000 0.91690  0.56780  0.10970  Biso   1.000  N
  N11      1.0000 0.06700  0.42140  0.79910  Biso   1.000  N
  N12      1.0000 0.08310  0.43220  0.10970  Biso   1.000  N
  N13      1.0000 0.42140  0.93300  0.20090  Biso   1.000  N
  N14      1.0000 0.43220  0.91690  0.89030  Biso   1.000  N
  N15      1.0000 0.57860  0.06700  0.20090  Biso   1.000  N
  N16      1.0000 0.56780  0.08310  0.89030  Biso   1.000  N
  O1       1.0000 0.62210  0.98140  0.79730  Biso   1.000  O
  O2       1.0000 0.58840  0.74690  0.76370  Biso   1.000  O
  O3       1.0000 0.87600  0.87640  0.74920  Biso   1.000  O
  O4       1.0000 0.54110  0.88300  0.79490  Biso   1.000  O
  O5       1.0000 0.83850  0.64790  0.70820  Biso   1.000  O
  O6       1.0000 0.92270  0.74040  0.72110  Biso   1.000  O
  O7       1.0000 0.37790  0.01860  0.79730  Biso   1.000  O
  O8       1.0000 0.41160  0.25310  0.76370  Biso   1.000  O
  O9       1.0000 0.12400  0.12360  0.74920  Biso   1.000  O
  O10      1.0000 0.45890  0.11700  0.79490  Biso   1.000  O
  O11      1.0000 0.16150  0.35210  0.70820  Biso   1.000  O
  O12      1.0000 0.07730  0.25960  0.72110  Biso   1.000  O
  O13      1.0000 0.98140  0.37790  0.20270  Biso   1.000  O
  O14      1.0000 0.74690  0.41160  0.23630  Biso   1.000  O
  O15      1.0000 0.87640  0.12400  0.25080  Biso   1.000  O
  O16      1.0000 0.88300  0.45890  0.20510  Biso   1.000  O
  O17      1.0000 0.64790  0.16150  0.29180  Biso   1.000  O
  O18      1.0000 0.74040  0.07730  0.27890  Biso   1.000  O
  O19      1.0000 0.01860  0.62210  0.20270  Biso   1.000  O
  O20      1.0000 0.25310  0.58840  0.23630  Biso   1.000  O
  O21      1.0000 0.12360  0.87600  0.25080  Biso   1.000  O
  O22      1.0000 0.11700  0.54110  0.20510  Biso   1.000  O
  O23      1.0000 0.35210  0.83850  0.29180  Biso   1.000  O
  O24      1.0000 0.25960  0.92270  0.27890  Biso   1.000  O
  O25      1.0000 0.87790  0.48140  0.70270  Biso   1.000  O
  O26      1.0000 0.91160  0.24690  0.73630  Biso   1.000  O
  O27      1.0000 0.62400  0.37640  0.75080  Biso   1.000  O
  O28      1.0000 0.95890  0.38300  0.70510  Biso   1.000  O
  O29      1.0000 0.66150  0.14790  0.79180  Biso   1.000  O
  O30      1.0000 0.57730  0.24040  0.77890  Biso   1.000  O
  O31      1.0000 0.12210  0.51860  0.70270  Biso   1.000  O
  O32      1.0000 0.08840  0.75310  0.73630  Biso   1.000  O
  O33      1.0000 0.37600  0.62360  0.75080  Biso   1.000  O
  O34      1.0000 0.04110  0.61700  0.70510  Biso   1.000  O
  O35      1.0000 0.33850  0.85210  0.79180  Biso   1.000  O
  O36      1.0000 0.42270  0.75960  0.77890  Biso   1.000  O
  O37      1.0000 0.51860  0.87790  0.29730  Biso   1.000  O
  O38      1.0000 0.75310  0.91160  0.26370  Biso   1.000  O
  O39      1.0000 0.62360  0.62400  0.24920  Biso   1.000  O
  O40      1.0000 0.61700  0.95890  0.29490  Biso   1.000  O
  O41      1.0000 0.85210  0.66150  0.20820  Biso   1.000  O
  O42      1.0000 0.75960  0.57730  0.22110  Biso   1.000  O
  O43      1.0000 0.48140  0.12210  0.29730  Biso   1.000  O
  O44      1.0000 0.24690  0.08840  0.26370  Biso   1.000  O
  O45      1.0000 0.37640  0.37600  0.24920  Biso   1.000  O
  O46      1.0000 0.38300  0.04110  0.29490  Biso   1.000  O
  O47      1.0000 0.14790  0.33850  0.20820  Biso   1.000  O
  O48      1.0000 0.24040  0.42270  0.22110  Biso   1.000  O
