data_image0
_cell_length_a       5.8265
_cell_length_b       19.0513
_cell_length_c       19.0513
_cell_angle_alpha    90
_cell_angle_beta     90
_cell_angle_gamma    90

_symmetry_space_group_name_H-M    P 1
_symmetry_int_tables_number       1

loop_
  _symmetry_equiv_pos_as_xyz
  'x, y, z'

loop_
  _atom_site_label
  _atom_site_occupancy
  _atom_site_fract_x
  _atom_site_fract_y
  _atom_site_fract_z
  _atom_site_thermal_displace_type
  _atom_site_B_iso_or_equiv
  _atom_site_type_symbol
  Zn1      1.0000 0.25000  0.72761  0.27239  Biso   1.000  Zn
  Zn2      1.0000 0.75000  0.27239  0.72761  Biso   1.000  Zn
  Zn3      1.0000 0.00000  0.22761  0.22761  Biso   1.000  Zn
  Zn4      1.0000 0.50000  0.77239  0.77239  Biso   1.000  Zn
  Zn5      1.0000 0.75000  0.77565  0.22435  Biso   1.000  Zn
  Zn6      1.0000 0.25000  0.22435  0.77565  Biso   1.000  Zn
  Zn7      1.0000 0.50000  0.27565  0.27565  Biso   1.000  Zn
  Zn8      1.0000 0.00000  0.72435  0.72435  Biso   1.000  Zn
  H1       1.0000 0.40600  0.62400  0.23900  Biso   1.000  H
  H2       1.0000 0.97800  0.49300  0.30350  Biso   1.000  H
  H3       1.0000 0.40520  0.46000  0.21640  Biso   1.000  H
  H4       1.0000 0.68600  0.39000  0.25000  Biso   1.000  H
  H5       1.0000 0.17420  0.54960  0.20690  Biso   1.000  H
  H6       1.0000 0.45420  0.50330  0.32940  Biso   1.000  H
  H7       1.0000 0.90600  0.37600  0.76100  Biso   1.000  H
  H8       1.0000 0.47800  0.50700  0.69650  Biso   1.000  H
  H9       1.0000 0.90520  0.54000  0.78360  Biso   1.000  H
  H10      1.0000 0.18600  0.61000  0.75000  Biso   1.000  H
  H11      1.0000 0.67420  0.45040  0.79310  Biso   1.000  H
  H12      1.0000 0.95420  0.49670  0.67060  Biso   1.000  H
  H13      1.0000 0.15600  0.26100  0.12400  Biso   1.000  H
  H14      1.0000 0.72800  0.19650  0.99300  Biso   1.000  H
  H15      1.0000 0.15520  0.28360  0.96000  Biso   1.000  H
  H16      1.0000 0.43600  0.25000  0.89000  Biso   1.000  H
  H17      1.0000 0.92420  0.29310  0.04960  Biso   1.000  H
  H18      1.0000 0.20420  0.17060  0.00330  Biso   1.000  H
  H19      1.0000 0.65600  0.73900  0.87600  Biso   1.000  H
  H20      1.0000 0.22800  0.80350  0.00700  Biso   1.000  H
  H21      1.0000 0.65520  0.71640  0.04000  Biso   1.000  H
  H22      1.0000 0.93600  0.75000  0.11000  Biso   1.000  H
  H23      1.0000 0.42420  0.70690  0.95040  Biso   1.000  H
  H24      1.0000 0.70420  0.82940  0.99670  Biso   1.000  H
  H25      1.0000 0.34400  0.87600  0.73900  Biso   1.000  H
  H26      1.0000 0.77200  0.00700  0.80350  Biso   1.000  H
  H27      1.0000 0.34480  0.04000  0.71640  Biso   1.000  H
  H28      1.0000 0.06400  0.11000  0.75000  Biso   1.000  H
  H29      1.0000 0.57580  0.95040  0.70690  Biso   1.000  H
  H30      1.0000 0.29580  0.99670  0.82940  Biso   1.000  H
  H31      1.0000 0.84400  0.12400  0.26100  Biso   1.000  H
  H32      1.0000 0.27200  0.99300  0.19650  Biso   1.000  H
  H33      1.0000 0.84480  0.96000  0.28360  Biso   1.000  H
  H34      1.0000 0.56400  0.89000  0.25000  Biso   1.000  H
  H35      1.0000 0.07580  0.04960  0.29310  Biso   1.000  H
  H36      1.0000 0.79580  0.00330  0.17060  Biso   1.000  H
  H37      1.0000 0.59400  0.23900  0.62400  Biso   1.000  H
  H38      1.0000 0.02200  0.30350  0.49300  Biso   1.000  H
  H39      1.0000 0.59480  0.21640  0.46000  Biso   1.000  H
  H40      1.0000 0.31400  0.25000  0.39000  Biso   1.000  H
  H41      1.0000 0.82580  0.20690  0.54960  Biso   1.000  H
  H42      1.0000 0.54580  0.32940  0.50330  Biso   1.000  H
  H43      1.0000 0.09400  0.76100  0.37600  Biso   1.000  H
  H44      1.0000 0.52200  0.69650  0.50700  Biso   1.000  H
  H45      1.0000 0.09480  0.78360  0.54000  Biso   1.000  H
  H46      1.0000 0.81400  0.75000  0.61000  Biso   1.000  H
  H47      1.0000 0.32580  0.79310  0.45040  Biso   1.000  H
  H48      1.0000 0.04580  0.67060  0.49670  Biso   1.000  H
  C1       1.0000 0.91850  0.61750  0.24190  Biso   1.000  C
  C2       1.0000 0.11360  0.52210  0.31250  Biso   1.000  C
  C3       1.0000 0.36970  0.42940  0.25630  Biso   1.000  C
  C4       1.0000 0.16920  0.38250  0.23760  Biso   1.000  C
  C5       1.0000 0.14020  0.57500  0.25040  Biso   1.000  C
  C6       1.0000 0.31920  0.47400  0.32020  Biso   1.000  C
  C7       1.0000 0.41850  0.38250  0.75810  Biso   1.000  C
  C8       1.0000 0.61360  0.47790  0.68750  Biso   1.000  C
  C9       1.0000 0.86970  0.57060  0.74370  Biso   1.000  C
  C10      1.0000 0.66920  0.61750  0.76240  Biso   1.000  C
  C11      1.0000 0.64020  0.42500  0.74960  Biso   1.000  C
  C12      1.0000 0.81920  0.52600  0.67980  Biso   1.000  C
  C13      1.0000 0.66850  0.25810  0.11750  Biso   1.000  C
  C14      1.0000 0.86360  0.18750  0.02210  Biso   1.000  C
  C15      1.0000 0.11970  0.24370  0.92940  Biso   1.000  C
  C16      1.0000 0.91920  0.26240  0.88250  Biso   1.000  C
  C17      1.0000 0.89020  0.24960  0.07500  Biso   1.000  C
  C18      1.0000 0.06920  0.17980  0.97400  Biso   1.000  C
  C19      1.0000 0.16850  0.74190  0.88250  Biso   1.000  C
  C20      1.0000 0.36360  0.81250  0.97790  Biso   1.000  C
  C21      1.0000 0.61970  0.75630  0.07060  Biso   1.000  C
  C22      1.0000 0.41920  0.73760  0.11750  Biso   1.000  C
  C23      1.0000 0.39020  0.75040  0.92500  Biso   1.000  C
  C24      1.0000 0.56920  0.82020  0.02600  Biso   1.000  C
  C25      1.0000 0.83150  0.88250  0.74190  Biso   1.000  C
  C26      1.0000 0.63640  0.97790  0.81250  Biso   1.000  C
  C27      1.0000 0.38030  0.07060  0.75630  Biso   1.000  C
  C28      1.0000 0.58080  0.11750  0.73760  Biso   1.000  C
  C29      1.0000 0.60980  0.92500  0.75040  Biso   1.000  C
  C30      1.0000 0.43080  0.02600  0.82020  Biso   1.000  C
  C31      1.0000 0.33150  0.11750  0.25810  Biso   1.000  C
  C32      1.0000 0.13640  0.02210  0.18750  Biso   1.000  C
  C33      1.0000 0.88030  0.92940  0.24370  Biso   1.000  C
  C34      1.0000 0.08080  0.88250  0.26240  Biso   1.000  C
  C35      1.0000 0.10980  0.07500  0.24960  Biso   1.000  C
  C36      1.0000 0.93080  0.97400  0.17980  Biso   1.000  C
  C37      1.0000 0.08150  0.24190  0.61750  Biso   1.000  C
  C38      1.0000 0.88640  0.31250  0.52210  Biso   1.000  C
  C39      1.0000 0.63030  0.25630  0.42940  Biso   1.000  C
  C40      1.0000 0.83080  0.23760  0.38250  Biso   1.000  C
  C41      1.0000 0.85980  0.25040  0.57500  Biso   1.000  C
  C42      1.0000 0.68080  0.32020  0.47400  Biso   1.000  C
  C43      1.0000 0.58150  0.75810  0.38250  Biso   1.000  C
  C44      1.0000 0.38640  0.68750  0.47790  Biso   1.000  C
  C45      1.0000 0.13030  0.74370  0.57060  Biso   1.000  C
  C46      1.0000 0.33080  0.76240  0.61750  Biso   1.000  C
  C47      1.0000 0.35980  0.74960  0.42500  Biso   1.000  C
  C48      1.0000 0.18080  0.67980  0.52600  Biso   1.000  C
  O1       1.0000 0.93930  0.68380  0.24300  Biso   1.000  O
  O2       1.0000 0.73860  0.58460  0.23180  Biso   1.000  O
  O3       1.0000 0.32440  0.62210  0.26680  Biso   1.000  O
  O4       1.0000 0.07540  0.56010  0.37460  Biso   1.000  O
  O5       1.0000 0.28770  0.42920  0.37910  Biso   1.000  O
  O6       1.0000 0.56680  0.38520  0.27150  Biso   1.000  O
  O7       1.0000 0.19420  0.31580  0.24690  Biso   1.000  O
  O8       1.0000 0.99110  0.40860  0.21360  Biso   1.000  O
  O9       1.0000 0.43930  0.31620  0.75700  Biso   1.000  O
  O10      1.0000 0.23860  0.41540  0.76820  Biso   1.000  O
  O11      1.0000 0.82440  0.37790  0.73320  Biso   1.000  O
  O12      1.0000 0.57540  0.43990  0.62540  Biso   1.000  O
  O13      1.0000 0.78770  0.57080  0.62090  Biso   1.000  O
  O14      1.0000 0.06680  0.61480  0.72850  Biso   1.000  O
  O15      1.0000 0.69420  0.68420  0.75310  Biso   1.000  O
  O16      1.0000 0.49110  0.59140  0.78640  Biso   1.000  O
  O17      1.0000 0.68930  0.25700  0.18380  Biso   1.000  O
  O18      1.0000 0.48860  0.26820  0.08460  Biso   1.000  O
  O19      1.0000 0.07440  0.23320  0.12210  Biso   1.000  O
  O20      1.0000 0.82540  0.12540  0.06010  Biso   1.000  O
  O21      1.0000 0.03770  0.12090  0.92920  Biso   1.000  O
  O22      1.0000 0.31680  0.22850  0.88520  Biso   1.000  O
  O23      1.0000 0.94420  0.25310  0.81580  Biso   1.000  O
  O24      1.0000 0.74110  0.28640  0.90860  Biso   1.000  O
  O25      1.0000 0.18930  0.74300  0.81620  Biso   1.000  O
  O26      1.0000 0.98860  0.73180  0.91540  Biso   1.000  O
  O27      1.0000 0.57440  0.76680  0.87790  Biso   1.000  O
  O28      1.0000 0.32540  0.87460  0.93990  Biso   1.000  O
  O29      1.0000 0.53770  0.87910  0.07080  Biso   1.000  O
  O30      1.0000 0.81680  0.77150  0.11480  Biso   1.000  O
  O31      1.0000 0.44420  0.74690  0.18420  Biso   1.000  O
  O32      1.0000 0.24110  0.71360  0.09140  Biso   1.000  O
  O33      1.0000 0.81070  0.81620  0.74300  Biso   1.000  O
  O34      1.0000 0.01140  0.91540  0.73180  Biso   1.000  O
  O35      1.0000 0.42560  0.87790  0.76680  Biso   1.000  O
  O36      1.0000 0.67460  0.93990  0.87460  Biso   1.000  O
  O37      1.0000 0.46230  0.07080  0.87910  Biso   1.000  O
  O38      1.0000 0.18320  0.11480  0.77150  Biso   1.000  O
  O39      1.0000 0.55580  0.18420  0.74690  Biso   1.000  O
  O40      1.0000 0.75890  0.09140  0.71360  Biso   1.000  O
  O41      1.0000 0.31070  0.18380  0.25700  Biso   1.000  O
  O42      1.0000 0.51140  0.08460  0.26820  Biso   1.000  O
  O43      1.0000 0.92560  0.12210  0.23320  Biso   1.000  O
  O44      1.0000 0.17460  0.06010  0.12540  Biso   1.000  O
  O45      1.0000 0.96230  0.92920  0.12090  Biso   1.000  O
  O46      1.0000 0.68320  0.88520  0.22850  Biso   1.000  O
  O47      1.0000 0.05580  0.81580  0.25310  Biso   1.000  O
  O48      1.0000 0.25890  0.90860  0.28640  Biso   1.000  O
  O49      1.0000 0.06070  0.24300  0.68380  Biso   1.000  O
  O50      1.0000 0.26140  0.23180  0.58460  Biso   1.000  O
  O51      1.0000 0.67560  0.26680  0.62210  Biso   1.000  O
  O52      1.0000 0.92460  0.37460  0.56010  Biso   1.000  O
  O53      1.0000 0.71230  0.37910  0.42920  Biso   1.000  O
  O54      1.0000 0.43320  0.27150  0.38520  Biso   1.000  O
  O55      1.0000 0.80580  0.24690  0.31580  Biso   1.000  O
  O56      1.0000 0.00890  0.21360  0.40860  Biso   1.000  O
  O57      1.0000 0.56070  0.75700  0.31620  Biso   1.000  O
  O58      1.0000 0.76140  0.76820  0.41540  Biso   1.000  O
  O59      1.0000 0.17560  0.73320  0.37790  Biso   1.000  O
  O60      1.0000 0.42460  0.62540  0.43990  Biso   1.000  O
  O61      1.0000 0.21230  0.62090  0.57080  Biso   1.000  O
  O62      1.0000 0.93320  0.72850  0.61480  Biso   1.000  O
  O63      1.0000 0.30580  0.75310  0.68420  Biso   1.000  O
  O64      1.0000 0.50890  0.78640  0.59140  Biso   1.000  O
