data_image0
_cell_length_a       15.9007
_cell_length_b       15.9007
_cell_length_c       15.9007
_cell_angle_alpha    63.1563
_cell_angle_beta     74.0844
_cell_angle_gamma    105.916

_symmetry_space_group_name_H-M    P 1
_symmetry_int_tables_number       1

loop_
  _symmetry_equiv_pos_as_xyz
  'x, y, z'

loop_
  _atom_site_label
  _atom_site_occupancy
  _atom_site_fract_x
  _atom_site_fract_y
  _atom_site_fract_z
  _atom_site_thermal_displace_type
  _atom_site_B_iso_or_equiv
  _atom_site_type_symbol
  Ni1      1.0000 0.00000  0.50000  0.50000  Biso   1.000  Ni
  Ni2      1.0000 0.50000  0.00000  0.50000  Biso   1.000  Ni
  Ni3      1.0000 0.00000  0.50000  0.00000  Biso   1.000  Ni
  Ni4      1.0000 0.50000  0.50000  0.50000  Biso   1.000  Ni
  H1       1.0000 0.15920  0.54420  0.29740  Biso   1.000  H
  H2       1.0000 0.25580  0.61580  0.28940  Biso   1.000  H
  H3       1.0000 0.08680  0.66390  0.25790  Biso   1.000  H
  H4       1.0000 0.18690  0.75370  0.22380  Biso   1.000  H
  H5       1.0000 0.93660  0.73190  0.38770  Biso   1.000  H
  H6       1.0000 0.93480  0.65430  0.35230  Biso   1.000  H
  H7       1.0000 0.20140  0.43290  0.41850  Biso   1.000  H
  H8       1.0000 0.20000  0.49450  0.47290  Biso   1.000  H
  H9       1.0000 0.11790  0.75350  0.41980  Biso   1.000  H
  H10      1.0000 0.19870  0.83900  0.30090  Biso   1.000  H
  H11      1.0000 0.14770  0.92800  0.36630  Biso   1.000  H
  H12      1.0000 0.10760  0.93640  0.28460  Biso   1.000  H
  H13      1.0000 0.03670  0.85480  0.40710  Biso   1.000  H
  H14      1.0000 0.17060  0.65500  0.38780  Biso   1.000  H
  H15      1.0000 0.04020  0.36940  0.47580  Biso   1.000  H
  H16      1.0000 0.34080  0.04340  0.61500  Biso   1.000  H
  H17      1.0000 0.24420  0.95480  0.64000  Biso   1.000  H
  H18      1.0000 0.41320  0.15530  0.42290  Biso   1.000  H
  H19      1.0000 0.31310  0.08930  0.43320  Biso   1.000  H
  H20      1.0000 0.56340  0.17570  0.20470  Biso   1.000  H
  H21      1.0000 0.56520  0.21290  0.28050  Biso   1.000  H
  H22      1.0000 0.29860  0.88010  0.76850  Biso   1.000  H
  H23      1.0000 0.30000  0.82710  0.70550  Biso   1.000  H
  H24      1.0000 0.38210  0.96230  0.36440  Biso   1.000  H
  H25      1.0000 0.30130  0.00040  0.35970  Biso   1.000  H
  H26      1.0000 0.35230  0.98600  0.21970  Biso   1.000  H
  H27      1.0000 0.39240  0.10780  0.17120  Biso   1.000  H
  H28      1.0000 0.46330  0.05620  0.18190  Biso   1.000  H
  H29      1.0000 0.32940  0.94160  0.51560  Biso   1.000  H
  H30      1.0000 0.45980  0.98400  0.67080  Biso   1.000  H
  H31      1.0000 0.15840  0.70260  0.95660  Biso   1.000  H
  H32      1.0000 0.09480  0.71060  0.04520  Biso   1.000  H
  H33      1.0000 0.07820  0.74210  0.84470  Biso   1.000  H
  H34      1.0000 0.02250  0.77620  0.91070  Biso   1.000  H
  H35      1.0000 0.88040  0.61230  0.82430  Biso   1.000  H
  H36      1.0000 0.99340  0.64770  0.78710  Biso   1.000  H
  H37      1.0000 0.14860  0.58150  0.11990  Biso   1.000  H
  H38      1.0000 0.03260  0.52710  0.17290  Biso   1.000  H
  H39      1.0000 0.82670  0.58020  0.03770  Biso   1.000  H
  H40      1.0000 0.86010  0.69910  0.99960  Biso   1.000  H
  H41      1.0000 0.70570  0.63370  0.01400  Biso   1.000  H
  H42      1.0000 0.77900  0.71540  0.89220  Biso   1.000  H
  H43      1.0000 0.73810  0.59290  0.94380  Biso   1.000  H
  H44      1.0000 0.95720  0.61220  0.05840  Biso   1.000  H
  H45      1.0000 0.15480  0.52420  0.01600  Biso   1.000  H
  H46      1.0000 0.34160  0.38500  0.45580  Biso   1.000  H
  H47      1.0000 0.40520  0.36000  0.38420  Biso   1.000  H
  H48      1.0000 0.42180  0.57710  0.33610  Biso   1.000  H
  H49      1.0000 0.47750  0.56680  0.24630  Biso   1.000  H
  H50      1.0000 0.61960  0.79530  0.26810  Biso   1.000  H
  H51      1.0000 0.50660  0.71950  0.34570  Biso   1.000  H
  H52      1.0000 0.35140  0.23150  0.56710  Biso   1.000  H
  H53      1.0000 0.46740  0.29450  0.50550  Biso   1.000  H
  H54      1.0000 0.67330  0.63560  0.24650  Biso   1.000  H
  H55      1.0000 0.63990  0.64030  0.16100  Biso   1.000  H
  H56      1.0000 0.79430  0.78030  0.07200  Biso   1.000  H
  H57      1.0000 0.72100  0.82880  0.06360  Biso   1.000  H
  H58      1.0000 0.76190  0.81810  0.14520  Biso   1.000  H
  H59      1.0000 0.54280  0.48440  0.34500  Biso   1.000  H
  H60      1.0000 0.34520  0.32920  0.63060  Biso   1.000  H
  H61      1.0000 0.84080  0.45580  0.70260  Biso   1.000  H
  H62      1.0000 0.74420  0.38420  0.71060  Biso   1.000  H
  H63      1.0000 0.91320  0.33610  0.74210  Biso   1.000  H
  H64      1.0000 0.81310  0.24630  0.77620  Biso   1.000  H
  H65      1.0000 0.06340  0.26810  0.61230  Biso   1.000  H
  H66      1.0000 0.06520  0.34570  0.64770  Biso   1.000  H
  H67      1.0000 0.79860  0.56710  0.58150  Biso   1.000  H
  H68      1.0000 0.80000  0.50550  0.52710  Biso   1.000  H
  H69      1.0000 0.88210  0.24650  0.58020  Biso   1.000  H
  H70      1.0000 0.80130  0.16100  0.69910  Biso   1.000  H
  H71      1.0000 0.85230  0.07200  0.63370  Biso   1.000  H
  H72      1.0000 0.89240  0.06360  0.71540  Biso   1.000  H
  H73      1.0000 0.96330  0.14520  0.59290  Biso   1.000  H
  H74      1.0000 0.82940  0.34500  0.61220  Biso   1.000  H
  H75      1.0000 0.95980  0.63060  0.52420  Biso   1.000  H
  H76      1.0000 0.65920  0.95660  0.38500  Biso   1.000  H
  H77      1.0000 0.75580  0.04520  0.36000  Biso   1.000  H
  H78      1.0000 0.58680  0.84470  0.57710  Biso   1.000  H
  H79      1.0000 0.68690  0.91070  0.56680  Biso   1.000  H
  H80      1.0000 0.43660  0.82430  0.79530  Biso   1.000  H
  H81      1.0000 0.43480  0.78710  0.71950  Biso   1.000  H
  H82      1.0000 0.70140  0.11990  0.23150  Biso   1.000  H
  H83      1.0000 0.70000  0.17290  0.29450  Biso   1.000  H
  H84      1.0000 0.61790  0.03770  0.63560  Biso   1.000  H
  H85      1.0000 0.69870  0.99960  0.64030  Biso   1.000  H
  H86      1.0000 0.64770  0.01400  0.78030  Biso   1.000  H
  H87      1.0000 0.60760  0.89220  0.82880  Biso   1.000  H
  H88      1.0000 0.53670  0.94380  0.81810  Biso   1.000  H
  H89      1.0000 0.67060  0.05840  0.48440  Biso   1.000  H
  H90      1.0000 0.54020  0.01600  0.32920  Biso   1.000  H
  H91      1.0000 0.84160  0.29740  0.04340  Biso   1.000  H
  H92      1.0000 0.90520  0.28940  0.95480  Biso   1.000  H
  H93      1.0000 0.92180  0.25790  0.15530  Biso   1.000  H
  H94      1.0000 0.97750  0.22380  0.08930  Biso   1.000  H
  H95      1.0000 0.11960  0.38770  0.17570  Biso   1.000  H
  H96      1.0000 0.00660  0.35230  0.21290  Biso   1.000  H
  H97      1.0000 0.85140  0.41850  0.88010  Biso   1.000  H
  H98      1.0000 0.96740  0.47290  0.82710  Biso   1.000  H
  H99      1.0000 0.17330  0.41980  0.96230  Biso   1.000  H
  H100     1.0000 0.13990  0.30090  0.00040  Biso   1.000  H
  H101     1.0000 0.29430  0.36630  0.98600  Biso   1.000  H
  H102     1.0000 0.22100  0.28460  0.10780  Biso   1.000  H
  H103     1.0000 0.26190  0.40710  0.05620  Biso   1.000  H
  H104     1.0000 0.04280  0.38780  0.94160  Biso   1.000  H
  H105     1.0000 0.84520  0.47580  0.98400  Biso   1.000  H
  H106     1.0000 0.65840  0.61500  0.54420  Biso   1.000  H
  H107     1.0000 0.59480  0.64000  0.61580  Biso   1.000  H
  H108     1.0000 0.57820  0.42290  0.66390  Biso   1.000  H
  H109     1.0000 0.52250  0.43320  0.75370  Biso   1.000  H
  H110     1.0000 0.38040  0.20470  0.73190  Biso   1.000  H
  H111     1.0000 0.49340  0.28050  0.65430  Biso   1.000  H
  H112     1.0000 0.64860  0.76850  0.43290  Biso   1.000  H
  H113     1.0000 0.53260  0.70550  0.49450  Biso   1.000  H
  H114     1.0000 0.32670  0.36440  0.75350  Biso   1.000  H
  H115     1.0000 0.36010  0.35970  0.83900  Biso   1.000  H
  H116     1.0000 0.20570  0.21970  0.92800  Biso   1.000  H
  H117     1.0000 0.27900  0.17120  0.93640  Biso   1.000  H
  H118     1.0000 0.23810  0.18190  0.85480  Biso   1.000  H
  H119     1.0000 0.45720  0.51560  0.65500  Biso   1.000  H
  H120     1.0000 0.65480  0.67080  0.36940  Biso   1.000  H
  W1       1.0000 0.75000  0.37500  0.37500  Biso   1.000  W
  W2       1.0000 0.25000  0.62500  0.62500  Biso   1.000  W
  C1       1.0000 0.87802  0.43822  0.39120  Biso   1.000  C
  C2       1.0000 0.70091  0.28910  0.54539  Biso   1.000  C
  C3       1.0000 0.18580  0.56710  0.33570  Biso   1.000  C
  C4       1.0000 0.12220  0.69890  0.28310  Biso   1.000  C
  C5       1.0000 0.96430  0.68570  0.38360  Biso   1.000  C
  C6       1.0000 0.17050  0.47130  0.43640  Biso   1.000  C
  C7       1.0000 0.12900  0.80540  0.34940  Biso   1.000  C
  C8       1.0000 0.10280  0.88860  0.35220  Biso   1.000  C
  C9       1.0000 0.62198  0.23078  0.43980  Biso   1.000  C
  C10      1.0000 0.79909  0.25370  0.41181  Biso   1.000  C
  C11      1.0000 0.31420  0.97850  0.61870  Biso   1.000  C
  C12      1.0000 0.37780  0.09470  0.42330  Biso   1.000  C
  C13      1.0000 0.53570  0.15210  0.27860  Biso   1.000  C
  C14      1.0000 0.32950  0.89310  0.69920  Biso   1.000  C
  C15      1.0000 0.37100  0.02160  0.32360  Biso   1.000  C
  C16      1.0000 0.39720  0.04500  0.21420  Biso   1.000  C
  C17      1.0000 0.17058  0.60880  0.76922  Biso   1.000  C
  C18      1.0000 0.16551  0.45461  0.74630  Biso   1.000  C
  C19      1.0000 0.09720  0.66430  0.02150  Biso   1.000  C
  C20      1.0000 0.01800  0.71690  0.90530  Biso   1.000  C
  C21      1.0000 0.93070  0.61640  0.84790  Biso   1.000  C
  C22      1.0000 0.09230  0.56360  0.10690  Biso   1.000  C
  C23      1.0000 0.84520  0.65060  0.97840  Biso   1.000  C
  C24      1.0000 0.75920  0.64780  0.95500  Biso   1.000  C
  C25      1.0000 0.32942  0.56020  0.56178  Biso   1.000  C
  C26      1.0000 0.33449  0.58819  0.71090  Biso   1.000  C
  C27      1.0000 0.40280  0.38130  0.43290  Biso   1.000  C
  C28      1.0000 0.48200  0.57670  0.30110  Biso   1.000  C
  C29      1.0000 0.56930  0.72140  0.31430  Biso   1.000  C
  C30      1.0000 0.40770  0.30080  0.52870  Biso   1.000  C
  C31      1.0000 0.65480  0.67640  0.19460  Biso   1.000  C
  C32      1.0000 0.74080  0.78580  0.11140  Biso   1.000  C
  C33      1.0000 0.12198  0.56178  0.60880  Biso   1.000  C
  C34      1.0000 0.29909  0.71090  0.45461  Biso   1.000  C
  C35      1.0000 0.81420  0.43290  0.66430  Biso   1.000  C
  C36      1.0000 0.87780  0.30110  0.71690  Biso   1.000  C
  C37      1.0000 0.03570  0.31430  0.61640  Biso   1.000  C
  C38      1.0000 0.82950  0.52870  0.56360  Biso   1.000  C
  C39      1.0000 0.87100  0.19460  0.65060  Biso   1.000  C
  C40      1.0000 0.89720  0.11140  0.64780  Biso   1.000  C
  C41      1.0000 0.37802  0.76922  0.56020  Biso   1.000  C
  C42      1.0000 0.20091  0.74630  0.58819  Biso   1.000  C
  C43      1.0000 0.68580  0.02150  0.38130  Biso   1.000  C
  C44      1.0000 0.62220  0.90530  0.57670  Biso   1.000  C
  C45      1.0000 0.46430  0.84790  0.72140  Biso   1.000  C
  C46      1.0000 0.67050  0.10690  0.30080  Biso   1.000  C
  C47      1.0000 0.62900  0.97840  0.67640  Biso   1.000  C
  C48      1.0000 0.60280  0.95500  0.78580  Biso   1.000  C
  C49      1.0000 0.82942  0.39120  0.23078  Biso   1.000  C
  C50      1.0000 0.83449  0.54539  0.25370  Biso   1.000  C
  C51      1.0000 0.90280  0.33570  0.97850  Biso   1.000  C
  C52      1.0000 0.98200  0.28310  0.09470  Biso   1.000  C
  C53      1.0000 0.06930  0.38360  0.15210  Biso   1.000  C
  C54      1.0000 0.90770  0.43640  0.89310  Biso   1.000  C
  C55      1.0000 0.15480  0.34940  0.02160  Biso   1.000  C
  C56      1.0000 0.24080  0.35220  0.04500  Biso   1.000  C
  C57      1.0000 0.67058  0.43980  0.43822  Biso   1.000  C
  C58      1.0000 0.66551  0.41181  0.28910  Biso   1.000  C
  C59      1.0000 0.59720  0.61870  0.56710  Biso   1.000  C
  C60      1.0000 0.51800  0.42330  0.69890  Biso   1.000  C
  C61      1.0000 0.43070  0.27860  0.68570  Biso   1.000  C
  C62      1.0000 0.59230  0.69920  0.47130  Biso   1.000  C
  C63      1.0000 0.34520  0.32360  0.80540  Biso   1.000  C
  C64      1.0000 0.25920  0.21420  0.88860  Biso   1.000  C
  N1       1.0000 0.94299  0.46926  0.40633  Biso   1.000  N
  N2       1.0000 0.67695  0.24542  0.63637  Biso   1.000  N
  N3       1.0000 0.13475  0.62064  0.36709  Biso   1.000  N
  N4       1.0000 0.07015  0.74926  0.31491  Biso   1.000  N
  N5       1.0000 0.06256  0.40121  0.50605  Biso   1.000  N
  N6       1.0000 0.55701  0.15068  0.47373  Biso   1.000  N
  N7       1.0000 0.82305  0.18668  0.43153  Biso   1.000  N
  N8       1.0000 0.36525  0.99816  0.51411  Biso   1.000  N
  N9       1.0000 0.42985  0.11494  0.32089  Biso   1.000  N
  N10      1.0000 0.43744  0.93139  0.66135  Biso   1.000  N
  N11      1.0000 0.12441  0.59367  0.84932  Biso   1.000  N
  N12      1.0000 0.11821  0.36363  0.81332  Biso   1.000  N
  N13      1.0000 0.01227  0.63291  0.00184  Biso   1.000  N
  N14      1.0000 0.93583  0.68509  0.88506  Biso   1.000  N
  N15      1.0000 0.09274  0.49395  0.06861  Biso   1.000  N
  N16      1.0000 0.37559  0.52627  0.53074  Biso   1.000  N
  N17      1.0000 0.38179  0.56847  0.75458  Biso   1.000  N
  N18      1.0000 0.48773  0.48589  0.37936  Biso   1.000  N
  N19      1.0000 0.56417  0.67911  0.25074  Biso   1.000  N
  N20      1.0000 0.40726  0.33865  0.59879  Biso   1.000  N
  N21      1.0000 0.05701  0.53074  0.59367  Biso   1.000  N
  N22      1.0000 0.32305  0.75458  0.36363  Biso   1.000  N
  N23      1.0000 0.86525  0.37936  0.63291  Biso   1.000  N
  N24      1.0000 0.92985  0.25074  0.68509  Biso   1.000  N
  N25      1.0000 0.93744  0.59879  0.49395  Biso   1.000  N
  N26      1.0000 0.44299  0.84932  0.52627  Biso   1.000  N
  N27      1.0000 0.17695  0.81332  0.56847  Biso   1.000  N
  N28      1.0000 0.63475  0.00184  0.48589  Biso   1.000  N
  N29      1.0000 0.57015  0.88506  0.67911  Biso   1.000  N
  N30      1.0000 0.56256  0.06861  0.33865  Biso   1.000  N
  N31      1.0000 0.87559  0.40633  0.15068  Biso   1.000  N
  N32      1.0000 0.88179  0.63637  0.18668  Biso   1.000  N
  N33      1.0000 0.98773  0.36709  0.99816  Biso   1.000  N
  N34      1.0000 0.06417  0.31491  0.11494  Biso   1.000  N
  N35      1.0000 0.90726  0.50605  0.93139  Biso   1.000  N
  N36      1.0000 0.62441  0.47373  0.46926  Biso   1.000  N
  N37      1.0000 0.61821  0.43153  0.24542  Biso   1.000  N
  N38      1.0000 0.51227  0.51411  0.62064  Biso   1.000  N
  N39      1.0000 0.43583  0.32089  0.74926  Biso   1.000  N
  N40      1.0000 0.59274  0.66135  0.40121  Biso   1.000  N
