data_image0
_cell_length_a       15.2246
_cell_length_b       15.2246
_cell_length_c       16.686
_cell_angle_alpha    106.342
_cell_angle_beta     106.342
_cell_angle_gamma    110.907

_symmetry_space_group_name_H-M    P 1
_symmetry_int_tables_number       1

loop_
  _symmetry_equiv_pos_as_xyz
  'x, y, z'

loop_
  _atom_site_label
  _atom_site_occupancy
  _atom_site_fract_x
  _atom_site_fract_y
  _atom_site_fract_z
  _atom_site_thermal_displace_type
  _atom_site_B_iso_or_equiv
  _atom_site_type_symbol
  Ni1      1.0000 0.00000  0.50000  0.00000  Biso   1.000  Ni
  Ni2      1.0000 0.50000  0.00000  0.50000  Biso   1.000  Ni
  Ni3      1.0000 0.00000  0.00000  0.50000  Biso   1.000  Ni
  Ni4      1.0000 0.00000  0.00000  0.00000  Biso   1.000  Ni
  Mo1      1.0000 0.87129  0.12871  0.75000  Biso   1.000  Mo
  Mo2      1.0000 0.12871  0.87129  0.25000  Biso   1.000  Mo
  H1       1.0000 0.12830  0.42210  0.90150  Biso   1.000  H
  H2       1.0000 0.23850  0.51950  0.96570  Biso   1.000  H
  H3       1.0000 0.09710  0.35270  0.01800  Biso   1.000  H
  H4       1.0000 0.21520  0.42720  0.08100  Biso   1.000  H
  H5       1.0000 0.00610  0.39650  0.18970  Biso   1.000  H
  H6       1.0000 0.96880  0.33140  0.08400  Biso   1.000  H
  H7       1.0000 0.16860  0.63020  0.95570  Biso   1.000  H
  H8       1.0000 0.14040  0.55460  0.85550  Biso   1.000  H
  H9       1.0000 0.83840  0.02620  0.40450  Biso   1.000  H
  H10      1.0000 0.79390  0.96190  0.29800  Biso   1.000  H
  H11      1.0000 0.75240  0.86020  0.41110  Biso   1.000  H
  H12      1.0000 0.72590  0.78510  0.31070  Biso   1.000  H
  H13      1.0000 0.87810  0.74870  0.52890  Biso   1.000  H
  H14      1.0000 0.85020  0.84000  0.54580  Biso   1.000  H
  H15      1.0000 0.94250  0.10190  0.32780  Biso   1.000  H
  H16      1.0000 0.98260  0.02120  0.33400  Biso   1.000  H
  H17      1.0000 0.15260  0.54440  0.26430  Biso   1.000  H
  H18      1.0000 0.21990  0.58430  0.21400  Biso   1.000  H
  H19      1.0000 0.26020  0.47940  0.32310  Biso   1.000  H
  H20      1.0000 0.32550  0.51330  0.26930  Biso   1.000  H
  H21      1.0000 0.87250  0.66370  0.39730  Biso   1.000  H
  H22      1.0000 0.89760  0.73280  0.34490  Biso   1.000  H
  H23      1.0000 0.69730  0.56950  0.28040  Biso   1.000  H
  H24      1.0000 0.73730  0.63030  0.22510  Biso   1.000  H
  H25      1.0000 0.19040  0.56340  0.07290  Biso   1.000  H
  H26      1.0000 0.97800  0.45960  0.83620  Biso   1.000  H
  H27      1.0000 0.89370  0.87730  0.33280  Biso   1.000  H
  H28      1.0000 0.97750  0.15270  0.48340  Biso   1.000  H
  H29      1.0000 0.40860  0.65460  0.36400  Biso   1.000  H
  H30      1.0000 0.85340  0.57440  0.23150  Biso   1.000  H
  H31      1.0000 0.57790  0.87170  0.59850  Biso   1.000  H
  H32      1.0000 0.48050  0.76150  0.53430  Biso   1.000  H
  H33      1.0000 0.64730  0.90290  0.48200  Biso   1.000  H
  H34      1.0000 0.57280  0.78480  0.41900  Biso   1.000  H
  H35      1.0000 0.60350  0.99390  0.31030  Biso   1.000  H
  H36      1.0000 0.66860  0.03120  0.41600  Biso   1.000  H
  H37      1.0000 0.36980  0.83140  0.54430  Biso   1.000  H
  H38      1.0000 0.44540  0.85960  0.64450  Biso   1.000  H
  H39      1.0000 0.97380  0.16160  0.09550  Biso   1.000  H
  H40      1.0000 0.03810  0.20610  0.20200  Biso   1.000  H
  H41      1.0000 0.13980  0.24760  0.08890  Biso   1.000  H
  H42      1.0000 0.21490  0.27410  0.18930  Biso   1.000  H
  H43      1.0000 0.25130  0.12190  0.97110  Biso   1.000  H
  H44      1.0000 0.16000  0.14980  0.95420  Biso   1.000  H
  H45      1.0000 0.89810  0.05750  0.17220  Biso   1.000  H
  H46      1.0000 0.97880  0.01740  0.16600  Biso   1.000  H
  H47      1.0000 0.45560  0.84740  0.23570  Biso   1.000  H
  H48      1.0000 0.41570  0.78010  0.28600  Biso   1.000  H
  H49      1.0000 0.52060  0.73980  0.17690  Biso   1.000  H
  H50      1.0000 0.48670  0.67450  0.23070  Biso   1.000  H
  H51      1.0000 0.33630  0.12750  0.10270  Biso   1.000  H
  H52      1.0000 0.26720  0.10240  0.15510  Biso   1.000  H
  H53      1.0000 0.43050  0.30270  0.21960  Biso   1.000  H
  H54      1.0000 0.36970  0.26270  0.27490  Biso   1.000  H
  H55      1.0000 0.43660  0.80960  0.42710  Biso   1.000  H
  H56      1.0000 0.54040  0.02200  0.66380  Biso   1.000  H
  H57      1.0000 0.12270  0.10630  0.16720  Biso   1.000  H
  H58      1.0000 0.84730  0.02250  0.01660  Biso   1.000  H
  H59      1.0000 0.34540  0.59140  0.13600  Biso   1.000  H
  H60      1.0000 0.42560  0.14660  0.26850  Biso   1.000  H
  H61      1.0000 0.87170  0.57790  0.09850  Biso   1.000  H
  H62      1.0000 0.76150  0.48050  0.03430  Biso   1.000  H
  H63      1.0000 0.90290  0.64730  0.98200  Biso   1.000  H
  H64      1.0000 0.78480  0.57280  0.91900  Biso   1.000  H
  H65      1.0000 0.99390  0.60350  0.81030  Biso   1.000  H
  H66      1.0000 0.03120  0.66860  0.91600  Biso   1.000  H
  H67      1.0000 0.83140  0.36980  0.04430  Biso   1.000  H
  H68      1.0000 0.85960  0.44540  0.14450  Biso   1.000  H
  H69      1.0000 0.16160  0.97380  0.59550  Biso   1.000  H
  H70      1.0000 0.20610  0.03810  0.70200  Biso   1.000  H
  H71      1.0000 0.24760  0.13980  0.58890  Biso   1.000  H
  H72      1.0000 0.27410  0.21490  0.68930  Biso   1.000  H
  H73      1.0000 0.12190  0.25130  0.47110  Biso   1.000  H
  H74      1.0000 0.14980  0.16000  0.45420  Biso   1.000  H
  H75      1.0000 0.05750  0.89810  0.67220  Biso   1.000  H
  H76      1.0000 0.01740  0.97880  0.66600  Biso   1.000  H
  H77      1.0000 0.84740  0.45560  0.73570  Biso   1.000  H
  H78      1.0000 0.78010  0.41570  0.78600  Biso   1.000  H
  H79      1.0000 0.73980  0.52060  0.67690  Biso   1.000  H
  H80      1.0000 0.67450  0.48670  0.73070  Biso   1.000  H
  H81      1.0000 0.12750  0.33630  0.60270  Biso   1.000  H
  H82      1.0000 0.10240  0.26720  0.65510  Biso   1.000  H
  H83      1.0000 0.30270  0.43050  0.71960  Biso   1.000  H
  H84      1.0000 0.26270  0.36970  0.77490  Biso   1.000  H
  H85      1.0000 0.80960  0.43660  0.92710  Biso   1.000  H
  H86      1.0000 0.02200  0.54040  0.16380  Biso   1.000  H
  H87      1.0000 0.10630  0.12270  0.66720  Biso   1.000  H
  H88      1.0000 0.02250  0.84730  0.51660  Biso   1.000  H
  H89      1.0000 0.59140  0.34540  0.63600  Biso   1.000  H
  H90      1.0000 0.14660  0.42560  0.76850  Biso   1.000  H
  H91      1.0000 0.42210  0.12830  0.40150  Biso   1.000  H
  H92      1.0000 0.51950  0.23850  0.46570  Biso   1.000  H
  H93      1.0000 0.35270  0.09710  0.51800  Biso   1.000  H
  H94      1.0000 0.42720  0.21520  0.58100  Biso   1.000  H
  H95      1.0000 0.39650  0.00610  0.68970  Biso   1.000  H
  H96      1.0000 0.33140  0.96880  0.58400  Biso   1.000  H
  H97      1.0000 0.63020  0.16860  0.45570  Biso   1.000  H
  H98      1.0000 0.55460  0.14040  0.35550  Biso   1.000  H
  H99      1.0000 0.02620  0.83840  0.90450  Biso   1.000  H
  H100     1.0000 0.96190  0.79390  0.79800  Biso   1.000  H
  H101     1.0000 0.86020  0.75240  0.91110  Biso   1.000  H
  H102     1.0000 0.78510  0.72590  0.81070  Biso   1.000  H
  H103     1.0000 0.74870  0.87810  0.02890  Biso   1.000  H
  H104     1.0000 0.84000  0.85020  0.04580  Biso   1.000  H
  H105     1.0000 0.10190  0.94250  0.82780  Biso   1.000  H
  H106     1.0000 0.02120  0.98260  0.83400  Biso   1.000  H
  H107     1.0000 0.54440  0.15260  0.76430  Biso   1.000  H
  H108     1.0000 0.58430  0.21990  0.71400  Biso   1.000  H
  H109     1.0000 0.47940  0.26020  0.82310  Biso   1.000  H
  H110     1.0000 0.51330  0.32550  0.76930  Biso   1.000  H
  H111     1.0000 0.66370  0.87250  0.89730  Biso   1.000  H
  H112     1.0000 0.73280  0.89760  0.84490  Biso   1.000  H
  H113     1.0000 0.56950  0.69730  0.78040  Biso   1.000  H
  H114     1.0000 0.63030  0.73730  0.72510  Biso   1.000  H
  H115     1.0000 0.56340  0.19040  0.57290  Biso   1.000  H
  H116     1.0000 0.45960  0.97800  0.33620  Biso   1.000  H
  H117     1.0000 0.87730  0.89370  0.83280  Biso   1.000  H
  H118     1.0000 0.15270  0.97750  0.98340  Biso   1.000  H
  H119     1.0000 0.65460  0.40860  0.86400  Biso   1.000  H
  H120     1.0000 0.57440  0.85340  0.73150  Biso   1.000  H
  C1       1.0000 0.90235  0.26625  0.85590  Biso   1.000  C
  C2       1.0000 0.92116  0.25544  0.71380  Biso   1.000  C
  C3       1.0000 0.89417  0.07003  0.62940  Biso   1.000  C
  C4       1.0000 0.81472  0.96388  0.70180  Biso   1.000  C
  C5       1.0000 0.16453  0.49347  0.94760  Biso   1.000  C
  C6       1.0000 0.14664  0.42176  0.06630  Biso   1.000  C
  C7       1.0000 0.01422  0.39978  0.13480  Biso   1.000  C
  C8       1.0000 0.12876  0.55824  0.91030  Biso   1.000  C
  C9       1.0000 0.85164  0.98936  0.35630  Biso   1.000  C
  C10      1.0000 0.77968  0.82712  0.37340  Biso   1.000  C
  C11      1.0000 0.87965  0.80515  0.51220  Biso   1.000  C
  C12      1.0000 0.95185  0.06015  0.35970  Biso   1.000  C
  C13      1.0000 0.19390  0.52930  0.23290  Biso   1.000  C
  C14      1.0000 0.28549  0.53131  0.30080  Biso   1.000  C
  C15      1.0000 0.84334  0.69246  0.35870  Biso   1.000  C
  C16      1.0000 0.75740  0.60440  0.27030  Biso   1.000  C
  C17      1.0000 0.73375  0.09765  0.64410  Biso   1.000  C
  C18      1.0000 0.74456  0.07884  0.78620  Biso   1.000  C
  C19      1.0000 0.92997  0.10583  0.87060  Biso   1.000  C
  C20      1.0000 0.03612  0.18528  0.79820  Biso   1.000  C
  C21      1.0000 0.50653  0.83547  0.55240  Biso   1.000  C
  C22      1.0000 0.57824  0.85336  0.43370  Biso   1.000  C
  C23      1.0000 0.60022  0.98578  0.36520  Biso   1.000  C
  C24      1.0000 0.44176  0.87124  0.58970  Biso   1.000  C
  C25      1.0000 0.01064  0.14836  0.14370  Biso   1.000  C
  C26      1.0000 0.17288  0.22032  0.12660  Biso   1.000  C
  C27      1.0000 0.19485  0.12035  0.98780  Biso   1.000  C
  C28      1.0000 0.93985  0.04815  0.14030  Biso   1.000  C
  C29      1.0000 0.47070  0.80610  0.26710  Biso   1.000  C
  C30      1.0000 0.46869  0.71451  0.19920  Biso   1.000  C
  C31      1.0000 0.30754  0.15666  0.14130  Biso   1.000  C
  C32      1.0000 0.39560  0.24260  0.22970  Biso   1.000  C
  C33      1.0000 0.09765  0.73375  0.14410  Biso   1.000  C
  C34      1.0000 0.07884  0.74456  0.28620  Biso   1.000  C
  C35      1.0000 0.10583  0.92997  0.37060  Biso   1.000  C
  C36      1.0000 0.18528  0.03612  0.29820  Biso   1.000  C
  C37      1.0000 0.83547  0.50653  0.05240  Biso   1.000  C
  C38      1.0000 0.85336  0.57824  0.93370  Biso   1.000  C
  C39      1.0000 0.98578  0.60022  0.86520  Biso   1.000  C
  C40      1.0000 0.87124  0.44176  0.08970  Biso   1.000  C
  C41      1.0000 0.14836  0.01064  0.64370  Biso   1.000  C
  C42      1.0000 0.22032  0.17288  0.62660  Biso   1.000  C
  C43      1.0000 0.12035  0.19485  0.48780  Biso   1.000  C
  C44      1.0000 0.04815  0.93985  0.64030  Biso   1.000  C
  C45      1.0000 0.80610  0.47070  0.76710  Biso   1.000  C
  C46      1.0000 0.71451  0.46869  0.69920  Biso   1.000  C
  C47      1.0000 0.15666  0.30754  0.64130  Biso   1.000  C
  C48      1.0000 0.24260  0.39560  0.72970  Biso   1.000  C
  C49      1.0000 0.26625  0.90235  0.35590  Biso   1.000  C
  C50      1.0000 0.25544  0.92116  0.21380  Biso   1.000  C
  C51      1.0000 0.07003  0.89417  0.12940  Biso   1.000  C
  C52      1.0000 0.96388  0.81472  0.20180  Biso   1.000  C
  C53      1.0000 0.49347  0.16453  0.44760  Biso   1.000  C
  C54      1.0000 0.42176  0.14664  0.56630  Biso   1.000  C
  C55      1.0000 0.39978  0.01422  0.63480  Biso   1.000  C
  C56      1.0000 0.55824  0.12876  0.41030  Biso   1.000  C
  C57      1.0000 0.98936  0.85164  0.85630  Biso   1.000  C
  C58      1.0000 0.82712  0.77968  0.87340  Biso   1.000  C
  C59      1.0000 0.80515  0.87965  0.01220  Biso   1.000  C
  C60      1.0000 0.06015  0.95185  0.85970  Biso   1.000  C
  C61      1.0000 0.52930  0.19390  0.73290  Biso   1.000  C
  C62      1.0000 0.53131  0.28549  0.80080  Biso   1.000  C
  C63      1.0000 0.69246  0.84334  0.85870  Biso   1.000  C
  C64      1.0000 0.60440  0.75740  0.77030  Biso   1.000  C
  N1       1.0000 0.92106  0.34168  0.91640  Biso   1.000  N
  N2       1.0000 0.94478  0.32402  0.69770  Biso   1.000  N
  N3       1.0000 0.90978  0.03676  0.56660  Biso   1.000  N
  N4       1.0000 0.78930  0.87930  0.68060  Biso   1.000  N
  N5       1.0000 0.14158  0.49962  0.02690  Biso   1.000  N
  N6       1.0000 0.12613  0.43087  0.15020  Biso   1.000  N
  N7       1.0000 0.01586  0.52174  0.88670  Biso   1.000  N
  N8       1.0000 0.87468  0.90764  0.37540  Biso   1.000  N
  N9       1.0000 0.81522  0.76178  0.41120  Biso   1.000  N
  N10      1.0000 0.00982  0.11938  0.46000  Biso   1.000  N
  N11      1.0000 0.65832  0.07894  0.58360  Biso   1.000  N
  N12      1.0000 0.67598  0.05522  0.80230  Biso   1.000  N
  N13      1.0000 0.96324  0.09022  0.93340  Biso   1.000  N
  N14      1.0000 0.12070  0.21070  0.81940  Biso   1.000  N
  N15      1.0000 0.50038  0.85842  0.47310  Biso   1.000  N
  N16      1.0000 0.56913  0.87387  0.34980  Biso   1.000  N
  N17      1.0000 0.47826  0.98414  0.61330  Biso   1.000  N
  N18      1.0000 0.09236  0.12532  0.12460  Biso   1.000  N
  N19      1.0000 0.23822  0.18478  0.08880  Biso   1.000  N
  N20      1.0000 0.88062  0.99018  0.04000  Biso   1.000  N
  N21      1.0000 0.07894  0.65832  0.08360  Biso   1.000  N
  N22      1.0000 0.05522  0.67598  0.30230  Biso   1.000  N
  N23      1.0000 0.09022  0.96324  0.43340  Biso   1.000  N
  N24      1.0000 0.21070  0.12070  0.31940  Biso   1.000  N
  N25      1.0000 0.85842  0.50038  0.97310  Biso   1.000  N
  N26      1.0000 0.87387  0.56913  0.84980  Biso   1.000  N
  N27      1.0000 0.98414  0.47826  0.11330  Biso   1.000  N
  N28      1.0000 0.12532  0.09236  0.62460  Biso   1.000  N
  N29      1.0000 0.18478  0.23822  0.58880  Biso   1.000  N
  N30      1.0000 0.99018  0.88062  0.54000  Biso   1.000  N
  N31      1.0000 0.34168  0.92106  0.41640  Biso   1.000  N
  N32      1.0000 0.32402  0.94478  0.19770  Biso   1.000  N
  N33      1.0000 0.03676  0.90978  0.06660  Biso   1.000  N
  N34      1.0000 0.87930  0.78930  0.18060  Biso   1.000  N
  N35      1.0000 0.49962  0.14158  0.52690  Biso   1.000  N
  N36      1.0000 0.43087  0.12613  0.65020  Biso   1.000  N
  N37      1.0000 0.52174  0.01586  0.38670  Biso   1.000  N
  N38      1.0000 0.90764  0.87468  0.87540  Biso   1.000  N
  N39      1.0000 0.76178  0.81522  0.91120  Biso   1.000  N
  N40      1.0000 0.11938  0.00982  0.96000  Biso   1.000  N
  O1       1.0000 0.34642  0.62274  0.37160  Biso   1.000  O
  O2       1.0000 0.79281  0.53645  0.23870  Biso   1.000  O
  O3       1.0000 0.37726  0.65358  0.12840  Biso   1.000  O
  O4       1.0000 0.46355  0.20719  0.26130  Biso   1.000  O
  O5       1.0000 0.65358  0.37726  0.62840  Biso   1.000  O
  O6       1.0000 0.20719  0.46355  0.76130  Biso   1.000  O
  O7       1.0000 0.62274  0.34642  0.87160  Biso   1.000  O
  O8       1.0000 0.53645  0.79281  0.73870  Biso   1.000  O
