data_image0
_cell_length_a       16.0069
_cell_length_b       16.0069
_cell_length_c       16.5526
_cell_angle_alpha    118.915
_cell_angle_beta     118.915
_cell_angle_gamma    90

_symmetry_space_group_name_H-M    P 1
_symmetry_int_tables_number       1

loop_
  _symmetry_equiv_pos_as_xyz
  'x, y, z'

loop_
  _atom_site_label
  _atom_site_occupancy
  _atom_site_fract_x
  _atom_site_fract_y
  _atom_site_fract_z
  _atom_site_thermal_displace_type
  _atom_site_B_iso_or_equiv
  _atom_site_type_symbol
  Cd1      1.0000 0.53534  0.73372  0.81893  Biso   1.000  Cd
  Cd2      1.0000 0.28358  0.08521  0.81892  Biso   1.000  Cd
  Cd3      1.0000 0.26629  0.71642  0.18109  Biso   1.000  Cd
  Cd4      1.0000 0.91479  0.46466  0.18107  Biso   1.000  Cd
  Cd5      1.0000 0.96642  0.01628  0.68108  Biso   1.000  Cd
  Cd6      1.0000 0.71466  0.66480  0.68108  Biso   1.000  Cd
  Cd7      1.0000 0.33521  0.03358  0.31892  Biso   1.000  Cd
  Cd8      1.0000 0.98372  0.28534  0.31893  Biso   1.000  Cd
  H1       1.0000 0.16640  0.56060  0.35640  Biso   1.000  H
  H2       1.0000 0.26570  0.64850  0.55760  Biso   1.000  H
  H3       1.0000 0.10200  0.60860  0.64640  Biso   1.000  H
  H4       1.0000 0.18100  0.70480  0.69420  Biso   1.000  H
  H5       1.0000 0.23080  0.52830  0.66400  Biso   1.000  H
  H6       1.0000 0.24410  0.61010  0.77540  Biso   1.000  H
  H7       1.0000 0.78480  0.33310  0.35220  Biso   1.000  H
  H8       1.0000 0.77330  0.50070  0.45380  Biso   1.000  H
  H9       1.0000 0.99150  0.69060  0.55220  Biso   1.000  H
  H10      1.0000 0.93060  0.68550  0.60140  Biso   1.000  H
  H11      1.0000 0.78760  0.67790  0.45900  Biso   1.000  H
  H12      1.0000 0.84210  0.67200  0.40000  Biso   1.000  H
  H13      1.0000 0.19000  0.79580  0.35640  Biso   1.000  H
  H14      1.0000 0.29190  0.90910  0.55760  Biso   1.000  H
  H15      1.0000 0.54440  0.03780  0.64640  Biso   1.000  H
  H16      1.0000 0.51320  0.98940  0.69420  Biso   1.000  H
  H17      1.0000 0.43320  0.13570  0.66400  Biso   1.000  H
  H18      1.0000 0.53130  0.16530  0.77540  Biso   1.000  H
  H19      1.0000 0.56740  0.01910  0.35220  Biso   1.000  H
  H20      1.0000 0.68050  0.95310  0.45380  Biso   1.000  H
  H21      1.0000 0.56070  0.86160  0.55220  Biso   1.000  H
  H22      1.0000 0.67080  0.91590  0.60140  Biso   1.000  H
  H23      1.0000 0.67140  0.78110  0.45900  Biso   1.000  H
  H24      1.0000 0.55790  0.72800  0.40000  Biso   1.000  H
  H25      1.0000 0.43940  0.81000  0.64360  Biso   1.000  H
  H26      1.0000 0.35150  0.70810  0.44240  Biso   1.000  H
  H27      1.0000 0.39140  0.45560  0.35360  Biso   1.000  H
  H28      1.0000 0.29520  0.48680  0.30580  Biso   1.000  H
  H29      1.0000 0.47170  0.56680  0.33600  Biso   1.000  H
  H30      1.0000 0.38990  0.46870  0.22460  Biso   1.000  H
  H31      1.0000 0.66690  0.43260  0.64780  Biso   1.000  H
  H32      1.0000 0.49930  0.31950  0.54620  Biso   1.000  H
  H33      1.0000 0.30940  0.43930  0.44780  Biso   1.000  H
  H34      1.0000 0.31450  0.32920  0.39860  Biso   1.000  H
  H35      1.0000 0.32210  0.32860  0.54100  Biso   1.000  H
  H36      1.0000 0.32800  0.44210  0.60000  Biso   1.000  H
  H37      1.0000 0.20420  0.83360  0.64360  Biso   1.000  H
  H38      1.0000 0.09090  0.73430  0.44240  Biso   1.000  H
  H39      1.0000 0.96220  0.89800  0.35360  Biso   1.000  H
  H40      1.0000 0.01060  0.81900  0.30580  Biso   1.000  H
  H41      1.0000 0.86430  0.76920  0.33600  Biso   1.000  H
  H42      1.0000 0.83470  0.75590  0.22460  Biso   1.000  H
  H43      1.0000 0.98090  0.21520  0.64780  Biso   1.000  H
  H44      1.0000 0.04690  0.22670  0.54620  Biso   1.000  H
  H45      1.0000 0.13840  0.00850  0.44780  Biso   1.000  H
  H46      1.0000 0.08410  0.06940  0.39860  Biso   1.000  H
  H47      1.0000 0.21890  0.21240  0.54100  Biso   1.000  H
  H48      1.0000 0.27200  0.15790  0.60000  Biso   1.000  H
  H49      1.0000 0.06000  0.18940  0.14360  Biso   1.000  H
  H50      1.0000 0.95810  0.10150  0.94240  Biso   1.000  H
  H51      1.0000 0.70560  0.14140  0.85360  Biso   1.000  H
  H52      1.0000 0.73680  0.04520  0.80580  Biso   1.000  H
  H53      1.0000 0.81680  0.22170  0.83600  Biso   1.000  H
  H54      1.0000 0.71870  0.13990  0.72460  Biso   1.000  H
  H55      1.0000 0.68260  0.41690  0.14780  Biso   1.000  H
  H56      1.0000 0.56950  0.24930  0.04620  Biso   1.000  H
  H57      1.0000 0.68930  0.05940  0.94780  Biso   1.000  H
  H58      1.0000 0.57920  0.06450  0.89860  Biso   1.000  H
  H59      1.0000 0.57860  0.07210  0.04100  Biso   1.000  H
  H60      1.0000 0.69210  0.07800  0.10000  Biso   1.000  H
  H61      1.0000 0.08360  0.95420  0.14360  Biso   1.000  H
  H62      1.0000 0.98430  0.84090  0.94240  Biso   1.000  H
  H63      1.0000 0.14800  0.71220  0.85360  Biso   1.000  H
  H64      1.0000 0.06900  0.76060  0.80580  Biso   1.000  H
  H65      1.0000 0.01920  0.61430  0.83600  Biso   1.000  H
  H66      1.0000 0.00590  0.58470  0.72460  Biso   1.000  H
  H67      1.0000 0.46520  0.73090  0.14780  Biso   1.000  H
  H68      1.0000 0.47670  0.79690  0.04620  Biso   1.000  H
  H69      1.0000 0.25850  0.88840  0.94780  Biso   1.000  H
  H70      1.0000 0.31940  0.83410  0.89860  Biso   1.000  H
  H71      1.0000 0.46240  0.96890  0.04100  Biso   1.000  H
  H72      1.0000 0.40790  0.02200  0.10000  Biso   1.000  H
  H73      1.0000 0.04580  0.94000  0.85640  Biso   1.000  H
  H74      1.0000 0.15910  0.04190  0.05760  Biso   1.000  H
  H75      1.0000 0.28780  0.29440  0.14640  Biso   1.000  H
  H76      1.0000 0.23940  0.26320  0.19420  Biso   1.000  H
  H77      1.0000 0.38570  0.18320  0.16400  Biso   1.000  H
  H78      1.0000 0.41530  0.28130  0.27540  Biso   1.000  H
  H79      1.0000 0.26910  0.31740  0.85220  Biso   1.000  H
  H80      1.0000 0.20310  0.43050  0.95380  Biso   1.000  H
  H81      1.0000 0.11160  0.31070  0.05220  Biso   1.000  H
  H82      1.0000 0.16590  0.42080  0.10140  Biso   1.000  H
  H83      1.0000 0.03110  0.42140  0.95900  Biso   1.000  H
  H84      1.0000 0.97800  0.30790  0.90000  Biso   1.000  H
  H85      1.0000 0.81060  0.91640  0.85640  Biso   1.000  H
  H86      1.0000 0.89850  0.01570  0.05760  Biso   1.000  H
  H87      1.0000 0.85860  0.85200  0.14640  Biso   1.000  H
  H88      1.0000 0.95480  0.93100  0.19420  Biso   1.000  H
  H89      1.0000 0.77830  0.98080  0.16400  Biso   1.000  H
  H90      1.0000 0.86010  0.99410  0.27540  Biso   1.000  H
  H91      1.0000 0.58310  0.53480  0.85220  Biso   1.000  H
  H92      1.0000 0.75070  0.52330  0.95380  Biso   1.000  H
  H93      1.0000 0.94060  0.74150  0.05220  Biso   1.000  H
  H94      1.0000 0.93550  0.68060  0.10140  Biso   1.000  H
  H95      1.0000 0.92790  0.53760  0.95900  Biso   1.000  H
  H96      1.0000 0.92200  0.59210  0.90000  Biso   1.000  H
  C1       1.0000 0.04393  0.53933  0.44446  Biso   1.000  C
  C2       1.0000 0.14278  0.56328  0.39876  Biso   1.000  C
  C3       1.0000 0.19830  0.61150  0.51000  Biso   1.000  C
  C4       1.0000 0.16130  0.63220  0.65160  Biso   1.000  C
  C5       1.0000 0.24473  0.59963  0.71286  Biso   1.000  C
  C6       1.0000 0.34919  0.65309  0.75518  Biso   1.000  C
  C7       1.0000 0.95521  0.49891  0.43422  Biso   1.000  C
  C8       1.0000 0.82970  0.39310  0.38360  Biso   1.000  C
  C9       1.0000 0.82270  0.48580  0.43960  Biso   1.000  C
  C10      1.0000 0.92615  0.66205  0.53290  Biso   1.000  C
  C11      1.0000 0.85155  0.69985  0.47150  Biso   1.000  C
  C12      1.0000 0.88743  0.81433  0.53686  Biso   1.000  C
  C13      1.0000 0.40053  0.90513  0.44446  Biso   1.000  C
  C14      1.0000 0.25598  0.83548  0.39876  Biso   1.000  C
  C15      1.0000 0.31170  0.89850  0.51000  Biso   1.000  C
  C16      1.0000 0.49030  0.01940  0.65160  Biso   1.000  C
  C17      1.0000 0.46813  0.11323  0.71286  Biso   1.000  C
  C18      1.0000 0.40599  0.10209  0.75518  Biso   1.000  C
  C19      1.0000 0.47901  0.93531  0.43422  Biso   1.000  C
  C20      1.0000 0.55390  0.99050  0.38360  Biso   1.000  C
  C21      1.0000 0.61690  0.95380  0.43960  Biso   1.000  C
  C22      1.0000 0.60675  0.87085  0.53290  Biso   1.000  C
  C23      1.0000 0.61995  0.77165  0.47150  Biso   1.000  C
  C24      1.0000 0.64943  0.72253  0.53686  Biso   1.000  C
  C25      1.0000 0.46067  0.59947  0.55554  Biso   1.000  C
  C26      1.0000 0.43672  0.74402  0.60124  Biso   1.000  C
  C27      1.0000 0.38850  0.68830  0.49000  Biso   1.000  C
  C28      1.0000 0.36780  0.50970  0.34840  Biso   1.000  C
  C29      1.0000 0.40037  0.53187  0.28714  Biso   1.000  C
  C30      1.0000 0.34691  0.59401  0.24482  Biso   1.000  C
  C31      1.0000 0.50109  0.52099  0.56578  Biso   1.000  C
  C32      1.0000 0.60690  0.44610  0.61640  Biso   1.000  C
  C33      1.0000 0.51420  0.38310  0.56040  Biso   1.000  C
  C34      1.0000 0.33795  0.39325  0.46710  Biso   1.000  C
  C35      1.0000 0.30015  0.38005  0.52850  Biso   1.000  C
  C36      1.0000 0.18567  0.35057  0.46314  Biso   1.000  C
  C37      1.0000 0.09487  0.95607  0.55554  Biso   1.000  C
  C38      1.0000 0.16452  0.85722  0.60124  Biso   1.000  C
  C39      1.0000 0.10150  0.80170  0.49000  Biso   1.000  C
  C40      1.0000 0.98060  0.83870  0.34840  Biso   1.000  C
  C41      1.0000 0.88677  0.75527  0.28714  Biso   1.000  C
  C42      1.0000 0.89791  0.65081  0.24482  Biso   1.000  C
  C43      1.0000 0.06469  0.04479  0.56578  Biso   1.000  C
  C44      1.0000 0.00950  0.17030  0.61640  Biso   1.000  C
  C45      1.0000 0.04620  0.17730  0.56040  Biso   1.000  C
  C46      1.0000 0.12915  0.07385  0.46710  Biso   1.000  C
  C47      1.0000 0.22835  0.14845  0.52850  Biso   1.000  C
  C48      1.0000 0.27747  0.11257  0.46314  Biso   1.000  C
  C49      1.0000 0.84947  0.21067  0.05554  Biso   1.000  C
  C50      1.0000 0.99402  0.18672  0.10124  Biso   1.000  C
  C51      1.0000 0.93830  0.13850  0.99000  Biso   1.000  C
  C52      1.0000 0.75970  0.11780  0.84840  Biso   1.000  C
  C53      1.0000 0.78187  0.15037  0.78714  Biso   1.000  C
  C54      1.0000 0.84401  0.09691  0.74482  Biso   1.000  C
  C55      1.0000 0.77099  0.25109  0.06578  Biso   1.000  C
  C56      1.0000 0.69610  0.35690  0.11640  Biso   1.000  C
  C57      1.0000 0.63310  0.26420  0.06040  Biso   1.000  C
  C58      1.0000 0.64325  0.08795  0.96710  Biso   1.000  C
  C59      1.0000 0.63005  0.05015  0.02850  Biso   1.000  C
  C60      1.0000 0.60057  0.93567  0.96314  Biso   1.000  C
  C61      1.0000 0.20607  0.84487  0.05554  Biso   1.000  C
  C62      1.0000 0.10722  0.91452  0.10124  Biso   1.000  C
  C63      1.0000 0.05170  0.85150  0.99000  Biso   1.000  C
  C64      1.0000 0.08870  0.73060  0.84840  Biso   1.000  C
  C65      1.0000 0.00527  0.63677  0.78714  Biso   1.000  C
  C66      1.0000 0.90081  0.64791  0.74482  Biso   1.000  C
  C67      1.0000 0.29479  0.81469  0.06578  Biso   1.000  C
  C68      1.0000 0.42030  0.75950  0.11640  Biso   1.000  C
  C69      1.0000 0.42730  0.79620  0.06040  Biso   1.000  C
  C70      1.0000 0.32385  0.87915  0.96710  Biso   1.000  C
  C71      1.0000 0.39845  0.97835  0.02850  Biso   1.000  C
  C72      1.0000 0.36257  0.02747  0.96314  Biso   1.000  C
  C73      1.0000 0.15513  0.15053  0.94446  Biso   1.000  C
  C74      1.0000 0.08548  0.00598  0.89876  Biso   1.000  C
  C75      1.0000 0.14850  0.06170  0.01000  Biso   1.000  C
  C76      1.0000 0.26940  0.24030  0.15160  Biso   1.000  C
  C77      1.0000 0.36323  0.21813  0.21286  Biso   1.000  C
  C78      1.0000 0.35209  0.15599  0.25518  Biso   1.000  C
  C79      1.0000 0.18531  0.22901  0.93422  Biso   1.000  C
  C80      1.0000 0.24050  0.30390  0.88360  Biso   1.000  C
  C81      1.0000 0.20380  0.36690  0.93960  Biso   1.000  C
  C82      1.0000 0.12085  0.35675  0.03290  Biso   1.000  C
  C83      1.0000 0.02165  0.36995  0.97150  Biso   1.000  C
  C84      1.0000 0.97253  0.39943  0.03686  Biso   1.000  C
  C85      1.0000 0.78933  0.79393  0.94446  Biso   1.000  C
  C86      1.0000 0.81328  0.89278  0.89876  Biso   1.000  C
  C87      1.0000 0.86150  0.94830  0.01000  Biso   1.000  C
  C88      1.0000 0.88220  0.91130  0.15160  Biso   1.000  C
  C89      1.0000 0.84963  0.99473  0.21286  Biso   1.000  C
  C90      1.0000 0.90309  0.09919  0.25518  Biso   1.000  C
  C91      1.0000 0.74891  0.70521  0.93422  Biso   1.000  C
  C92      1.0000 0.64310  0.57970  0.88360  Biso   1.000  C
  C93      1.0000 0.73580  0.57270  0.93960  Biso   1.000  C
  C94      1.0000 0.91205  0.67615  0.03290  Biso   1.000  C
  C95      1.0000 0.94985  0.60155  0.97150  Biso   1.000  C
  C96      1.0000 0.06433  0.63743  0.03686  Biso   1.000  C
  N1       1.0000 0.04538  0.51858  0.35736  Biso   1.000  N
  N2       1.0000 0.13585  0.59512  0.53944  Biso   1.000  N
  N3       1.0000 0.91306  0.40176  0.38052  Biso   1.000  N
  N4       1.0000 0.90199  0.55259  0.47078  Biso   1.000  N
  N5       1.0000 0.31198  0.83878  0.35736  Biso   1.000  N
  N6       1.0000 0.40359  0.94432  0.53944  Biso   1.000  N
  N7       1.0000 0.46746  0.97876  0.38052  Biso   1.000  N
  N8       1.0000 0.56879  0.91819  0.47078  Biso   1.000  N
  N9       1.0000 0.48142  0.68802  0.64264  Biso   1.000  N
  N10      1.0000 0.40488  0.59641  0.46056  Biso   1.000  N
  N11      1.0000 0.59824  0.53254  0.61948  Biso   1.000  N
  N12      1.0000 0.44741  0.43121  0.52922  Biso   1.000  N
  N13      1.0000 0.16122  0.95462  0.64264  Biso   1.000  N
  N14      1.0000 0.05568  0.86415  0.46056  Biso   1.000  N
  N15      1.0000 0.02124  0.08694  0.61948  Biso   1.000  N
  N16      1.0000 0.08181  0.09801  0.52922  Biso   1.000  N
  N17      1.0000 0.93802  0.23142  0.14264  Biso   1.000  N
  N18      1.0000 0.84641  0.15488  0.96056  Biso   1.000  N
  N19      1.0000 0.78254  0.34824  0.11948  Biso   1.000  N
  N20      1.0000 0.68121  0.19741  0.02922  Biso   1.000  N
  N21      1.0000 0.20462  0.91122  0.14264  Biso   1.000  N
  N22      1.0000 0.11415  0.80568  0.96056  Biso   1.000  N
  N23      1.0000 0.33694  0.77124  0.11948  Biso   1.000  N
  N24      1.0000 0.34801  0.83181  0.02922  Biso   1.000  N
  N25      1.0000 0.08878  0.06198  0.85736  Biso   1.000  N
  N26      1.0000 0.19432  0.15359  0.03944  Biso   1.000  N
  N27      1.0000 0.22876  0.21746  0.88052  Biso   1.000  N
  N28      1.0000 0.16819  0.31879  0.97078  Biso   1.000  N
  N29      1.0000 0.76858  0.79538  0.85736  Biso   1.000  N
  N30      1.0000 0.84512  0.88585  0.03944  Biso   1.000  N
  N31      1.0000 0.65176  0.66306  0.88052  Biso   1.000  N
  N32      1.0000 0.80259  0.65199  0.97078  Biso   1.000  N
  O1       1.0000 0.41623  0.61293  0.78106  Biso   1.000  O
  O2       1.0000 0.36617  0.73377  0.76474  Biso   1.000  O
  O3       1.0000 0.96668  0.85858  0.63096  Biso   1.000  O
  O4       1.0000 0.83984  0.85964  0.49728  Biso   1.000  O
  O5       1.0000 0.36483  0.16813  0.78106  Biso   1.000  O
  O6       1.0000 0.39857  0.03097  0.76474  Biso   1.000  O
  O7       1.0000 0.66428  0.77238  0.63096  Biso   1.000  O
  O8       1.0000 0.65744  0.63764  0.49728  Biso   1.000  O
  O9       1.0000 0.38707  0.63517  0.21894  Biso   1.000  O
  O10      1.0000 0.26623  0.60143  0.23526  Biso   1.000  O
  O11      1.0000 0.14142  0.33572  0.36904  Biso   1.000  O
  O12      1.0000 0.14036  0.34256  0.50272  Biso   1.000  O
  O13      1.0000 0.83187  0.58377  0.21894  Biso   1.000  O
  O14      1.0000 0.96903  0.63383  0.23526  Biso   1.000  O
  O15      1.0000 0.22762  0.03332  0.36904  Biso   1.000  O
  O16      1.0000 0.36236  0.16016  0.50272  Biso   1.000  O
  O17      1.0000 0.88517  0.13707  0.71894  Biso   1.000  O
  O18      1.0000 0.85143  0.01623  0.73526  Biso   1.000  O
  O19      1.0000 0.58572  0.89142  0.86904  Biso   1.000  O
  O20      1.0000 0.59256  0.89036  0.00272  Biso   1.000  O
  O21      1.0000 0.83377  0.58187  0.71894  Biso   1.000  O
  O22      1.0000 0.88383  0.71903  0.73526  Biso   1.000  O
  O23      1.0000 0.28332  0.97762  0.86904  Biso   1.000  O
  O24      1.0000 0.41016  0.11236  0.00272  Biso   1.000  O
  O25      1.0000 0.41813  0.11483  0.28106  Biso   1.000  O
  O26      1.0000 0.28097  0.14857  0.26474  Biso   1.000  O
  O27      1.0000 0.02238  0.41428  0.13096  Biso   1.000  O
  O28      1.0000 0.88764  0.40744  0.99728  Biso   1.000  O
  O29      1.0000 0.86293  0.16623  0.28106  Biso   1.000  O
  O30      1.0000 0.98377  0.11617  0.26474  Biso   1.000  O
  O31      1.0000 0.10858  0.71668  0.13096  Biso   1.000  O
  O32      1.0000 0.10964  0.58984  0.99728  Biso   1.000  O
