data_image0
_cell_length_a       15.1473
_cell_length_b       15.1473
_cell_length_c       15.4766
_cell_angle_alpha    90
_cell_angle_beta     90
_cell_angle_gamma    120

_symmetry_space_group_name_H-M    P 1
_symmetry_int_tables_number       1

loop_
  _symmetry_equiv_pos_as_xyz
  'x, y, z'

loop_
  _atom_site_label
  _atom_site_occupancy
  _atom_site_fract_x
  _atom_site_fract_y
  _atom_site_fract_z
  _atom_site_thermal_displace_type
  _atom_site_B_iso_or_equiv
  _atom_site_type_symbol
  Dy1      1.0000 0.66667  0.33334  0.75000  Biso   1.000  Dy
  Dy2      1.0000 0.33333  0.66666  0.75000  Biso   1.000  Dy
  Dy3      1.0000 0.33333  0.66666  0.25000  Biso   1.000  Dy
  Dy4      1.0000 0.66667  0.33334  0.25000  Biso   1.000  Dy
  Co1      1.0000 0.50000  0.50000  0.50000  Biso   1.000  Co
  Co2      1.0000 0.00000  0.50000  0.50000  Biso   1.000  Co
  Co3      1.0000 0.50000  0.00000  0.50000  Biso   1.000  Co
  Co4      1.0000 0.00000  0.50000  0.00000  Biso   1.000  Co
  Co5      1.0000 0.50000  0.50000  0.00000  Biso   1.000  Co
  Co6      1.0000 0.50000  0.00000  0.00000  Biso   1.000  Co
  H1       1.0000 0.28670  0.23310  0.65500  Biso   1.000  H
  H2       1.0000 0.34730  0.51290  0.54470  Biso   1.000  H
  H3       1.0000 0.94640  0.71330  0.65500  Biso   1.000  H
  H4       1.0000 0.16560  0.65270  0.54470  Biso   1.000  H
  H5       1.0000 0.76690  0.05360  0.65500  Biso   1.000  H
  H6       1.0000 0.48710  0.83440  0.54470  Biso   1.000  H
  H7       1.0000 0.71330  0.76690  0.65500  Biso   1.000  H
  H8       1.0000 0.65270  0.48710  0.54470  Biso   1.000  H
  H9       1.0000 0.05360  0.28670  0.65500  Biso   1.000  H
  H10      1.0000 0.83440  0.34730  0.54470  Biso   1.000  H
  H11      1.0000 0.23310  0.94640  0.65500  Biso   1.000  H
  H12      1.0000 0.51290  0.16560  0.54470  Biso   1.000  H
  H13      1.0000 0.05360  0.76690  0.84500  Biso   1.000  H
  H14      1.0000 0.83440  0.48710  0.95530  Biso   1.000  H
  H15      1.0000 0.23310  0.28670  0.84500  Biso   1.000  H
  H16      1.0000 0.51290  0.34730  0.95530  Biso   1.000  H
  H17      1.0000 0.71330  0.94640  0.84500  Biso   1.000  H
  H18      1.0000 0.65270  0.16560  0.95530  Biso   1.000  H
  H19      1.0000 0.94640  0.23310  0.84500  Biso   1.000  H
  H20      1.0000 0.16560  0.51290  0.95530  Biso   1.000  H
  H21      1.0000 0.76690  0.71330  0.84500  Biso   1.000  H
  H22      1.0000 0.48710  0.65270  0.95530  Biso   1.000  H
  H23      1.0000 0.28670  0.05360  0.84500  Biso   1.000  H
  H24      1.0000 0.34730  0.83440  0.95530  Biso   1.000  H
  H25      1.0000 0.71330  0.76690  0.34500  Biso   1.000  H
  H26      1.0000 0.65270  0.48710  0.45530  Biso   1.000  H
  H27      1.0000 0.05360  0.28670  0.34500  Biso   1.000  H
  H28      1.0000 0.83440  0.34730  0.45530  Biso   1.000  H
  H29      1.0000 0.23310  0.94640  0.34500  Biso   1.000  H
  H30      1.0000 0.51290  0.16560  0.45530  Biso   1.000  H
  H31      1.0000 0.28670  0.23310  0.34500  Biso   1.000  H
  H32      1.0000 0.34730  0.51290  0.45530  Biso   1.000  H
  H33      1.0000 0.94640  0.71330  0.34500  Biso   1.000  H
  H34      1.0000 0.16560  0.65270  0.45530  Biso   1.000  H
  H35      1.0000 0.76690  0.05360  0.34500  Biso   1.000  H
  H36      1.0000 0.48710  0.83440  0.45530  Biso   1.000  H
  H37      1.0000 0.94640  0.23310  0.15500  Biso   1.000  H
  H38      1.0000 0.16560  0.51290  0.04470  Biso   1.000  H
  H39      1.0000 0.76690  0.71330  0.15500  Biso   1.000  H
  H40      1.0000 0.48710  0.65270  0.04470  Biso   1.000  H
  H41      1.0000 0.28670  0.05360  0.15500  Biso   1.000  H
  H42      1.0000 0.34730  0.83440  0.04470  Biso   1.000  H
  H43      1.0000 0.05360  0.76690  0.15500  Biso   1.000  H
  H44      1.0000 0.83440  0.48710  0.04470  Biso   1.000  H
  H45      1.0000 0.23310  0.28670  0.15500  Biso   1.000  H
  H46      1.0000 0.51290  0.34730  0.04470  Biso   1.000  H
  H47      1.0000 0.71330  0.94640  0.15500  Biso   1.000  H
  H48      1.0000 0.65270  0.16560  0.04470  Biso   1.000  H
  H49      1.0000 0.19930  0.09965  0.75000  Biso   1.000  H
  H50      1.0000 0.90035  0.80070  0.75000  Biso   1.000  H
  H51      1.0000 0.90035  0.09965  0.75000  Biso   1.000  H
  H52      1.0000 0.80070  0.90035  0.75000  Biso   1.000  H
  H53      1.0000 0.09965  0.19930  0.75000  Biso   1.000  H
  H54      1.0000 0.09965  0.90035  0.75000  Biso   1.000  H
  H55      1.0000 0.80070  0.90035  0.25000  Biso   1.000  H
  H56      1.0000 0.09965  0.19930  0.25000  Biso   1.000  H
  H57      1.0000 0.09965  0.90035  0.25000  Biso   1.000  H
  H58      1.0000 0.19930  0.09965  0.25000  Biso   1.000  H
  H59      1.0000 0.90035  0.80070  0.25000  Biso   1.000  H
  H60      1.0000 0.90035  0.09965  0.25000  Biso   1.000  H
  C1       1.0000 0.49240  0.35440  0.63920  Biso   1.000  C
  C2       1.0000 0.42660  0.26510  0.69610  Biso   1.000  C
  C3       1.0000 0.32140  0.21420  0.69360  Biso   1.000  C
  C4       1.0000 0.86200  0.50760  0.63920  Biso   1.000  C
  C5       1.0000 0.83850  0.57340  0.69610  Biso   1.000  C
  C6       1.0000 0.89280  0.67860  0.69360  Biso   1.000  C
  C7       1.0000 0.64560  0.13800  0.63920  Biso   1.000  C
  C8       1.0000 0.73490  0.16150  0.69610  Biso   1.000  C
  C9       1.0000 0.78580  0.10720  0.69360  Biso   1.000  C
  C10      1.0000 0.50760  0.64560  0.63920  Biso   1.000  C
  C11      1.0000 0.57340  0.73490  0.69610  Biso   1.000  C
  C12      1.0000 0.67860  0.78580  0.69360  Biso   1.000  C
  C13      1.0000 0.13800  0.49240  0.63920  Biso   1.000  C
  C14      1.0000 0.16150  0.42660  0.69610  Biso   1.000  C
  C15      1.0000 0.10720  0.32140  0.69360  Biso   1.000  C
  C16      1.0000 0.35440  0.86200  0.63920  Biso   1.000  C
  C17      1.0000 0.26510  0.83850  0.69610  Biso   1.000  C
  C18      1.0000 0.21420  0.89280  0.69360  Biso   1.000  C
  C19      1.0000 0.13800  0.64560  0.86080  Biso   1.000  C
  C20      1.0000 0.16150  0.73490  0.80390  Biso   1.000  C
  C21      1.0000 0.10720  0.78580  0.80640  Biso   1.000  C
  C22      1.0000 0.35440  0.49240  0.86080  Biso   1.000  C
  C23      1.0000 0.26510  0.42660  0.80390  Biso   1.000  C
  C24      1.0000 0.21420  0.32140  0.80640  Biso   1.000  C
  C25      1.0000 0.50760  0.86200  0.86080  Biso   1.000  C
  C26      1.0000 0.57340  0.83850  0.80390  Biso   1.000  C
  C27      1.0000 0.67860  0.89280  0.80640  Biso   1.000  C
  C28      1.0000 0.86200  0.35440  0.86080  Biso   1.000  C
  C29      1.0000 0.83850  0.26510  0.80390  Biso   1.000  C
  C30      1.0000 0.89280  0.21420  0.80640  Biso   1.000  C
  C31      1.0000 0.64560  0.50760  0.86080  Biso   1.000  C
  C32      1.0000 0.73490  0.57340  0.80390  Biso   1.000  C
  C33      1.0000 0.78580  0.67860  0.80640  Biso   1.000  C
  C34      1.0000 0.49240  0.13800  0.86080  Biso   1.000  C
  C35      1.0000 0.42660  0.16150  0.80390  Biso   1.000  C
  C36      1.0000 0.32140  0.10720  0.80640  Biso   1.000  C
  C37      1.0000 0.50760  0.64560  0.36080  Biso   1.000  C
  C38      1.0000 0.57340  0.73490  0.30390  Biso   1.000  C
  C39      1.0000 0.67860  0.78580  0.30640  Biso   1.000  C
  C40      1.0000 0.13800  0.49240  0.36080  Biso   1.000  C
  C41      1.0000 0.16150  0.42660  0.30390  Biso   1.000  C
  C42      1.0000 0.10720  0.32140  0.30640  Biso   1.000  C
  C43      1.0000 0.35440  0.86200  0.36080  Biso   1.000  C
  C44      1.0000 0.26510  0.83850  0.30390  Biso   1.000  C
  C45      1.0000 0.21420  0.89280  0.30640  Biso   1.000  C
  C46      1.0000 0.49240  0.35440  0.36080  Biso   1.000  C
  C47      1.0000 0.42660  0.26510  0.30390  Biso   1.000  C
  C48      1.0000 0.32140  0.21420  0.30640  Biso   1.000  C
  C49      1.0000 0.86200  0.50760  0.36080  Biso   1.000  C
  C50      1.0000 0.83850  0.57340  0.30390  Biso   1.000  C
  C51      1.0000 0.89280  0.67860  0.30640  Biso   1.000  C
  C52      1.0000 0.64560  0.13800  0.36080  Biso   1.000  C
  C53      1.0000 0.73490  0.16150  0.30390  Biso   1.000  C
  C54      1.0000 0.78580  0.10720  0.30640  Biso   1.000  C
  C55      1.0000 0.86200  0.35440  0.13920  Biso   1.000  C
  C56      1.0000 0.83850  0.26510  0.19610  Biso   1.000  C
  C57      1.0000 0.89280  0.21420  0.19360  Biso   1.000  C
  C58      1.0000 0.64560  0.50760  0.13920  Biso   1.000  C
  C59      1.0000 0.73490  0.57340  0.19610  Biso   1.000  C
  C60      1.0000 0.78580  0.67860  0.19360  Biso   1.000  C
  C61      1.0000 0.49240  0.13800  0.13920  Biso   1.000  C
  C62      1.0000 0.42660  0.16150  0.19610  Biso   1.000  C
  C63      1.0000 0.32140  0.10720  0.19360  Biso   1.000  C
  C64      1.0000 0.13800  0.64560  0.13920  Biso   1.000  C
  C65      1.0000 0.16150  0.73490  0.19610  Biso   1.000  C
  C66      1.0000 0.10720  0.78580  0.19360  Biso   1.000  C
  C67      1.0000 0.35440  0.49240  0.13920  Biso   1.000  C
  C68      1.0000 0.26510  0.42660  0.19610  Biso   1.000  C
  C69      1.0000 0.21420  0.32140  0.19360  Biso   1.000  C
  C70      1.0000 0.50760  0.86200  0.13920  Biso   1.000  C
  C71      1.0000 0.57340  0.83850  0.19610  Biso   1.000  C
  C72      1.0000 0.67860  0.89280  0.19360  Biso   1.000  C
  C73      1.0000 0.27020  0.13510  0.75000  Biso   1.000  C
  C74      1.0000 0.86490  0.72980  0.75000  Biso   1.000  C
  C75      1.0000 0.86490  0.13510  0.75000  Biso   1.000  C
  C76      1.0000 0.72980  0.86490  0.75000  Biso   1.000  C
  C77      1.0000 0.13510  0.27020  0.75000  Biso   1.000  C
  C78      1.0000 0.13510  0.86490  0.75000  Biso   1.000  C
  C79      1.0000 0.72980  0.86490  0.25000  Biso   1.000  C
  C80      1.0000 0.13510  0.27020  0.25000  Biso   1.000  C
  C81      1.0000 0.13510  0.86490  0.25000  Biso   1.000  C
  C82      1.0000 0.27020  0.13510  0.25000  Biso   1.000  C
  C83      1.0000 0.86490  0.72980  0.25000  Biso   1.000  C
  C84      1.0000 0.86490  0.13510  0.25000  Biso   1.000  C
  N1       1.0000 0.47810  0.23905  0.75000  Biso   1.000  N
  N2       1.0000 0.76095  0.52190  0.75000  Biso   1.000  N
  N3       1.0000 0.76095  0.23905  0.75000  Biso   1.000  N
  N4       1.0000 0.52190  0.76095  0.75000  Biso   1.000  N
  N5       1.0000 0.23905  0.47810  0.75000  Biso   1.000  N
  N6       1.0000 0.23905  0.76095  0.75000  Biso   1.000  N
  N7       1.0000 0.52190  0.76095  0.25000  Biso   1.000  N
  N8       1.0000 0.23905  0.47810  0.25000  Biso   1.000  N
  N9       1.0000 0.23905  0.76095  0.25000  Biso   1.000  N
  N10      1.0000 0.47810  0.23905  0.25000  Biso   1.000  N
  N11      1.0000 0.76095  0.52190  0.25000  Biso   1.000  N
  N12      1.0000 0.76095  0.23905  0.25000  Biso   1.000  N
  O1       1.0000 0.58770  0.38890  0.64360  Biso   1.000  O
  O2       1.0000 0.44840  0.38690  0.59200  Biso   1.000  O
  O3       1.0000 0.80120  0.41230  0.64360  Biso   1.000  O
  O4       1.0000 0.93850  0.55160  0.59200  Biso   1.000  O
  O5       1.0000 0.61110  0.19880  0.64360  Biso   1.000  O
  O6       1.0000 0.61310  0.06150  0.59200  Biso   1.000  O
  O7       1.0000 0.41230  0.61110  0.64360  Biso   1.000  O
  O8       1.0000 0.55160  0.61310  0.59200  Biso   1.000  O
  O9       1.0000 0.19880  0.58770  0.64360  Biso   1.000  O
  O10      1.0000 0.06150  0.44840  0.59200  Biso   1.000  O
  O11      1.0000 0.38890  0.80120  0.64360  Biso   1.000  O
  O12      1.0000 0.38690  0.93850  0.59200  Biso   1.000  O
  O13      1.0000 0.19880  0.61110  0.85640  Biso   1.000  O
  O14      1.0000 0.06150  0.61310  0.90800  Biso   1.000  O
  O15      1.0000 0.38890  0.58770  0.85640  Biso   1.000  O
  O16      1.0000 0.38690  0.44840  0.90800  Biso   1.000  O
  O17      1.0000 0.41230  0.80120  0.85640  Biso   1.000  O
  O18      1.0000 0.55160  0.93850  0.90800  Biso   1.000  O
  O19      1.0000 0.80120  0.38890  0.85640  Biso   1.000  O
  O20      1.0000 0.93850  0.38690  0.90800  Biso   1.000  O
  O21      1.0000 0.61110  0.41230  0.85640  Biso   1.000  O
  O22      1.0000 0.61310  0.55160  0.90800  Biso   1.000  O
  O23      1.0000 0.58770  0.19880  0.85640  Biso   1.000  O
  O24      1.0000 0.44840  0.06150  0.90800  Biso   1.000  O
  O25      1.0000 0.41230  0.61110  0.35640  Biso   1.000  O
  O26      1.0000 0.55160  0.61310  0.40800  Biso   1.000  O
  O27      1.0000 0.19880  0.58770  0.35640  Biso   1.000  O
  O28      1.0000 0.06150  0.44840  0.40800  Biso   1.000  O
  O29      1.0000 0.38890  0.80120  0.35640  Biso   1.000  O
  O30      1.0000 0.38690  0.93850  0.40800  Biso   1.000  O
  O31      1.0000 0.58770  0.38890  0.35640  Biso   1.000  O
  O32      1.0000 0.44840  0.38690  0.40800  Biso   1.000  O
  O33      1.0000 0.80120  0.41230  0.35640  Biso   1.000  O
  O34      1.0000 0.93850  0.55160  0.40800  Biso   1.000  O
  O35      1.0000 0.61110  0.19880  0.35640  Biso   1.000  O
  O36      1.0000 0.61310  0.06150  0.40800  Biso   1.000  O
  O37      1.0000 0.80120  0.38890  0.14360  Biso   1.000  O
  O38      1.0000 0.93850  0.38690  0.09200  Biso   1.000  O
  O39      1.0000 0.61110  0.41230  0.14360  Biso   1.000  O
  O40      1.0000 0.61310  0.55160  0.09200  Biso   1.000  O
  O41      1.0000 0.58770  0.19880  0.14360  Biso   1.000  O
  O42      1.0000 0.44840  0.06150  0.09200  Biso   1.000  O
  O43      1.0000 0.19880  0.61110  0.14360  Biso   1.000  O
  O44      1.0000 0.06150  0.61310  0.09200  Biso   1.000  O
  O45      1.0000 0.38890  0.58770  0.14360  Biso   1.000  O
  O46      1.0000 0.38690  0.44840  0.09200  Biso   1.000  O
  O47      1.0000 0.41230  0.80120  0.14360  Biso   1.000  O
  O48      1.0000 0.55160  0.93850  0.09200  Biso   1.000  O
  O49      1.0000 0.35120  0.48580  0.50000  Biso   1.000  O
  O50      1.0000 0.13460  0.64880  0.50000  Biso   1.000  O
  O51      1.0000 0.51420  0.86540  0.50000  Biso   1.000  O
  O52      1.0000 0.64880  0.51420  0.50000  Biso   1.000  O
  O53      1.0000 0.86540  0.35120  0.50000  Biso   1.000  O
  O54      1.0000 0.48580  0.13460  0.50000  Biso   1.000  O
  O55      1.0000 0.86540  0.51420  0.00000  Biso   1.000  O
  O56      1.0000 0.48580  0.35120  0.00000  Biso   1.000  O
  O57      1.0000 0.64880  0.13460  0.00000  Biso   1.000  O
  O58      1.0000 0.13460  0.48580  0.00000  Biso   1.000  O
  O59      1.0000 0.51420  0.64880  0.00000  Biso   1.000  O
  O60      1.0000 0.35120  0.86540  0.00000  Biso   1.000  O
