data_image0
_cell_length_a       15.297
_cell_length_b       15.297
_cell_length_c       15.37
_cell_angle_alpha    90
_cell_angle_beta     90
_cell_angle_gamma    120

_symmetry_space_group_name_H-M    P 1
_symmetry_int_tables_number       1

loop_
  _symmetry_equiv_pos_as_xyz
  'x, y, z'

loop_
  _atom_site_label
  _atom_site_occupancy
  _atom_site_fract_x
  _atom_site_fract_y
  _atom_site_fract_z
  _atom_site_thermal_displace_type
  _atom_site_B_iso_or_equiv
  _atom_site_type_symbol
  Eu1      1.0000 0.66667  0.33334  0.75000  Biso   1.000  Eu
  Eu2      1.0000 0.33333  0.66666  0.75000  Biso   1.000  Eu
  Eu3      1.0000 0.33333  0.66666  0.25000  Biso   1.000  Eu
  Eu4      1.0000 0.66667  0.33334  0.25000  Biso   1.000  Eu
  Co1      1.0000 0.50000  0.50000  0.50000  Biso   1.000  Co
  Co2      1.0000 0.00000  0.50000  0.50000  Biso   1.000  Co
  Co3      1.0000 0.50000  0.00000  0.50000  Biso   1.000  Co
  Co4      1.0000 0.00000  0.50000  0.00000  Biso   1.000  Co
  Co5      1.0000 0.50000  0.50000  0.00000  Biso   1.000  Co
  Co6      1.0000 0.50000  0.00000  0.00000  Biso   1.000  Co
  H1       1.0000 0.28530  0.23240  0.65490  Biso   1.000  H
  H2       1.0000 0.35020  0.51370  0.54470  Biso   1.000  H
  H3       1.0000 0.94710  0.71470  0.65490  Biso   1.000  H
  H4       1.0000 0.16350  0.64980  0.54470  Biso   1.000  H
  H5       1.0000 0.76760  0.05290  0.65490  Biso   1.000  H
  H6       1.0000 0.48630  0.83650  0.54470  Biso   1.000  H
  H7       1.0000 0.71470  0.76760  0.65490  Biso   1.000  H
  H8       1.0000 0.64980  0.48630  0.54470  Biso   1.000  H
  H9       1.0000 0.05290  0.28530  0.65490  Biso   1.000  H
  H10      1.0000 0.83650  0.35020  0.54470  Biso   1.000  H
  H11      1.0000 0.23240  0.94710  0.65490  Biso   1.000  H
  H12      1.0000 0.51370  0.16350  0.54470  Biso   1.000  H
  H13      1.0000 0.05290  0.76760  0.84510  Biso   1.000  H
  H14      1.0000 0.83650  0.48630  0.95530  Biso   1.000  H
  H15      1.0000 0.23240  0.28530  0.84510  Biso   1.000  H
  H16      1.0000 0.51370  0.35020  0.95530  Biso   1.000  H
  H17      1.0000 0.71470  0.94710  0.84510  Biso   1.000  H
  H18      1.0000 0.64980  0.16350  0.95530  Biso   1.000  H
  H19      1.0000 0.94710  0.23240  0.84510  Biso   1.000  H
  H20      1.0000 0.16350  0.51370  0.95530  Biso   1.000  H
  H21      1.0000 0.76760  0.71470  0.84510  Biso   1.000  H
  H22      1.0000 0.48630  0.64980  0.95530  Biso   1.000  H
  H23      1.0000 0.28530  0.05290  0.84510  Biso   1.000  H
  H24      1.0000 0.35020  0.83650  0.95530  Biso   1.000  H
  H25      1.0000 0.71470  0.76760  0.34510  Biso   1.000  H
  H26      1.0000 0.64980  0.48630  0.45530  Biso   1.000  H
  H27      1.0000 0.05290  0.28530  0.34510  Biso   1.000  H
  H28      1.0000 0.83650  0.35020  0.45530  Biso   1.000  H
  H29      1.0000 0.23240  0.94710  0.34510  Biso   1.000  H
  H30      1.0000 0.51370  0.16350  0.45530  Biso   1.000  H
  H31      1.0000 0.28530  0.23240  0.34510  Biso   1.000  H
  H32      1.0000 0.35020  0.51370  0.45530  Biso   1.000  H
  H33      1.0000 0.94710  0.71470  0.34510  Biso   1.000  H
  H34      1.0000 0.16350  0.64980  0.45530  Biso   1.000  H
  H35      1.0000 0.76760  0.05290  0.34510  Biso   1.000  H
  H36      1.0000 0.48630  0.83650  0.45530  Biso   1.000  H
  H37      1.0000 0.94710  0.23240  0.15490  Biso   1.000  H
  H38      1.0000 0.16350  0.51370  0.04470  Biso   1.000  H
  H39      1.0000 0.76760  0.71470  0.15490  Biso   1.000  H
  H40      1.0000 0.48630  0.64980  0.04470  Biso   1.000  H
  H41      1.0000 0.28530  0.05290  0.15490  Biso   1.000  H
  H42      1.0000 0.35020  0.83650  0.04470  Biso   1.000  H
  H43      1.0000 0.05290  0.76760  0.15490  Biso   1.000  H
  H44      1.0000 0.83650  0.48630  0.04470  Biso   1.000  H
  H45      1.0000 0.23240  0.28530  0.15490  Biso   1.000  H
  H46      1.0000 0.51370  0.35020  0.04470  Biso   1.000  H
  H47      1.0000 0.71470  0.94710  0.15490  Biso   1.000  H
  H48      1.0000 0.64980  0.16350  0.04470  Biso   1.000  H
  H49      1.0000 0.20030  0.10015  0.75000  Biso   1.000  H
  H50      1.0000 0.89985  0.79970  0.75000  Biso   1.000  H
  H51      1.0000 0.89985  0.10015  0.75000  Biso   1.000  H
  H52      1.0000 0.79970  0.89985  0.75000  Biso   1.000  H
  H53      1.0000 0.10015  0.20030  0.75000  Biso   1.000  H
  H54      1.0000 0.10015  0.89985  0.75000  Biso   1.000  H
  H55      1.0000 0.79970  0.89985  0.25000  Biso   1.000  H
  H56      1.0000 0.10015  0.20030  0.25000  Biso   1.000  H
  H57      1.0000 0.10015  0.89985  0.25000  Biso   1.000  H
  H58      1.0000 0.20030  0.10015  0.25000  Biso   1.000  H
  H59      1.0000 0.89985  0.79970  0.25000  Biso   1.000  H
  H60      1.0000 0.89985  0.10015  0.25000  Biso   1.000  H
  C1       1.0000 0.49100  0.35405  0.63910  Biso   1.000  C
  C2       1.0000 0.42508  0.26475  0.69620  Biso   1.000  C
  C3       1.0000 0.32008  0.21384  0.69340  Biso   1.000  C
  C4       1.0000 0.86305  0.50900  0.63910  Biso   1.000  C
  C5       1.0000 0.83967  0.57492  0.69620  Biso   1.000  C
  C6       1.0000 0.89376  0.67992  0.69340  Biso   1.000  C
  C7       1.0000 0.64595  0.13695  0.63910  Biso   1.000  C
  C8       1.0000 0.73525  0.16033  0.69620  Biso   1.000  C
  C9       1.0000 0.78616  0.10624  0.69340  Biso   1.000  C
  C10      1.0000 0.50900  0.64595  0.63910  Biso   1.000  C
  C11      1.0000 0.57492  0.73525  0.69620  Biso   1.000  C
  C12      1.0000 0.67992  0.78616  0.69340  Biso   1.000  C
  C13      1.0000 0.13695  0.49100  0.63910  Biso   1.000  C
  C14      1.0000 0.16033  0.42508  0.69620  Biso   1.000  C
  C15      1.0000 0.10624  0.32008  0.69340  Biso   1.000  C
  C16      1.0000 0.35405  0.86305  0.63910  Biso   1.000  C
  C17      1.0000 0.26475  0.83967  0.69620  Biso   1.000  C
  C18      1.0000 0.21384  0.89376  0.69340  Biso   1.000  C
  C19      1.0000 0.13695  0.64595  0.86090  Biso   1.000  C
  C20      1.0000 0.16033  0.73525  0.80380  Biso   1.000  C
  C21      1.0000 0.10624  0.78616  0.80660  Biso   1.000  C
  C22      1.0000 0.35405  0.49100  0.86090  Biso   1.000  C
  C23      1.0000 0.26475  0.42508  0.80380  Biso   1.000  C
  C24      1.0000 0.21384  0.32008  0.80660  Biso   1.000  C
  C25      1.0000 0.50900  0.86305  0.86090  Biso   1.000  C
  C26      1.0000 0.57492  0.83967  0.80380  Biso   1.000  C
  C27      1.0000 0.67992  0.89376  0.80660  Biso   1.000  C
  C28      1.0000 0.86305  0.35405  0.86090  Biso   1.000  C
  C29      1.0000 0.83967  0.26475  0.80380  Biso   1.000  C
  C30      1.0000 0.89376  0.21384  0.80660  Biso   1.000  C
  C31      1.0000 0.64595  0.50900  0.86090  Biso   1.000  C
  C32      1.0000 0.73525  0.57492  0.80380  Biso   1.000  C
  C33      1.0000 0.78616  0.67992  0.80660  Biso   1.000  C
  C34      1.0000 0.49100  0.13695  0.86090  Biso   1.000  C
  C35      1.0000 0.42508  0.16033  0.80380  Biso   1.000  C
  C36      1.0000 0.32008  0.10624  0.80660  Biso   1.000  C
  C37      1.0000 0.50900  0.64595  0.36090  Biso   1.000  C
  C38      1.0000 0.57492  0.73525  0.30380  Biso   1.000  C
  C39      1.0000 0.67992  0.78616  0.30660  Biso   1.000  C
  C40      1.0000 0.13695  0.49100  0.36090  Biso   1.000  C
  C41      1.0000 0.16033  0.42508  0.30380  Biso   1.000  C
  C42      1.0000 0.10624  0.32008  0.30660  Biso   1.000  C
  C43      1.0000 0.35405  0.86305  0.36090  Biso   1.000  C
  C44      1.0000 0.26475  0.83967  0.30380  Biso   1.000  C
  C45      1.0000 0.21384  0.89376  0.30660  Biso   1.000  C
  C46      1.0000 0.49100  0.35405  0.36090  Biso   1.000  C
  C47      1.0000 0.42508  0.26475  0.30380  Biso   1.000  C
  C48      1.0000 0.32008  0.21384  0.30660  Biso   1.000  C
  C49      1.0000 0.86305  0.50900  0.36090  Biso   1.000  C
  C50      1.0000 0.83967  0.57492  0.30380  Biso   1.000  C
  C51      1.0000 0.89376  0.67992  0.30660  Biso   1.000  C
  C52      1.0000 0.64595  0.13695  0.36090  Biso   1.000  C
  C53      1.0000 0.73525  0.16033  0.30380  Biso   1.000  C
  C54      1.0000 0.78616  0.10624  0.30660  Biso   1.000  C
  C55      1.0000 0.86305  0.35405  0.13910  Biso   1.000  C
  C56      1.0000 0.83967  0.26475  0.19620  Biso   1.000  C
  C57      1.0000 0.89376  0.21384  0.19340  Biso   1.000  C
  C58      1.0000 0.64595  0.50900  0.13910  Biso   1.000  C
  C59      1.0000 0.73525  0.57492  0.19620  Biso   1.000  C
  C60      1.0000 0.78616  0.67992  0.19340  Biso   1.000  C
  C61      1.0000 0.49100  0.13695  0.13910  Biso   1.000  C
  C62      1.0000 0.42508  0.16033  0.19620  Biso   1.000  C
  C63      1.0000 0.32008  0.10624  0.19340  Biso   1.000  C
  C64      1.0000 0.13695  0.64595  0.13910  Biso   1.000  C
  C65      1.0000 0.16033  0.73525  0.19620  Biso   1.000  C
  C66      1.0000 0.10624  0.78616  0.19340  Biso   1.000  C
  C67      1.0000 0.35405  0.49100  0.13910  Biso   1.000  C
  C68      1.0000 0.26475  0.42508  0.19620  Biso   1.000  C
  C69      1.0000 0.21384  0.32008  0.19340  Biso   1.000  C
  C70      1.0000 0.50900  0.86305  0.13910  Biso   1.000  C
  C71      1.0000 0.57492  0.83967  0.19620  Biso   1.000  C
  C72      1.0000 0.67992  0.89376  0.19340  Biso   1.000  C
  C73      1.0000 0.27050  0.13525  0.75000  Biso   1.000  C
  C74      1.0000 0.86475  0.72950  0.75000  Biso   1.000  C
  C75      1.0000 0.86475  0.13525  0.75000  Biso   1.000  C
  C76      1.0000 0.72950  0.86475  0.75000  Biso   1.000  C
  C77      1.0000 0.13525  0.27050  0.75000  Biso   1.000  C
  C78      1.0000 0.13525  0.86475  0.75000  Biso   1.000  C
  C79      1.0000 0.72950  0.86475  0.25000  Biso   1.000  C
  C80      1.0000 0.13525  0.27050  0.25000  Biso   1.000  C
  C81      1.0000 0.13525  0.86475  0.25000  Biso   1.000  C
  C82      1.0000 0.27050  0.13525  0.25000  Biso   1.000  C
  C83      1.0000 0.86475  0.72950  0.25000  Biso   1.000  C
  C84      1.0000 0.86475  0.13525  0.25000  Biso   1.000  C
  N1       1.0000 0.47770  0.23885  0.75000  Biso   1.000  N
  N2       1.0000 0.76115  0.52230  0.75000  Biso   1.000  N
  N3       1.0000 0.76115  0.23885  0.75000  Biso   1.000  N
  N4       1.0000 0.52230  0.76115  0.75000  Biso   1.000  N
  N5       1.0000 0.23885  0.47770  0.75000  Biso   1.000  N
  N6       1.0000 0.23885  0.76115  0.75000  Biso   1.000  N
  N7       1.0000 0.52230  0.76115  0.25000  Biso   1.000  N
  N8       1.0000 0.23885  0.47770  0.25000  Biso   1.000  N
  N9       1.0000 0.23885  0.76115  0.25000  Biso   1.000  N
  N10      1.0000 0.47770  0.23885  0.25000  Biso   1.000  N
  N11      1.0000 0.76115  0.52230  0.25000  Biso   1.000  N
  N12      1.0000 0.76115  0.23885  0.25000  Biso   1.000  N
  O1       1.0000 0.58613  0.38858  0.64350  Biso   1.000  O
  O2       1.0000 0.44659  0.38646  0.59210  Biso   1.000  O
  O3       1.0000 0.80245  0.41387  0.64350  Biso   1.000  O
  O4       1.0000 0.93987  0.55341  0.59210  Biso   1.000  O
  O5       1.0000 0.61142  0.19755  0.64350  Biso   1.000  O
  O6       1.0000 0.61354  0.06013  0.59210  Biso   1.000  O
  O7       1.0000 0.41387  0.61142  0.64350  Biso   1.000  O
  O8       1.0000 0.55341  0.61354  0.59210  Biso   1.000  O
  O9       1.0000 0.19755  0.58613  0.64350  Biso   1.000  O
  O10      1.0000 0.06013  0.44659  0.59210  Biso   1.000  O
  O11      1.0000 0.38858  0.80245  0.64350  Biso   1.000  O
  O12      1.0000 0.38646  0.93987  0.59210  Biso   1.000  O
  O13      1.0000 0.19755  0.61142  0.85650  Biso   1.000  O
  O14      1.0000 0.06013  0.61354  0.90790  Biso   1.000  O
  O15      1.0000 0.38858  0.58613  0.85650  Biso   1.000  O
  O16      1.0000 0.38646  0.44659  0.90790  Biso   1.000  O
  O17      1.0000 0.41387  0.80245  0.85650  Biso   1.000  O
  O18      1.0000 0.55341  0.93987  0.90790  Biso   1.000  O
  O19      1.0000 0.80245  0.38858  0.85650  Biso   1.000  O
  O20      1.0000 0.93987  0.38646  0.90790  Biso   1.000  O
  O21      1.0000 0.61142  0.41387  0.85650  Biso   1.000  O
  O22      1.0000 0.61354  0.55341  0.90790  Biso   1.000  O
  O23      1.0000 0.58613  0.19755  0.85650  Biso   1.000  O
  O24      1.0000 0.44659  0.06013  0.90790  Biso   1.000  O
  O25      1.0000 0.41387  0.61142  0.35650  Biso   1.000  O
  O26      1.0000 0.55341  0.61354  0.40790  Biso   1.000  O
  O27      1.0000 0.19755  0.58613  0.35650  Biso   1.000  O
  O28      1.0000 0.06013  0.44659  0.40790  Biso   1.000  O
  O29      1.0000 0.38858  0.80245  0.35650  Biso   1.000  O
  O30      1.0000 0.38646  0.93987  0.40790  Biso   1.000  O
  O31      1.0000 0.58613  0.38858  0.35650  Biso   1.000  O
  O32      1.0000 0.44659  0.38646  0.40790  Biso   1.000  O
  O33      1.0000 0.80245  0.41387  0.35650  Biso   1.000  O
  O34      1.0000 0.93987  0.55341  0.40790  Biso   1.000  O
  O35      1.0000 0.61142  0.19755  0.35650  Biso   1.000  O
  O36      1.0000 0.61354  0.06013  0.40790  Biso   1.000  O
  O37      1.0000 0.80245  0.38858  0.14350  Biso   1.000  O
  O38      1.0000 0.93987  0.38646  0.09210  Biso   1.000  O
  O39      1.0000 0.61142  0.41387  0.14350  Biso   1.000  O
  O40      1.0000 0.61354  0.55341  0.09210  Biso   1.000  O
  O41      1.0000 0.58613  0.19755  0.14350  Biso   1.000  O
  O42      1.0000 0.44659  0.06013  0.09210  Biso   1.000  O
  O43      1.0000 0.19755  0.61142  0.14350  Biso   1.000  O
  O44      1.0000 0.06013  0.61354  0.09210  Biso   1.000  O
  O45      1.0000 0.38858  0.58613  0.14350  Biso   1.000  O
  O46      1.0000 0.38646  0.44659  0.09210  Biso   1.000  O
  O47      1.0000 0.41387  0.80245  0.14350  Biso   1.000  O
  O48      1.0000 0.55341  0.93987  0.09210  Biso   1.000  O
  O49      1.0000 0.35290  0.48650  0.50000  Biso   1.000  O
  O50      1.0000 0.13360  0.64710  0.50000  Biso   1.000  O
  O51      1.0000 0.51350  0.86640  0.50000  Biso   1.000  O
  O52      1.0000 0.64710  0.51350  0.50000  Biso   1.000  O
  O53      1.0000 0.86640  0.35290  0.50000  Biso   1.000  O
  O54      1.0000 0.48650  0.13360  0.50000  Biso   1.000  O
  O55      1.0000 0.86640  0.51350  0.00000  Biso   1.000  O
  O56      1.0000 0.48650  0.35290  0.00000  Biso   1.000  O
  O57      1.0000 0.64710  0.13360  0.00000  Biso   1.000  O
  O58      1.0000 0.13360  0.48650  0.00000  Biso   1.000  O
  O59      1.0000 0.51350  0.64710  0.00000  Biso   1.000  O
  O60      1.0000 0.35290  0.86640  0.00000  Biso   1.000  O
