data_image0
_cell_length_a       8.582
_cell_length_b       11.745
_cell_length_c       12.979
_cell_angle_alpha    90
_cell_angle_beta     90
_cell_angle_gamma    101.1

_symmetry_space_group_name_H-M    P 1
_symmetry_int_tables_number       1

loop_
  _symmetry_equiv_pos_as_xyz
  'x, y, z'

loop_
  _atom_site_label
  _atom_site_occupancy
  _atom_site_fract_x
  _atom_site_fract_y
  _atom_site_fract_z
  _atom_site_thermal_displace_type
  _atom_site_B_iso_or_equiv
  _atom_site_type_symbol
  Cu1      1.0000 0.95589  0.64621  0.80131  Biso   1.000  Cu
  Cu2      1.0000 0.05193  0.90119  0.48973  Biso   1.000  Cu
  Cu3      1.0000 0.54411  0.85379  0.30131  Biso   1.000  Cu
  Cu4      1.0000 0.44807  0.59881  0.98973  Biso   1.000  Cu
  Cu5      1.0000 0.04411  0.35379  0.19869  Biso   1.000  Cu
  Cu6      1.0000 0.94807  0.09881  0.51027  Biso   1.000  Cu
  Cu7      1.0000 0.45589  0.14621  0.69869  Biso   1.000  Cu
  Cu8      1.0000 0.55193  0.40119  0.01027  Biso   1.000  Cu
  C1       1.0000 0.63840  0.57850  0.91410  Biso   1.000  C
  C2       1.0000 0.98150  0.73400  0.67700  Biso   1.000  C
  C3       1.0000 0.13380  0.61640  0.87370  Biso   1.000  C
  C4       1.0000 0.86160  0.92150  0.41410  Biso   1.000  C
  C5       1.0000 0.51850  0.76600  0.17700  Biso   1.000  C
  C6       1.0000 0.36620  0.88360  0.37370  Biso   1.000  C
  C7       1.0000 0.36160  0.42150  0.08590  Biso   1.000  C
  C8       1.0000 0.01850  0.26600  0.32300  Biso   1.000  C
  C9       1.0000 0.86620  0.38360  0.12630  Biso   1.000  C
  C10      1.0000 0.13840  0.07850  0.58590  Biso   1.000  C
  C11      1.0000 0.48150  0.23400  0.82300  Biso   1.000  C
  C12      1.0000 0.63380  0.11640  0.62630  Biso   1.000  C
  N1       1.0000 0.75120  0.59700  0.86700  Biso   1.000  N
  N2       1.0000 0.00720  0.79300  0.60780  Biso   1.000  N
  N3       1.0000 0.25100  0.60800  0.91540  Biso   1.000  N
  N4       1.0000 0.74880  0.90300  0.36700  Biso   1.000  N
  N5       1.0000 0.49280  0.70700  0.10780  Biso   1.000  N
  N6       1.0000 0.24900  0.89200  0.41540  Biso   1.000  N
  N7       1.0000 0.24880  0.40300  0.13300  Biso   1.000  N
  N8       1.0000 0.99280  0.20700  0.39220  Biso   1.000  N
  N9       1.0000 0.74900  0.39200  0.08460  Biso   1.000  N
  N10      1.0000 0.25120  0.09700  0.63300  Biso   1.000  N
  N11      1.0000 0.50720  0.29300  0.89220  Biso   1.000  N
  N12      1.0000 0.75100  0.10800  0.58460  Biso   1.000  N
