data_image0
_cell_length_a       7.61111
_cell_length_b       14.2391
_cell_length_c       14.2391
_cell_angle_alpha    61.5578
_cell_angle_beta     74.4986
_cell_angle_gamma    74.4986

_symmetry_space_group_name_H-M    P 1
_symmetry_int_tables_number       1

loop_
  _symmetry_equiv_pos_as_xyz
  'x, y, z'

loop_
  _atom_site_label
  _atom_site_occupancy
  _atom_site_fract_x
  _atom_site_fract_y
  _atom_site_fract_z
  _atom_site_thermal_displace_type
  _atom_site_B_iso_or_equiv
  _atom_site_type_symbol
  Cd1      1.0000 0.50000  0.00000  0.00000  Biso   1.000  Cd
  Cd2      1.0000 0.00000  0.00000  0.00000  Biso   1.000  Cd
  H1       1.0000 0.30710  0.41650  0.99810  Biso   1.000  H
  H2       1.0000 0.19290  0.00190  0.58350  Biso   1.000  H
  H3       1.0000 0.22170  0.58350  0.00190  Biso   1.000  H
  H4       1.0000 0.27830  0.99810  0.41650  Biso   1.000  H
  H5       1.0000 0.69290  0.58350  0.00190  Biso   1.000  H
  H6       1.0000 0.80710  0.99810  0.41650  Biso   1.000  H
  H7       1.0000 0.77830  0.41650  0.99810  Biso   1.000  H
  H8       1.0000 0.72170  0.00190  0.58350  Biso   1.000  H
  C1       1.0000 0.18130  0.45040  0.99880  Biso   1.000  C
  C2       1.0000 0.31870  0.00120  0.54960  Biso   1.000  C
  C3       1.0000 0.13050  0.54960  0.00120  Biso   1.000  C
  C4       1.0000 0.36950  0.99880  0.45040  Biso   1.000  C
  C5       1.0000 0.81870  0.54960  0.00120  Biso   1.000  C
  C6       1.0000 0.68130  0.99880  0.45040  Biso   1.000  C
  C7       1.0000 0.86950  0.45040  0.99880  Biso   1.000  C
  C8       1.0000 0.63050  0.00120  0.54960  Biso   1.000  C
  C9       1.0000 0.10620  0.29040  0.99720  Biso   1.000  C
  C10      1.0000 0.05160  0.39970  0.99710  Biso   1.000  C
  C11      1.0000 0.39380  0.00280  0.70960  Biso   1.000  C
  C12      1.0000 0.44840  0.00290  0.60030  Biso   1.000  C
  C13      1.0000 0.89380  0.70960  0.00280  Biso   1.000  C
  C14      1.0000 0.94840  0.60030  0.00290  Biso   1.000  C
  C15      1.0000 0.60620  0.99720  0.29040  Biso   1.000  C
  C16      1.0000 0.55160  0.99710  0.39970  Biso   1.000  C
  N1       1.0000 0.26573  0.14597  0.99597  Biso   1.000  N
  N2       1.0000 0.27805  0.23665  0.99805  Biso   1.000  N
  N3       1.0000 0.23427  0.00403  0.85403  Biso   1.000  N
  N4       1.0000 0.22195  0.00195  0.76335  Biso   1.000  N
  N5       1.0000 0.90767  0.85403  0.00403  Biso   1.000  N
  N6       1.0000 0.01275  0.76335  0.00195  Biso   1.000  N
  N7       1.0000 0.59233  0.99597  0.14597  Biso   1.000  N
  N8       1.0000 0.48725  0.99805  0.23665  Biso   1.000  N
  N9       1.0000 0.73427  0.85403  0.00403  Biso   1.000  N
  N10      1.0000 0.72195  0.76335  0.00195  Biso   1.000  N
  N11      1.0000 0.76573  0.99597  0.14597  Biso   1.000  N
  N12      1.0000 0.77805  0.99805  0.23665  Biso   1.000  N
  N13      1.0000 0.09233  0.14597  0.99597  Biso   1.000  N
  N14      1.0000 0.98725  0.23665  0.99805  Biso   1.000  N
  N15      1.0000 0.40767  0.00403  0.85403  Biso   1.000  N
  N16      1.0000 0.51275  0.00195  0.76335  Biso   1.000  N
  Cl1      1.0000 0.25000  0.87655  0.12345  Biso   1.000  Cl
  Cl2      1.0000 0.75000  0.12345  0.87655  Biso   1.000  Cl
