data_image0
_cell_length_a       6.942
_cell_length_b       12.584
_cell_length_c       12.584
_cell_angle_alpha    95.3528
_cell_angle_beta     96.7152
_cell_angle_gamma    83.2848

_symmetry_space_group_name_H-M    P 1
_symmetry_int_tables_number       1

loop_
  _symmetry_equiv_pos_as_xyz
  'x, y, z'

loop_
  _atom_site_label
  _atom_site_occupancy
  _atom_site_fract_x
  _atom_site_fract_y
  _atom_site_fract_z
  _atom_site_thermal_displace_type
  _atom_site_B_iso_or_equiv
  _atom_site_type_symbol
  Cu1      1.0000 0.93301  0.31335  0.05783  Biso   1.000  Cu
  Cu2      1.0000 0.43301  0.94217  0.68665  Biso   1.000  Cu
  H1       1.0000 0.43570  0.42264  0.54936  Biso   1.000  H
  H2       1.0000 0.93570  0.45064  0.57736  Biso   1.000  H
  C1       1.0000 0.44770  0.53250  0.66790  Biso   1.000  C
  C2       1.0000 0.37660  0.35380  0.67200  Biso   1.000  C
  C3       1.0000 0.35010  0.47400  0.81720  Biso   1.000  C
  C4       1.0000 0.51700  0.70060  0.64980  Biso   1.000  C
  C5       1.0000 0.33800  0.17510  0.65590  Biso   1.000  C
  C6       1.0000 0.22100  0.43610  0.96690  Biso   1.000  C
  C7       1.0000 0.94770  0.33210  0.46750  Biso   1.000  C
  C8       1.0000 0.87660  0.32800  0.64620  Biso   1.000  C
  C9       1.0000 0.85010  0.18280  0.52600  Biso   1.000  C
  C10      1.0000 0.01700  0.35020  0.29940  Biso   1.000  C
  C11      1.0000 0.83800  0.34410  0.82490  Biso   1.000  C
  C12      1.0000 0.72100  0.03310  0.56390  Biso   1.000  C
  N1       1.0000 0.42260  0.43426  0.61674  Biso   1.000  N
  N2       1.0000 0.34400  0.37160  0.77440  Biso   1.000  N
  N3       1.0000 0.40960  0.55500  0.76860  Biso   1.000  N
  N4       1.0000 0.50780  0.60210  0.60790  Biso   1.000  N
  N5       1.0000 0.52930  0.78990  0.67790  Biso   1.000  N
  N6       1.0000 0.36230  0.26110  0.61210  Biso   1.000  N
  N7       1.0000 0.31700  0.09290  0.68490  Biso   1.000  N
  N8       1.0000 0.29120  0.50520  0.91460  Biso   1.000  N
  N9       1.0000 0.15280  0.38530  0.02130  Biso   1.000  N
  N10      1.0000 0.92260  0.38326  0.56574  Biso   1.000  N
  N11      1.0000 0.84400  0.22560  0.62840  Biso   1.000  N
  N12      1.0000 0.90960  0.23140  0.44500  Biso   1.000  N
  N13      1.0000 0.00780  0.39210  0.39790  Biso   1.000  N
  N14      1.0000 0.02930  0.32210  0.21010  Biso   1.000  N
  N15      1.0000 0.86230  0.38790  0.73890  Biso   1.000  N
  N16      1.0000 0.81700  0.31510  0.90710  Biso   1.000  N
  N17      1.0000 0.79120  0.08540  0.49480  Biso   1.000  N
  N18      1.0000 0.65280  0.97870  0.61470  Biso   1.000  N
  O1       1.0000 0.19440  0.89802  0.74518  Biso   1.000  O
  O2       1.0000 0.69440  0.25482  0.10198  Biso   1.000  O
  Cu3      1.0000 0.56699  0.05783  0.31335  Biso   1.000  Cu
  Cu4      1.0000 0.06699  0.68665  0.94217  Biso   1.000  Cu
  H3       1.0000 0.06430  0.54936  0.42264  Biso   1.000  H
  H4       1.0000 0.56430  0.57736  0.45064  Biso   1.000  H
  C13      1.0000 0.05230  0.66790  0.53250  Biso   1.000  C
  C14      1.0000 0.12340  0.67200  0.35380  Biso   1.000  C
  C15      1.0000 0.14990  0.81720  0.47400  Biso   1.000  C
  C16      1.0000 0.98300  0.64980  0.70060  Biso   1.000  C
  C17      1.0000 0.16200  0.65590  0.17510  Biso   1.000  C
  C18      1.0000 0.27900  0.96690  0.43610  Biso   1.000  C
  C19      1.0000 0.55230  0.46750  0.33210  Biso   1.000  C
  C20      1.0000 0.62340  0.64620  0.32800  Biso   1.000  C
  C21      1.0000 0.64990  0.52600  0.18280  Biso   1.000  C
  C22      1.0000 0.48300  0.29940  0.35020  Biso   1.000  C
  C23      1.0000 0.66200  0.82490  0.34410  Biso   1.000  C
  C24      1.0000 0.77900  0.56390  0.03310  Biso   1.000  C
  N19      1.0000 0.07740  0.61674  0.43426  Biso   1.000  N
  N20      1.0000 0.15600  0.77440  0.37160  Biso   1.000  N
  N21      1.0000 0.09040  0.76860  0.55500  Biso   1.000  N
  N22      1.0000 0.99220  0.60790  0.60210  Biso   1.000  N
  N23      1.0000 0.97070  0.67790  0.78990  Biso   1.000  N
  N24      1.0000 0.13770  0.61210  0.26110  Biso   1.000  N
  N25      1.0000 0.18300  0.68490  0.09290  Biso   1.000  N
  N26      1.0000 0.20880  0.91460  0.50520  Biso   1.000  N
  N27      1.0000 0.34720  0.02130  0.38530  Biso   1.000  N
  N28      1.0000 0.57740  0.56574  0.38326  Biso   1.000  N
  N29      1.0000 0.65600  0.62840  0.22560  Biso   1.000  N
  N30      1.0000 0.59040  0.44500  0.23140  Biso   1.000  N
  N31      1.0000 0.49220  0.39790  0.39210  Biso   1.000  N
  N32      1.0000 0.47070  0.21010  0.32210  Biso   1.000  N
  N33      1.0000 0.63770  0.73890  0.38790  Biso   1.000  N
  N34      1.0000 0.68300  0.90710  0.31510  Biso   1.000  N
  N35      1.0000 0.70880  0.49480  0.08540  Biso   1.000  N
  N36      1.0000 0.84720  0.61470  0.97870  Biso   1.000  N
  O3       1.0000 0.30560  0.74518  0.89802  Biso   1.000  O
  O4       1.0000 0.80560  0.10198  0.25482  Biso   1.000  O
