data_image0
_cell_length_a       13.9517
_cell_length_b       16.5474
_cell_length_c       16.5474
_cell_angle_alpha    103.395
_cell_angle_beta     110.009
_cell_angle_gamma    110.009

_symmetry_space_group_name_H-M    P 1
_symmetry_int_tables_number       1

loop_
  _symmetry_equiv_pos_as_xyz
  'x, y, z'

loop_
  _atom_site_label
  _atom_site_occupancy
  _atom_site_fract_x
  _atom_site_fract_y
  _atom_site_fract_z
  _atom_site_thermal_displace_type
  _atom_site_B_iso_or_equiv
  _atom_site_type_symbol
  Zn1      1.0000 0.28775  0.34755  0.20573  Biso   1.000  Zn
  Zn2      1.0000 0.53922  0.35932  0.27862  Biso   1.000  Zn
  Zn3      1.0000 0.21225  0.79427  0.65245  Biso   1.000  Zn
  Zn4      1.0000 0.96078  0.72138  0.64068  Biso   1.000  Zn
  Zn5      1.0000 0.71225  0.65245  0.79427  Biso   1.000  Zn
  Zn6      1.0000 0.46078  0.64068  0.72138  Biso   1.000  Zn
  Zn7      1.0000 0.78775  0.20573  0.34755  Biso   1.000  Zn
  Zn8      1.0000 0.03922  0.27862  0.35932  Biso   1.000  Zn
  H1       1.0000 0.65440  0.50590  0.11610  Biso   1.000  H
  H2       1.0000 0.13340  0.05720  0.03640  Biso   1.000  H
  H3       1.0000 0.36310  0.48200  0.55320  Biso   1.000  H
  H4       1.0000 0.05540  0.34900  0.15540  Biso   1.000  H
  H5       1.0000 0.86460  0.25820  0.03720  Biso   1.000  H
  H6       1.0000 0.97890  0.12520  0.88080  Biso   1.000  H
  H7       1.0000 0.15690  0.21710  0.00090  Biso   1.000  H
  H8       1.0000 0.27810  0.39330  0.01710  Biso   1.000  H
  H9       1.0000 0.50710  0.15750  0.13090  Biso   1.000  H
  H10      1.0000 0.84560  0.88390  0.49410  Biso   1.000  H
  H11      1.0000 0.36660  0.96360  0.94280  Biso   1.000  H
  H12      1.0000 0.13690  0.44680  0.51800  Biso   1.000  H
  H13      1.0000 0.44460  0.84460  0.65100  Biso   1.000  H
  H14      1.0000 0.63540  0.96280  0.74180  Biso   1.000  H
  H15      1.0000 0.52110  0.11920  0.87480  Biso   1.000  H
  H16      1.0000 0.34310  0.99910  0.78290  Biso   1.000  H
  H17      1.0000 0.22190  0.98290  0.60670  Biso   1.000  H
  H18      1.0000 0.99290  0.86910  0.84250  Biso   1.000  H
  H19      1.0000 0.34560  0.49410  0.88390  Biso   1.000  H
  H20      1.0000 0.86660  0.94280  0.96360  Biso   1.000  H
  H21      1.0000 0.63690  0.51800  0.44680  Biso   1.000  H
  H22      1.0000 0.94460  0.65100  0.84460  Biso   1.000  H
  H23      1.0000 0.13540  0.74180  0.96280  Biso   1.000  H
  H24      1.0000 0.02110  0.87480  0.11920  Biso   1.000  H
  H25      1.0000 0.84310  0.78290  0.99910  Biso   1.000  H
  H26      1.0000 0.72190  0.60670  0.98290  Biso   1.000  H
  H27      1.0000 0.49290  0.84250  0.86910  Biso   1.000  H
  H28      1.0000 0.15440  0.11610  0.50590  Biso   1.000  H
  H29      1.0000 0.63340  0.03640  0.05720  Biso   1.000  H
  H30      1.0000 0.86310  0.55320  0.48200  Biso   1.000  H
  H31      1.0000 0.55540  0.15540  0.34900  Biso   1.000  H
  H32      1.0000 0.36460  0.03720  0.25820  Biso   1.000  H
  H33      1.0000 0.47890  0.88080  0.12520  Biso   1.000  H
  H34      1.0000 0.65690  0.00090  0.21710  Biso   1.000  H
  H35      1.0000 0.77810  0.01710  0.39330  Biso   1.000  H
  H36      1.0000 0.00710  0.13090  0.15750  Biso   1.000  H
  C1       1.0000 0.46350  0.41730  0.12850  Biso   1.000  C
  C2       1.0000 0.48190  0.46030  0.06230  Biso   1.000  C
  C3       1.0000 0.59080  0.50390  0.06810  Biso   1.000  C
  C4       1.0000 0.39120  0.45750  0.99030  Biso   1.000  C
  C5       1.0000 0.34680  0.18420  0.14740  Biso   1.000  C
  C6       1.0000 0.30070  0.09290  0.06710  Biso   1.000  C
  C7       1.0000 0.18100  0.03890  0.01510  Biso   1.000  C
  C8       1.0000 0.36880  0.06400  0.03820  Biso   1.000  C
  C9       1.0000 0.25770  0.37090  0.37810  Biso   1.000  C
  C10      1.0000 0.38470  0.43830  0.43830  Biso   1.000  C
  C11      1.0000 0.46820  0.44540  0.40440  Biso   1.000  C
  C12      1.0000 0.42000  0.49090  0.53230  Biso   1.000  C
  C13      1.0000 0.03830  0.30180  0.09980  Biso   1.000  C
  C14      1.0000 0.92530  0.24890  0.03030  Biso   1.000  C
  C15      1.0000 0.90550  0.18200  0.95040  Biso   1.000  C
  C16      1.0000 0.99210  0.16930  0.93670  Biso   1.000  C
  C17      1.0000 0.09550  0.22420  0.00880  Biso   1.000  C
  C18      1.0000 0.03650  0.87150  0.58270  Biso   1.000  C
  C19      1.0000 0.01810  0.93770  0.53970  Biso   1.000  C
  C20      1.0000 0.90920  0.93190  0.49610  Biso   1.000  C
  C21      1.0000 0.10880  0.00970  0.54250  Biso   1.000  C
  C22      1.0000 0.15320  0.85260  0.81580  Biso   1.000  C
  C23      1.0000 0.19930  0.93290  0.90710  Biso   1.000  C
  C24      1.0000 0.31900  0.98490  0.96110  Biso   1.000  C
  C25      1.0000 0.13120  0.96180  0.93600  Biso   1.000  C
  C26      1.0000 0.24230  0.62190  0.62910  Biso   1.000  C
  C27      1.0000 0.11530  0.56170  0.56170  Biso   1.000  C
  C28      1.0000 0.03180  0.59560  0.55460  Biso   1.000  C
  C29      1.0000 0.08000  0.46770  0.50910  Biso   1.000  C
  C30      1.0000 0.46170  0.90020  0.69820  Biso   1.000  C
  C31      1.0000 0.57470  0.96970  0.75110  Biso   1.000  C
  C32      1.0000 0.59450  0.04960  0.81800  Biso   1.000  C
  C33      1.0000 0.50790  0.06330  0.83070  Biso   1.000  C
  C34      1.0000 0.40450  0.99120  0.77580  Biso   1.000  C
  C35      1.0000 0.53650  0.58270  0.87150  Biso   1.000  C
  C36      1.0000 0.51810  0.53970  0.93770  Biso   1.000  C
  C37      1.0000 0.40920  0.49610  0.93190  Biso   1.000  C
  C38      1.0000 0.60880  0.54250  0.00970  Biso   1.000  C
  C39      1.0000 0.65320  0.81580  0.85260  Biso   1.000  C
  C40      1.0000 0.69930  0.90710  0.93290  Biso   1.000  C
  C41      1.0000 0.81900  0.96110  0.98490  Biso   1.000  C
  C42      1.0000 0.63120  0.93600  0.96180  Biso   1.000  C
  C43      1.0000 0.74230  0.62910  0.62190  Biso   1.000  C
  C44      1.0000 0.61530  0.56170  0.56170  Biso   1.000  C
  C45      1.0000 0.53180  0.55460  0.59560  Biso   1.000  C
  C46      1.0000 0.58000  0.50910  0.46770  Biso   1.000  C
  C47      1.0000 0.96170  0.69820  0.90020  Biso   1.000  C
  C48      1.0000 0.07470  0.75110  0.96970  Biso   1.000  C
  C49      1.0000 0.09450  0.81800  0.04960  Biso   1.000  C
  C50      1.0000 0.00790  0.83070  0.06330  Biso   1.000  C
  C51      1.0000 0.90450  0.77580  0.99120  Biso   1.000  C
  C52      1.0000 0.96350  0.12850  0.41730  Biso   1.000  C
  C53      1.0000 0.98190  0.06230  0.46030  Biso   1.000  C
  C54      1.0000 0.09080  0.06810  0.50390  Biso   1.000  C
  C55      1.0000 0.89120  0.99030  0.45750  Biso   1.000  C
  C56      1.0000 0.84680  0.14740  0.18420  Biso   1.000  C
  C57      1.0000 0.80070  0.06710  0.09290  Biso   1.000  C
  C58      1.0000 0.68100  0.01510  0.03890  Biso   1.000  C
  C59      1.0000 0.86880  0.03820  0.06400  Biso   1.000  C
  C60      1.0000 0.75770  0.37810  0.37090  Biso   1.000  C
  C61      1.0000 0.88470  0.43830  0.43830  Biso   1.000  C
  C62      1.0000 0.96820  0.40440  0.44540  Biso   1.000  C
  C63      1.0000 0.92000  0.53230  0.49090  Biso   1.000  C
  C64      1.0000 0.53830  0.09980  0.30180  Biso   1.000  C
  C65      1.0000 0.42530  0.03030  0.24890  Biso   1.000  C
  C66      1.0000 0.40550  0.95040  0.18200  Biso   1.000  C
  C67      1.0000 0.49210  0.93670  0.16930  Biso   1.000  C
  C68      1.0000 0.59550  0.00880  0.22420  Biso   1.000  C
  N1       1.0000 0.12540  0.28790  0.09070  Biso   1.000  N
  N2       1.0000 0.78460  0.11130  0.87510  Biso   1.000  N
  N3       1.0000 0.37460  0.90930  0.71210  Biso   1.000  N
  N4       1.0000 0.71540  0.12490  0.88870  Biso   1.000  N
  N5       1.0000 0.87460  0.71210  0.90930  Biso   1.000  N
  N6       1.0000 0.21540  0.88870  0.12490  Biso   1.000  N
  N7       1.0000 0.62540  0.09070  0.28790  Biso   1.000  N
  N8       1.0000 0.28460  0.87510  0.11130  Biso   1.000  N
  O1       1.0000 0.36520  0.37820  0.11880  Biso   1.000  O
  O2       1.0000 0.54810  0.42190  0.19010  Biso   1.000  O
  O3       1.0000 0.28000  0.41540  0.97640  Biso   1.000  O
  O4       1.0000 0.28240  0.21190  0.16350  Biso   1.000  O
  O5       1.0000 0.45840  0.22990  0.19310  Biso   1.000  O
  O6       1.0000 0.48530  0.10950  0.08450  Biso   1.000  O
  O7       1.0000 0.44030  0.39520  0.31720  Biso   1.000  O
  O8       1.0000 0.21760  0.32730  0.29250  Biso   1.000  O
  O9       1.0000 0.19820  0.36240  0.42100  Biso   1.000  O
  O10      1.0000 0.29900  0.48590  0.23670  Biso   1.000  O
  O11      1.0000 0.13480  0.88120  0.62180  Biso   1.000  O
  O12      1.0000 0.95190  0.80990  0.57810  Biso   1.000  O
  O13      1.0000 0.22000  0.02360  0.58460  Biso   1.000  O
  O14      1.0000 0.21760  0.83650  0.78810  Biso   1.000  O
  O15      1.0000 0.04160  0.80690  0.77010  Biso   1.000  O
  O16      1.0000 0.01470  0.91550  0.89050  Biso   1.000  O
  O17      1.0000 0.05970  0.68280  0.60480  Biso   1.000  O
  O18      1.0000 0.28240  0.70750  0.67270  Biso   1.000  O
  O19      1.0000 0.30180  0.57900  0.63760  Biso   1.000  O
  O20      1.0000 0.20100  0.76330  0.51410  Biso   1.000  O
  O21      1.0000 0.63480  0.62180  0.88120  Biso   1.000  O
  O22      1.0000 0.45190  0.57810  0.80990  Biso   1.000  O
  O23      1.0000 0.72000  0.58460  0.02360  Biso   1.000  O
  O24      1.0000 0.71760  0.78810  0.83650  Biso   1.000  O
  O25      1.0000 0.54160  0.77010  0.80690  Biso   1.000  O
  O26      1.0000 0.51470  0.89050  0.91550  Biso   1.000  O
  O27      1.0000 0.55970  0.60480  0.68280  Biso   1.000  O
  O28      1.0000 0.78240  0.67270  0.70750  Biso   1.000  O
  O29      1.0000 0.80180  0.63760  0.57900  Biso   1.000  O
  O30      1.0000 0.70100  0.51410  0.76330  Biso   1.000  O
  O31      1.0000 0.86520  0.11880  0.37820  Biso   1.000  O
  O32      1.0000 0.04810  0.19010  0.42190  Biso   1.000  O
  O33      1.0000 0.78000  0.97640  0.41540  Biso   1.000  O
  O34      1.0000 0.78240  0.16350  0.21190  Biso   1.000  O
  O35      1.0000 0.95840  0.19310  0.22990  Biso   1.000  O
  O36      1.0000 0.98530  0.08450  0.10950  Biso   1.000  O
  O37      1.0000 0.94030  0.31720  0.39520  Biso   1.000  O
  O38      1.0000 0.71760  0.29250  0.32730  Biso   1.000  O
  O39      1.0000 0.69820  0.42100  0.36240  Biso   1.000  O
  O40      1.0000 0.79900  0.23670  0.48590  Biso   1.000  O
