data_image0
_cell_length_a       10.5236
_cell_length_b       25.768
_cell_length_c       25.9507
_cell_angle_alpha    90
_cell_angle_beta     90
_cell_angle_gamma    90

_symmetry_space_group_name_H-M    P 1
_symmetry_int_tables_number       1

loop_
  _symmetry_equiv_pos_as_xyz
  'x, y, z'

loop_
  _atom_site_label
  _atom_site_occupancy
  _atom_site_fract_x
  _atom_site_fract_y
  _atom_site_fract_z
  _atom_site_thermal_displace_type
  _atom_site_B_iso_or_equiv
  _atom_site_type_symbol
  Zn1      1.0000 0.43784  0.42153  0.13148  Biso   1.000  Zn
  Zn2      1.0000 0.20121  0.50389  0.11123  Biso   1.000  Zn
  Zn3      1.0000 0.93784  0.57847  0.36852  Biso   1.000  Zn
  Zn4      1.0000 0.70121  0.49611  0.38877  Biso   1.000  Zn
  Zn5      1.0000 0.56216  0.92153  0.86852  Biso   1.000  Zn
  Zn6      1.0000 0.79879  0.00389  0.88877  Biso   1.000  Zn
  Zn7      1.0000 0.06216  0.07847  0.63148  Biso   1.000  Zn
  Zn8      1.0000 0.29879  0.99611  0.61123  Biso   1.000  Zn
  Zn9      1.0000 0.56216  0.57847  0.86852  Biso   1.000  Zn
  Zn10     1.0000 0.79879  0.49611  0.88877  Biso   1.000  Zn
  Zn11     1.0000 0.06216  0.42153  0.63148  Biso   1.000  Zn
  Zn12     1.0000 0.29879  0.50389  0.61123  Biso   1.000  Zn
  Zn13     1.0000 0.43784  0.07847  0.13148  Biso   1.000  Zn
  Zn14     1.0000 0.20121  0.99611  0.11123  Biso   1.000  Zn
  Zn15     1.0000 0.93784  0.92153  0.36852  Biso   1.000  Zn
  Zn16     1.0000 0.70121  0.00389  0.38877  Biso   1.000  Zn
  H1       1.0000 0.50080  0.62450  0.13150  Biso   1.000  H
  H2       1.0000 0.71860  0.66530  0.25400  Biso   1.000  H
  H3       1.0000 0.53970  0.52670  0.25230  Biso   1.000  H
  H4       1.0000 0.87160  0.54350  0.00860  Biso   1.000  H
  H5       1.0000 0.87080  0.63330  0.13630  Biso   1.000  H
  H6       1.0000 0.61900  0.66150  0.02150  Biso   1.000  H
  H7       1.0000 0.00080  0.37550  0.36850  Biso   1.000  H
  H8       1.0000 0.21860  0.33470  0.24600  Biso   1.000  H
  H9       1.0000 0.03970  0.47330  0.24770  Biso   1.000  H
  H10      1.0000 0.37160  0.45650  0.49140  Biso   1.000  H
  H11      1.0000 0.37080  0.36670  0.36370  Biso   1.000  H
  H12      1.0000 0.11900  0.33850  0.47850  Biso   1.000  H
  H13      1.0000 0.49920  0.12450  0.86850  Biso   1.000  H
  H14      1.0000 0.28140  0.16530  0.74600  Biso   1.000  H
  H15      1.0000 0.46030  0.02670  0.74770  Biso   1.000  H
  H16      1.0000 0.12840  0.04350  0.99140  Biso   1.000  H
  H17      1.0000 0.12920  0.13330  0.86370  Biso   1.000  H
  H18      1.0000 0.38100  0.16150  0.97850  Biso   1.000  H
  H19      1.0000 0.99920  0.87550  0.63150  Biso   1.000  H
  H20      1.0000 0.78140  0.83470  0.75400  Biso   1.000  H
  H21      1.0000 0.96030  0.97330  0.75230  Biso   1.000  H
  H22      1.0000 0.62840  0.95650  0.50860  Biso   1.000  H
  H23      1.0000 0.62920  0.86670  0.63630  Biso   1.000  H
  H24      1.0000 0.88100  0.83850  0.52150  Biso   1.000  H
  H25      1.0000 0.49920  0.37550  0.86850  Biso   1.000  H
  H26      1.0000 0.28140  0.33470  0.74600  Biso   1.000  H
  H27      1.0000 0.46030  0.47330  0.74770  Biso   1.000  H
  H28      1.0000 0.12840  0.45650  0.99140  Biso   1.000  H
  H29      1.0000 0.12920  0.36670  0.86370  Biso   1.000  H
  H30      1.0000 0.38100  0.33850  0.97850  Biso   1.000  H
  H31      1.0000 0.99920  0.62450  0.63150  Biso   1.000  H
  H32      1.0000 0.78140  0.66530  0.75400  Biso   1.000  H
  H33      1.0000 0.96030  0.52670  0.75230  Biso   1.000  H
  H34      1.0000 0.62840  0.54350  0.50860  Biso   1.000  H
  H35      1.0000 0.62920  0.63330  0.63630  Biso   1.000  H
  H36      1.0000 0.88100  0.66150  0.52150  Biso   1.000  H
  H37      1.0000 0.50080  0.87550  0.13150  Biso   1.000  H
  H38      1.0000 0.71860  0.83470  0.25400  Biso   1.000  H
  H39      1.0000 0.53970  0.97330  0.25230  Biso   1.000  H
  H40      1.0000 0.87160  0.95650  0.00860  Biso   1.000  H
  H41      1.0000 0.87080  0.86670  0.13630  Biso   1.000  H
  H42      1.0000 0.61900  0.83850  0.02150  Biso   1.000  H
  H43      1.0000 0.00080  0.12450  0.36850  Biso   1.000  H
  H44      1.0000 0.21860  0.16530  0.24600  Biso   1.000  H
  H45      1.0000 0.03970  0.02670  0.24770  Biso   1.000  H
  H46      1.0000 0.37160  0.04350  0.49140  Biso   1.000  H
  H47      1.0000 0.37080  0.13330  0.36370  Biso   1.000  H
  H48      1.0000 0.11900  0.16150  0.47850  Biso   1.000  H
  H49      1.0000 0.59400  0.75000  0.22050  Biso   1.000  H
  H50      1.0000 0.74480  0.75000  0.05200  Biso   1.000  H
  H51      1.0000 0.09400  0.25000  0.27950  Biso   1.000  H
  H52      1.0000 0.24480  0.25000  0.44800  Biso   1.000  H
  H53      1.0000 0.40600  0.25000  0.77950  Biso   1.000  H
  H54      1.0000 0.25520  0.25000  0.94800  Biso   1.000  H
  H55      1.0000 0.90600  0.75000  0.72050  Biso   1.000  H
  H56      1.0000 0.75520  0.75000  0.55200  Biso   1.000  H
  C1       1.0000 0.41880  0.53243  0.16261  Biso   1.000  C
  C2       1.0000 0.50550  0.57044  0.18841  Biso   1.000  C
  C3       1.0000 0.53520  0.61695  0.16451  Biso   1.000  C
  C4       1.0000 0.61520  0.65282  0.18855  Biso   1.000  C
  C5       1.0000 0.66420  0.64120  0.23720  Biso   1.000  C
  C6       1.0000 0.55730  0.55912  0.23645  Biso   1.000  C
  C7       1.0000 0.00970  0.55902  0.09351  Biso   1.000  C
  C8       1.0000 0.89120  0.58599  0.07400  Biso   1.000  C
  C9       1.0000 0.83880  0.57225  0.02729  Biso   1.000  C
  C10      1.0000 0.83820  0.62595  0.10289  Biso   1.000  C
  C11      1.0000 0.68180  0.58686  0.95648  Biso   1.000  C
  C12      1.0000 0.73670  0.60095  0.00756  Biso   1.000  C
  C13      1.0000 0.68770  0.64205  0.03531  Biso   1.000  C
  C14      1.0000 0.73760  0.65553  0.08348  Biso   1.000  C
  C15      1.0000 0.69470  0.70283  0.11089  Biso   1.000  C
  C16      1.0000 0.64660  0.70264  0.16174  Biso   1.000  C
  C17      1.0000 0.63390  0.59464  0.26114  Biso   1.000  C
  C18      1.0000 0.68960  0.58017  0.31263  Biso   1.000  C
  C19      1.0000 0.91880  0.46757  0.33739  Biso   1.000  C
  C20      1.0000 0.00550  0.42956  0.31159  Biso   1.000  C
  C21      1.0000 0.03520  0.38305  0.33549  Biso   1.000  C
  C22      1.0000 0.11520  0.34718  0.31145  Biso   1.000  C
  C23      1.0000 0.16420  0.35880  0.26280  Biso   1.000  C
  C24      1.0000 0.05730  0.44088  0.26355  Biso   1.000  C
  C25      1.0000 0.50970  0.44098  0.40649  Biso   1.000  C
  C26      1.0000 0.39120  0.41401  0.42600  Biso   1.000  C
  C27      1.0000 0.33880  0.42775  0.47271  Biso   1.000  C
  C28      1.0000 0.33820  0.37405  0.39711  Biso   1.000  C
  C29      1.0000 0.18180  0.41314  0.54352  Biso   1.000  C
  C30      1.0000 0.23670  0.39905  0.49244  Biso   1.000  C
  C31      1.0000 0.18770  0.35795  0.46469  Biso   1.000  C
  C32      1.0000 0.23760  0.34447  0.41652  Biso   1.000  C
  C33      1.0000 0.19470  0.29717  0.38911  Biso   1.000  C
  C34      1.0000 0.14660  0.29736  0.33826  Biso   1.000  C
  C35      1.0000 0.13390  0.40536  0.23886  Biso   1.000  C
  C36      1.0000 0.18960  0.41983  0.18737  Biso   1.000  C
  C37      1.0000 0.58120  0.03243  0.83739  Biso   1.000  C
  C38      1.0000 0.49450  0.07044  0.81159  Biso   1.000  C
  C39      1.0000 0.46480  0.11695  0.83549  Biso   1.000  C
  C40      1.0000 0.38480  0.15282  0.81145  Biso   1.000  C
  C41      1.0000 0.33580  0.14120  0.76280  Biso   1.000  C
  C42      1.0000 0.44270  0.05912  0.76355  Biso   1.000  C
  C43      1.0000 0.99030  0.05902  0.90649  Biso   1.000  C
  C44      1.0000 0.10880  0.08599  0.92600  Biso   1.000  C
  C45      1.0000 0.16120  0.07225  0.97271  Biso   1.000  C
  C46      1.0000 0.16180  0.12595  0.89711  Biso   1.000  C
  C47      1.0000 0.31820  0.08686  0.04352  Biso   1.000  C
  C48      1.0000 0.26330  0.10095  0.99244  Biso   1.000  C
  C49      1.0000 0.31230  0.14205  0.96469  Biso   1.000  C
  C50      1.0000 0.26240  0.15553  0.91652  Biso   1.000  C
  C51      1.0000 0.30530  0.20283  0.88911  Biso   1.000  C
  C52      1.0000 0.35340  0.20264  0.83826  Biso   1.000  C
  C53      1.0000 0.36610  0.09464  0.73886  Biso   1.000  C
  C54      1.0000 0.31040  0.08017  0.68737  Biso   1.000  C
  C55      1.0000 0.08120  0.96757  0.66261  Biso   1.000  C
  C56      1.0000 0.99450  0.92956  0.68841  Biso   1.000  C
  C57      1.0000 0.96480  0.88305  0.66451  Biso   1.000  C
  C58      1.0000 0.88480  0.84718  0.68855  Biso   1.000  C
  C59      1.0000 0.83580  0.85880  0.73720  Biso   1.000  C
  C60      1.0000 0.94270  0.94088  0.73645  Biso   1.000  C
  C61      1.0000 0.49030  0.94098  0.59351  Biso   1.000  C
  C62      1.0000 0.60880  0.91401  0.57400  Biso   1.000  C
  C63      1.0000 0.66120  0.92775  0.52729  Biso   1.000  C
  C64      1.0000 0.66180  0.87405  0.60289  Biso   1.000  C
  C65      1.0000 0.81820  0.91314  0.45648  Biso   1.000  C
  C66      1.0000 0.76330  0.89905  0.50756  Biso   1.000  C
  C67      1.0000 0.81230  0.85795  0.53531  Biso   1.000  C
  C68      1.0000 0.76240  0.84447  0.58348  Biso   1.000  C
  C69      1.0000 0.80530  0.79717  0.61089  Biso   1.000  C
  C70      1.0000 0.85340  0.79736  0.66174  Biso   1.000  C
  C71      1.0000 0.86610  0.90536  0.76114  Biso   1.000  C
  C72      1.0000 0.81040  0.91983  0.81263  Biso   1.000  C
  C73      1.0000 0.58120  0.46757  0.83739  Biso   1.000  C
  C74      1.0000 0.49450  0.42956  0.81159  Biso   1.000  C
  C75      1.0000 0.46480  0.38305  0.83549  Biso   1.000  C
  C76      1.0000 0.38480  0.34718  0.81145  Biso   1.000  C
  C77      1.0000 0.33580  0.35880  0.76280  Biso   1.000  C
  C78      1.0000 0.44270  0.44088  0.76355  Biso   1.000  C
  C79      1.0000 0.99030  0.44098  0.90649  Biso   1.000  C
  C80      1.0000 0.10880  0.41401  0.92600  Biso   1.000  C
  C81      1.0000 0.16120  0.42775  0.97271  Biso   1.000  C
  C82      1.0000 0.16180  0.37405  0.89711  Biso   1.000  C
  C83      1.0000 0.31820  0.41314  0.04352  Biso   1.000  C
  C84      1.0000 0.26330  0.39905  0.99244  Biso   1.000  C
  C85      1.0000 0.31230  0.35795  0.96469  Biso   1.000  C
  C86      1.0000 0.26240  0.34447  0.91652  Biso   1.000  C
  C87      1.0000 0.30530  0.29717  0.88911  Biso   1.000  C
  C88      1.0000 0.35340  0.29736  0.83826  Biso   1.000  C
  C89      1.0000 0.36610  0.40536  0.73886  Biso   1.000  C
  C90      1.0000 0.31040  0.41983  0.68737  Biso   1.000  C
  C91      1.0000 0.08120  0.53243  0.66261  Biso   1.000  C
  C92      1.0000 0.99450  0.57044  0.68841  Biso   1.000  C
  C93      1.0000 0.96480  0.61695  0.66451  Biso   1.000  C
  C94      1.0000 0.88480  0.65282  0.68855  Biso   1.000  C
  C95      1.0000 0.83580  0.64120  0.73720  Biso   1.000  C
  C96      1.0000 0.94270  0.55912  0.73645  Biso   1.000  C
  C97      1.0000 0.49030  0.55902  0.59351  Biso   1.000  C
  C98      1.0000 0.60880  0.58599  0.57400  Biso   1.000  C
  C99      1.0000 0.66120  0.57225  0.52729  Biso   1.000  C
  C100     1.0000 0.66180  0.62595  0.60289  Biso   1.000  C
  C101     1.0000 0.81820  0.58686  0.45648  Biso   1.000  C
  C102     1.0000 0.76330  0.60095  0.50756  Biso   1.000  C
  C103     1.0000 0.81230  0.64205  0.53531  Biso   1.000  C
  C104     1.0000 0.76240  0.65553  0.58348  Biso   1.000  C
  C105     1.0000 0.80530  0.70283  0.61089  Biso   1.000  C
  C106     1.0000 0.85340  0.70264  0.66174  Biso   1.000  C
  C107     1.0000 0.86610  0.59464  0.76114  Biso   1.000  C
  C108     1.0000 0.81040  0.58017  0.81263  Biso   1.000  C
  C109     1.0000 0.41880  0.96757  0.16261  Biso   1.000  C
  C110     1.0000 0.50550  0.92956  0.18841  Biso   1.000  C
  C111     1.0000 0.53520  0.88305  0.16451  Biso   1.000  C
  C112     1.0000 0.61520  0.84718  0.18855  Biso   1.000  C
  C113     1.0000 0.66420  0.85880  0.23720  Biso   1.000  C
  C114     1.0000 0.55730  0.94088  0.23645  Biso   1.000  C
  C115     1.0000 0.00970  0.94098  0.09351  Biso   1.000  C
  C116     1.0000 0.89120  0.91401  0.07400  Biso   1.000  C
  C117     1.0000 0.83880  0.92775  0.02729  Biso   1.000  C
  C118     1.0000 0.83820  0.87405  0.10289  Biso   1.000  C
  C119     1.0000 0.68180  0.91314  0.95648  Biso   1.000  C
  C120     1.0000 0.73670  0.89905  0.00756  Biso   1.000  C
  C121     1.0000 0.68770  0.85795  0.03531  Biso   1.000  C
  C122     1.0000 0.73760  0.84447  0.08348  Biso   1.000  C
  C123     1.0000 0.69470  0.79717  0.11089  Biso   1.000  C
  C124     1.0000 0.64660  0.79736  0.16174  Biso   1.000  C
  C125     1.0000 0.63390  0.90536  0.26114  Biso   1.000  C
  C126     1.0000 0.68960  0.91983  0.31263  Biso   1.000  C
  C127     1.0000 0.91880  0.03243  0.33739  Biso   1.000  C
  C128     1.0000 0.00550  0.07044  0.31159  Biso   1.000  C
  C129     1.0000 0.03520  0.11695  0.33549  Biso   1.000  C
  C130     1.0000 0.11520  0.15282  0.31145  Biso   1.000  C
  C131     1.0000 0.16420  0.14120  0.26280  Biso   1.000  C
  C132     1.0000 0.05730  0.05912  0.26355  Biso   1.000  C
  C133     1.0000 0.50970  0.05902  0.40649  Biso   1.000  C
  C134     1.0000 0.39120  0.08599  0.42600  Biso   1.000  C
  C135     1.0000 0.33880  0.07225  0.47271  Biso   1.000  C
  C136     1.0000 0.33820  0.12595  0.39711  Biso   1.000  C
  C137     1.0000 0.18180  0.08686  0.54352  Biso   1.000  C
  C138     1.0000 0.23670  0.10095  0.49244  Biso   1.000  C
  C139     1.0000 0.18770  0.14205  0.46469  Biso   1.000  C
  C140     1.0000 0.23760  0.15553  0.41652  Biso   1.000  C
  C141     1.0000 0.19470  0.20283  0.38911  Biso   1.000  C
  C142     1.0000 0.14660  0.20264  0.33826  Biso   1.000  C
  C143     1.0000 0.13390  0.09464  0.23886  Biso   1.000  C
  C144     1.0000 0.18960  0.08017  0.18737  Biso   1.000  C
  C145     1.0000 0.62480  0.75000  0.18607  Biso   1.000  C
  C146     1.0000 0.71540  0.75000  0.08657  Biso   1.000  C
  C147     1.0000 0.12480  0.25000  0.31393  Biso   1.000  C
  C148     1.0000 0.21540  0.25000  0.41343  Biso   1.000  C
  C149     1.0000 0.37520  0.25000  0.81393  Biso   1.000  C
  C150     1.0000 0.28460  0.25000  0.91343  Biso   1.000  C
  C151     1.0000 0.87520  0.75000  0.68607  Biso   1.000  C
  C152     1.0000 0.78460  0.75000  0.58657  Biso   1.000  C
  O1       1.0000 0.04910  0.56849  0.13722  Biso   1.000  O
  O2       1.0000 0.06400  0.52703  0.06399  Biso   1.000  O
  O3       1.0000 0.34240  0.54993  0.12985  Biso   1.000  O
  O4       1.0000 0.42630  0.48546  0.17704  Biso   1.000  O
  O5       1.0000 0.70590  0.54352  0.93653  Biso   1.000  O
  O6       1.0000 0.60730  0.61810  0.93449  Biso   1.000  O
  O7       1.0000 0.63990  0.54253  0.33526  Biso   1.000  O
  O8       1.0000 0.78240  0.60707  0.32896  Biso   1.000  O
  O9       1.0000 0.56560  0.37513  0.16321  Biso   1.000  O
  O10      1.0000 0.57910  0.46458  0.09250  Biso   1.000  O
  O11      1.0000 0.54910  0.43151  0.36278  Biso   1.000  O
  O12      1.0000 0.56400  0.47297  0.43601  Biso   1.000  O
  O13      1.0000 0.84240  0.45007  0.37015  Biso   1.000  O
  O14      1.0000 0.92630  0.51454  0.32296  Biso   1.000  O
  O15      1.0000 0.20590  0.45648  0.56347  Biso   1.000  O
  O16      1.0000 0.10730  0.38190  0.56551  Biso   1.000  O
  O17      1.0000 0.13990  0.45747  0.16474  Biso   1.000  O
  O18      1.0000 0.28240  0.39293  0.17104  Biso   1.000  O
  O19      1.0000 0.06560  0.62487  0.33679  Biso   1.000  O
  O20      1.0000 0.07910  0.53542  0.40750  Biso   1.000  O
  O21      1.0000 0.95090  0.06849  0.86278  Biso   1.000  O
  O22      1.0000 0.93600  0.02703  0.93601  Biso   1.000  O
  O23      1.0000 0.65760  0.04993  0.87015  Biso   1.000  O
  O24      1.0000 0.57370  0.98546  0.82296  Biso   1.000  O
  O25      1.0000 0.29410  0.04352  0.06347  Biso   1.000  O
  O26      1.0000 0.39270  0.11810  0.06551  Biso   1.000  O
  O27      1.0000 0.36010  0.04253  0.66474  Biso   1.000  O
  O28      1.0000 0.21760  0.10707  0.67104  Biso   1.000  O
  O29      1.0000 0.43440  0.87513  0.83679  Biso   1.000  O
  O30      1.0000 0.42090  0.96458  0.90750  Biso   1.000  O
  O31      1.0000 0.45090  0.93151  0.63722  Biso   1.000  O
  O32      1.0000 0.43600  0.97297  0.56399  Biso   1.000  O
  O33      1.0000 0.15760  0.95007  0.62985  Biso   1.000  O
  O34      1.0000 0.07370  0.01454  0.67704  Biso   1.000  O
  O35      1.0000 0.79410  0.95648  0.43653  Biso   1.000  O
  O36      1.0000 0.89270  0.88190  0.43449  Biso   1.000  O
  O37      1.0000 0.86010  0.95747  0.83526  Biso   1.000  O
  O38      1.0000 0.71760  0.89293  0.82896  Biso   1.000  O
  O39      1.0000 0.93440  0.12487  0.66321  Biso   1.000  O
  O40      1.0000 0.92090  0.03542  0.59250  Biso   1.000  O
  O41      1.0000 0.95090  0.43151  0.86278  Biso   1.000  O
  O42      1.0000 0.93600  0.47297  0.93601  Biso   1.000  O
  O43      1.0000 0.65760  0.45007  0.87015  Biso   1.000  O
  O44      1.0000 0.57370  0.51454  0.82296  Biso   1.000  O
  O45      1.0000 0.29410  0.45648  0.06347  Biso   1.000  O
  O46      1.0000 0.39270  0.38190  0.06551  Biso   1.000  O
  O47      1.0000 0.36010  0.45747  0.66474  Biso   1.000  O
  O48      1.0000 0.21760  0.39293  0.67104  Biso   1.000  O
  O49      1.0000 0.43440  0.62487  0.83679  Biso   1.000  O
  O50      1.0000 0.42090  0.53542  0.90750  Biso   1.000  O
  O51      1.0000 0.45090  0.56849  0.63722  Biso   1.000  O
  O52      1.0000 0.43600  0.52703  0.56399  Biso   1.000  O
  O53      1.0000 0.15760  0.54993  0.62985  Biso   1.000  O
  O54      1.0000 0.07370  0.48546  0.67704  Biso   1.000  O
  O55      1.0000 0.79410  0.54352  0.43653  Biso   1.000  O
  O56      1.0000 0.89270  0.61810  0.43449  Biso   1.000  O
  O57      1.0000 0.86010  0.54253  0.83526  Biso   1.000  O
  O58      1.0000 0.71760  0.60707  0.82896  Biso   1.000  O
  O59      1.0000 0.93440  0.37513  0.66321  Biso   1.000  O
  O60      1.0000 0.92090  0.46458  0.59250  Biso   1.000  O
  O61      1.0000 0.04910  0.93151  0.13722  Biso   1.000  O
  O62      1.0000 0.06400  0.97297  0.06399  Biso   1.000  O
  O63      1.0000 0.34240  0.95007  0.12985  Biso   1.000  O
  O64      1.0000 0.42630  0.01454  0.17704  Biso   1.000  O
  O65      1.0000 0.70590  0.95648  0.93653  Biso   1.000  O
  O66      1.0000 0.60730  0.88190  0.93449  Biso   1.000  O
  O67      1.0000 0.63990  0.95747  0.33526  Biso   1.000  O
  O68      1.0000 0.78240  0.89293  0.32896  Biso   1.000  O
  O69      1.0000 0.56560  0.12487  0.16321  Biso   1.000  O
  O70      1.0000 0.57910  0.03542  0.09250  Biso   1.000  O
  O71      1.0000 0.54910  0.06849  0.36278  Biso   1.000  O
  O72      1.0000 0.56400  0.02703  0.43601  Biso   1.000  O
  O73      1.0000 0.84240  0.04993  0.37015  Biso   1.000  O
  O74      1.0000 0.92630  0.98546  0.32296  Biso   1.000  O
  O75      1.0000 0.20590  0.04352  0.56347  Biso   1.000  O
  O76      1.0000 0.10730  0.11810  0.56551  Biso   1.000  O
  O77      1.0000 0.13990  0.04253  0.16474  Biso   1.000  O
  O78      1.0000 0.28240  0.10707  0.17104  Biso   1.000  O
  O79      1.0000 0.06560  0.87513  0.33679  Biso   1.000  O
  O80      1.0000 0.07910  0.96458  0.40750  Biso   1.000  O
