data_image0
_cell_length_a       9.819
_cell_length_b       11.0731
_cell_length_c       12.6499
_cell_angle_alpha    90
_cell_angle_beta     90
_cell_angle_gamma    99.852

_symmetry_space_group_name_H-M    P 1
_symmetry_int_tables_number       1

loop_
  _symmetry_equiv_pos_as_xyz
  'x, y, z'

loop_
  _atom_site_label
  _atom_site_occupancy
  _atom_site_fract_x
  _atom_site_fract_y
  _atom_site_fract_z
  _atom_site_thermal_displace_type
  _atom_site_B_iso_or_equiv
  _atom_site_type_symbol
  Co1      1.0000 0.87280  0.75077  0.56632  Biso   1.000  Co
  Co2      1.0000 0.37640  0.74812  0.56436  Biso   1.000  Co
  Co3      1.0000 0.12720  0.24923  0.06632  Biso   1.000  Co
  Co4      1.0000 0.62360  0.25188  0.06436  Biso   1.000  Co
  H1       1.0000 0.10340  0.36740  0.45860  Biso   1.000  H
  H2       1.0000 0.85150  0.01590  0.51550  Biso   1.000  H
  H3       1.0000 0.45440  0.00780  0.73500  Biso   1.000  H
  H4       1.0000 0.10290  0.24130  0.31270  Biso   1.000  H
  H5       1.0000 0.60290  0.51260  0.83940  Biso   1.000  H
  H6       1.0000 0.10550  0.64690  0.25880  Biso   1.000  H
  H7       1.0000 0.44540  0.13140  0.88480  Biso   1.000  H
  H8       1.0000 0.84110  0.14820  0.37700  Biso   1.000  H
  H9       1.0000 0.12090  0.51920  0.12330  Biso   1.000  H
  H10      1.0000 0.19470  0.62720  0.74580  Biso   1.000  H
  H11      1.0000 0.58790  0.64180  0.69820  Biso   1.000  H
  H12      1.0000 0.85280  0.00780  0.80010  Biso   1.000  H
  H13      1.0000 0.87160  0.86880  0.18190  Biso   1.000  H
  H14      1.0000 0.87180  0.74560  0.32320  Biso   1.000  H
  H15      1.0000 0.19230  0.49420  0.88090  Biso   1.000  H
  H16      1.0000 0.83650  0.13530  0.93980  Biso   1.000  H
  H17      1.0000 0.89660  0.63260  0.95860  Biso   1.000  H
  H18      1.0000 0.14850  0.98410  0.01550  Biso   1.000  H
  H19      1.0000 0.54560  0.99220  0.23500  Biso   1.000  H
  H20      1.0000 0.89710  0.75870  0.81270  Biso   1.000  H
  H21      1.0000 0.39710  0.48740  0.33940  Biso   1.000  H
  H22      1.0000 0.89450  0.35310  0.75880  Biso   1.000  H
  H23      1.0000 0.55460  0.86860  0.38480  Biso   1.000  H
  H24      1.0000 0.15890  0.85180  0.87700  Biso   1.000  H
  H25      1.0000 0.87910  0.48080  0.62330  Biso   1.000  H
  H26      1.0000 0.80530  0.37280  0.24580  Biso   1.000  H
  H27      1.0000 0.41210  0.35820  0.19820  Biso   1.000  H
  H28      1.0000 0.14720  0.99220  0.30010  Biso   1.000  H
  H29      1.0000 0.12840  0.13120  0.68190  Biso   1.000  H
  H30      1.0000 0.12820  0.25440  0.82320  Biso   1.000  H
  H31      1.0000 0.80770  0.50580  0.38090  Biso   1.000  H
  H32      1.0000 0.16350  0.86470  0.43980  Biso   1.000  H
  C1       1.0000 0.65210  0.89780  0.66480  Biso   1.000  C
  C2       1.0000 0.65210  0.98920  0.75410  Biso   1.000  C
  C3       1.0000 0.10460  0.39970  0.39070  Biso   1.000  C
  C4       1.0000 0.85310  0.98570  0.44700  Biso   1.000  C
  C5       1.0000 0.53230  0.03000  0.77700  Biso   1.000  C
  C6       1.0000 0.10720  0.32490  0.30160  Biso   1.000  C
  C7       1.0000 0.40740  0.39820  0.96690  Biso   1.000  C
  C8       1.0000 0.09290  0.60480  0.46650  Biso   1.000  C
  C9       1.0000 0.39750  0.48690  0.87500  Biso   1.000  C
  C10      1.0000 0.10390  0.52390  0.37410  Biso   1.000  C
  C11      1.0000 0.51850  0.53330  0.82020  Biso   1.000  C
  C12      1.0000 0.10790  0.56480  0.27240  Biso   1.000  C
  C13      1.0000 0.52840  0.10710  0.86640  Biso   1.000  C
  C14      1.0000 0.84740  0.06670  0.36400  Biso   1.000  C
  C15      1.0000 0.11540  0.48690  0.19130  Biso   1.000  C
  C16      1.0000 0.27720  0.60170  0.76370  Biso   1.000  C
  C17      1.0000 0.50830  0.61130  0.73630  Biso   1.000  C
  C18      1.0000 0.76860  0.03150  0.81570  Biso   1.000  C
  C19      1.0000 0.86410  0.90130  0.24900  Biso   1.000  C
  C20      1.0000 0.86630  0.82770  0.33390  Biso   1.000  C
  C21      1.0000 0.27430  0.52320  0.84540  Biso   1.000  C
  C22      1.0000 0.84660  0.10900  0.16760  Biso   1.000  C
  C23      1.0000 0.75800  0.10830  0.89940  Biso   1.000  C
  C24      1.0000 0.85130  0.02260  0.25830  Biso   1.000  C
  C25      1.0000 0.34790  0.10220  0.16480  Biso   1.000  C
  C26      1.0000 0.34790  0.01080  0.25410  Biso   1.000  C
  C27      1.0000 0.89540  0.60030  0.89070  Biso   1.000  C
  C28      1.0000 0.14690  0.01430  0.94700  Biso   1.000  C
  C29      1.0000 0.46770  0.97000  0.27700  Biso   1.000  C
  C30      1.0000 0.89280  0.67510  0.80160  Biso   1.000  C
  C31      1.0000 0.59260  0.60180  0.46690  Biso   1.000  C
  C32      1.0000 0.90710  0.39520  0.96650  Biso   1.000  C
  C33      1.0000 0.60250  0.51310  0.37500  Biso   1.000  C
  C34      1.0000 0.89610  0.47610  0.87410  Biso   1.000  C
  C35      1.0000 0.48150  0.46670  0.32020  Biso   1.000  C
  C36      1.0000 0.89210  0.43520  0.77240  Biso   1.000  C
  C37      1.0000 0.47160  0.89290  0.36640  Biso   1.000  C
  C38      1.0000 0.15260  0.93330  0.86400  Biso   1.000  C
  C39      1.0000 0.88460  0.51310  0.69130  Biso   1.000  C
  C40      1.0000 0.72280  0.39830  0.26370  Biso   1.000  C
  C41      1.0000 0.49170  0.38870  0.23630  Biso   1.000  C
  C42      1.0000 0.23140  0.96850  0.31570  Biso   1.000  C
  C43      1.0000 0.13590  0.09870  0.74900  Biso   1.000  C
  C44      1.0000 0.13370  0.17230  0.83390  Biso   1.000  C
  C45      1.0000 0.72570  0.47680  0.34540  Biso   1.000  C
  C46      1.0000 0.15340  0.89100  0.66760  Biso   1.000  C
  C47      1.0000 0.24200  0.89170  0.39940  Biso   1.000  C
  C48      1.0000 0.14870  0.97740  0.75830  Biso   1.000  C
  N1       1.0000 0.11540  0.36520  0.20200  Biso   1.000  N
  N2       1.0000 0.38790  0.64540  0.70700  Biso   1.000  N
  N3       1.0000 0.86070  0.86970  0.43500  Biso   1.000  N
  N4       1.0000 0.64180  0.14570  0.92510  Biso   1.000  N
  N5       1.0000 0.88460  0.63480  0.70200  Biso   1.000  N
  N6       1.0000 0.61210  0.35460  0.20700  Biso   1.000  N
  N7       1.0000 0.13930  0.13030  0.93500  Biso   1.000  N
  N8       1.0000 0.35820  0.85430  0.42510  Biso   1.000  N
  O1       1.0000 0.55520  0.87520  0.60550  Biso   1.000  O
  O2       1.0000 0.29900  0.37090  0.02080  Biso   1.000  O
  O3       1.0000 0.98480  0.64560  0.47440  Biso   1.000  O
  O4       1.0000 0.51820  0.36470  0.98080  Biso   1.000  O
  O5       1.0000 0.19380  0.62570  0.53230  Biso   1.000  O
  O6       1.0000 0.73400  0.14720  0.15960  Biso   1.000  O
  O7       1.0000 0.94750  0.12630  0.10890  Biso   1.000  O
  O8       1.0000 0.76770  0.85160  0.66450  Biso   1.000  O
  O9       1.0000 0.44480  0.12480  0.10550  Biso   1.000  O
  O10      1.0000 0.70100  0.62910  0.52080  Biso   1.000  O
  O11      1.0000 0.01520  0.35440  0.97440  Biso   1.000  O
  O12      1.0000 0.48180  0.63530  0.48080  Biso   1.000  O
  O13      1.0000 0.80620  0.37430  0.03230  Biso   1.000  O
  O14      1.0000 0.26600  0.85280  0.65960  Biso   1.000  O
  O15      1.0000 0.05250  0.87370  0.60890  Biso   1.000  O
  O16      1.0000 0.23230  0.14840  0.16450  Biso   1.000  O
