data_image0
_cell_length_a       19.4687
_cell_length_b       19.4687
_cell_length_c       26.3746
_cell_angle_alpha    90
_cell_angle_beta     90
_cell_angle_gamma    90

_symmetry_space_group_name_H-M    P 1
_symmetry_int_tables_number       1

loop_
  _symmetry_equiv_pos_as_xyz
  'x, y, z'

loop_
  _atom_site_label
  _atom_site_occupancy
  _atom_site_fract_x
  _atom_site_fract_y
  _atom_site_fract_z
  _atom_site_thermal_displace_type
  _atom_site_B_iso_or_equiv
  _atom_site_type_symbol
  Gd1      1.0000 0.55614  0.55614  0.30236  Biso   1.000  Gd
  Gd2      1.0000 0.94386  0.94386  0.30236  Biso   1.000  Gd
  Gd3      1.0000 0.94386  0.55614  0.80236  Biso   1.000  Gd
  Gd4      1.0000 0.55614  0.94386  0.80236  Biso   1.000  Gd
  Gd5      1.0000 0.44386  0.05614  0.19764  Biso   1.000  Gd
  Gd6      1.0000 0.05614  0.44386  0.19764  Biso   1.000  Gd
  Gd7      1.0000 0.05614  0.05614  0.69764  Biso   1.000  Gd
  Gd8      1.0000 0.44386  0.44386  0.69764  Biso   1.000  Gd
  Cd1      1.0000 0.46740  0.46740  0.19573  Biso   1.000  Cd
  Cd2      1.0000 0.03260  0.03260  0.19573  Biso   1.000  Cd
  Cd3      1.0000 0.03260  0.46740  0.69573  Biso   1.000  Cd
  Cd4      1.0000 0.46740  0.03260  0.69573  Biso   1.000  Cd
  Cd5      1.0000 0.53260  0.96740  0.30427  Biso   1.000  Cd
  Cd6      1.0000 0.96740  0.53260  0.30427  Biso   1.000  Cd
  Cd7      1.0000 0.96740  0.96740  0.80427  Biso   1.000  Cd
  Cd8      1.0000 0.53260  0.53260  0.80427  Biso   1.000  Cd
  Cd9      1.0000 0.25000  0.75000  0.00000  Biso   1.000  Cd
  Cd10     1.0000 0.75000  0.25000  0.50000  Biso   1.000  Cd
  Cd11     1.0000 0.75000  0.25000  0.00000  Biso   1.000  Cd
  Cd12     1.0000 0.25000  0.75000  0.50000  Biso   1.000  Cd
  H1       1.0000 0.40810  0.86880  0.13560  Biso   1.000  H
  H2       1.0000 0.40990  0.66550  0.11610  Biso   1.000  H
  H3       1.0000 0.51180  0.74820  0.23170  Biso   1.000  H
  H4       1.0000 0.50020  0.73600  0.38390  Biso   1.000  H
  H5       1.0000 0.47080  0.81080  0.38020  Biso   1.000  H
  H6       1.0000 0.43030  0.75430  0.41010  Biso   1.000  H
  H7       1.0000 0.34320  0.81360  0.32820  Biso   1.000  H
  H8       1.0000 0.36790  0.77910  0.27770  Biso   1.000  H
  H9       1.0000 0.32370  0.73710  0.31650  Biso   1.000  H
  H10      1.0000 0.09190  0.63120  0.13560  Biso   1.000  H
  H11      1.0000 0.09010  0.83450  0.11610  Biso   1.000  H
  H12      1.0000 0.98820  0.75180  0.23170  Biso   1.000  H
  H13      1.0000 0.99980  0.76400  0.38390  Biso   1.000  H
  H14      1.0000 0.02920  0.68920  0.38020  Biso   1.000  H
  H15      1.0000 0.06970  0.74570  0.41010  Biso   1.000  H
  H16      1.0000 0.15680  0.68640  0.32820  Biso   1.000  H
  H17      1.0000 0.13210  0.72090  0.27770  Biso   1.000  H
  H18      1.0000 0.17630  0.76290  0.31650  Biso   1.000  H
  H19      1.0000 0.63120  0.40810  0.63560  Biso   1.000  H
  H20      1.0000 0.83450  0.40990  0.61610  Biso   1.000  H
  H21      1.0000 0.75180  0.51180  0.73170  Biso   1.000  H
  H22      1.0000 0.76400  0.50020  0.88390  Biso   1.000  H
  H23      1.0000 0.68920  0.47080  0.88020  Biso   1.000  H
  H24      1.0000 0.74570  0.43030  0.91010  Biso   1.000  H
  H25      1.0000 0.68640  0.34320  0.82820  Biso   1.000  H
  H26      1.0000 0.72090  0.36790  0.77770  Biso   1.000  H
  H27      1.0000 0.76290  0.32370  0.81650  Biso   1.000  H
  H28      1.0000 0.86880  0.09190  0.63560  Biso   1.000  H
  H29      1.0000 0.66550  0.09010  0.61610  Biso   1.000  H
  H30      1.0000 0.74820  0.98820  0.73170  Biso   1.000  H
  H31      1.0000 0.73600  0.99980  0.88390  Biso   1.000  H
  H32      1.0000 0.81080  0.02920  0.88020  Biso   1.000  H
  H33      1.0000 0.75430  0.06970  0.91010  Biso   1.000  H
  H34      1.0000 0.81360  0.15680  0.82820  Biso   1.000  H
  H35      1.0000 0.77910  0.13210  0.77770  Biso   1.000  H
  H36      1.0000 0.73710  0.17630  0.81650  Biso   1.000  H
  H37      1.0000 0.59190  0.36880  0.36440  Biso   1.000  H
  H38      1.0000 0.59010  0.16550  0.38390  Biso   1.000  H
  H39      1.0000 0.48820  0.24820  0.26830  Biso   1.000  H
  H40      1.0000 0.49980  0.23600  0.11610  Biso   1.000  H
  H41      1.0000 0.52920  0.31080  0.11980  Biso   1.000  H
  H42      1.0000 0.56970  0.25430  0.08990  Biso   1.000  H
  H43      1.0000 0.65680  0.31360  0.17180  Biso   1.000  H
  H44      1.0000 0.63210  0.27910  0.22230  Biso   1.000  H
  H45      1.0000 0.67630  0.23710  0.18350  Biso   1.000  H
  H46      1.0000 0.90810  0.13120  0.36440  Biso   1.000  H
  H47      1.0000 0.90990  0.33450  0.38390  Biso   1.000  H
  H48      1.0000 0.01180  0.25180  0.26830  Biso   1.000  H
  H49      1.0000 0.00020  0.26400  0.11610  Biso   1.000  H
  H50      1.0000 0.97080  0.18920  0.11980  Biso   1.000  H
  H51      1.0000 0.93030  0.24570  0.08990  Biso   1.000  H
  H52      1.0000 0.84320  0.18640  0.17180  Biso   1.000  H
  H53      1.0000 0.86790  0.22090  0.22230  Biso   1.000  H
  H54      1.0000 0.82370  0.26290  0.18350  Biso   1.000  H
  H55      1.0000 0.36880  0.90810  0.86440  Biso   1.000  H
  H56      1.0000 0.16550  0.90990  0.88390  Biso   1.000  H
  H57      1.0000 0.24820  0.01180  0.76830  Biso   1.000  H
  H58      1.0000 0.23600  0.00020  0.61610  Biso   1.000  H
  H59      1.0000 0.31080  0.97080  0.61980  Biso   1.000  H
  H60      1.0000 0.25430  0.93030  0.58990  Biso   1.000  H
  H61      1.0000 0.31360  0.84320  0.67180  Biso   1.000  H
  H62      1.0000 0.27910  0.86790  0.72230  Biso   1.000  H
  H63      1.0000 0.23710  0.82370  0.68350  Biso   1.000  H
  H64      1.0000 0.13120  0.59190  0.86440  Biso   1.000  H
  H65      1.0000 0.33450  0.59010  0.88390  Biso   1.000  H
  H66      1.0000 0.25180  0.48820  0.76830  Biso   1.000  H
  H67      1.0000 0.26400  0.49980  0.61610  Biso   1.000  H
  H68      1.0000 0.18920  0.52920  0.61980  Biso   1.000  H
  H69      1.0000 0.24570  0.56970  0.58990  Biso   1.000  H
  H70      1.0000 0.18640  0.65680  0.67180  Biso   1.000  H
  H71      1.0000 0.22090  0.63210  0.72230  Biso   1.000  H
  H72      1.0000 0.26290  0.67630  0.68350  Biso   1.000  H
  H73      1.0000 0.59190  0.13120  0.86440  Biso   1.000  H
  H74      1.0000 0.59010  0.33450  0.88390  Biso   1.000  H
  H75      1.0000 0.48820  0.25180  0.76830  Biso   1.000  H
  H76      1.0000 0.49980  0.26400  0.61610  Biso   1.000  H
  H77      1.0000 0.52920  0.18920  0.61980  Biso   1.000  H
  H78      1.0000 0.56970  0.24570  0.58990  Biso   1.000  H
  H79      1.0000 0.65680  0.18640  0.67180  Biso   1.000  H
  H80      1.0000 0.63210  0.22090  0.72230  Biso   1.000  H
  H81      1.0000 0.67630  0.26290  0.68350  Biso   1.000  H
  H82      1.0000 0.90810  0.36880  0.86440  Biso   1.000  H
  H83      1.0000 0.90990  0.16550  0.88390  Biso   1.000  H
  H84      1.0000 0.01180  0.24820  0.76830  Biso   1.000  H
  H85      1.0000 0.00020  0.23600  0.61610  Biso   1.000  H
  H86      1.0000 0.97080  0.31080  0.61980  Biso   1.000  H
  H87      1.0000 0.93030  0.25430  0.58990  Biso   1.000  H
  H88      1.0000 0.84320  0.31360  0.67180  Biso   1.000  H
  H89      1.0000 0.86790  0.27910  0.72230  Biso   1.000  H
  H90      1.0000 0.82370  0.23710  0.68350  Biso   1.000  H
  H91      1.0000 0.36880  0.59190  0.36440  Biso   1.000  H
  H92      1.0000 0.16550  0.59010  0.38390  Biso   1.000  H
  H93      1.0000 0.24820  0.48820  0.26830  Biso   1.000  H
  H94      1.0000 0.23600  0.49980  0.11610  Biso   1.000  H
  H95      1.0000 0.31080  0.52920  0.11980  Biso   1.000  H
  H96      1.0000 0.25430  0.56970  0.08990  Biso   1.000  H
  H97      1.0000 0.31360  0.65680  0.17180  Biso   1.000  H
  H98      1.0000 0.27910  0.63210  0.22230  Biso   1.000  H
  H99      1.0000 0.23710  0.67630  0.18350  Biso   1.000  H
  H100     1.0000 0.13120  0.90810  0.36440  Biso   1.000  H
  H101     1.0000 0.33450  0.90990  0.38390  Biso   1.000  H
  H102     1.0000 0.25180  0.01180  0.26830  Biso   1.000  H
  H103     1.0000 0.26400  0.00020  0.11610  Biso   1.000  H
  H104     1.0000 0.18920  0.97080  0.11980  Biso   1.000  H
  H105     1.0000 0.24570  0.93030  0.08990  Biso   1.000  H
  H106     1.0000 0.18640  0.84320  0.17180  Biso   1.000  H
  H107     1.0000 0.22090  0.86790  0.22230  Biso   1.000  H
  H108     1.0000 0.26290  0.82370  0.18350  Biso   1.000  H
  H109     1.0000 0.40810  0.63120  0.63560  Biso   1.000  H
  H110     1.0000 0.40990  0.83450  0.61610  Biso   1.000  H
  H111     1.0000 0.51180  0.75180  0.73170  Biso   1.000  H
  H112     1.0000 0.50020  0.76400  0.88390  Biso   1.000  H
  H113     1.0000 0.47080  0.68920  0.88020  Biso   1.000  H
  H114     1.0000 0.43030  0.74570  0.91010  Biso   1.000  H
  H115     1.0000 0.34320  0.68640  0.82820  Biso   1.000  H
  H116     1.0000 0.36790  0.72090  0.77770  Biso   1.000  H
  H117     1.0000 0.32370  0.76290  0.81650  Biso   1.000  H
  H118     1.0000 0.09190  0.86880  0.63560  Biso   1.000  H
  H119     1.0000 0.09010  0.66550  0.61610  Biso   1.000  H
  H120     1.0000 0.98820  0.74820  0.73170  Biso   1.000  H
  H121     1.0000 0.99980  0.73600  0.88390  Biso   1.000  H
  H122     1.0000 0.02920  0.81080  0.88020  Biso   1.000  H
  H123     1.0000 0.06970  0.75430  0.91010  Biso   1.000  H
  H124     1.0000 0.15680  0.81360  0.82820  Biso   1.000  H
  H125     1.0000 0.13210  0.77910  0.77770  Biso   1.000  H
  H126     1.0000 0.17630  0.73710  0.81650  Biso   1.000  H
  H127     1.0000 0.63120  0.09190  0.13560  Biso   1.000  H
  H128     1.0000 0.83450  0.09010  0.11610  Biso   1.000  H
  H129     1.0000 0.75180  0.98820  0.23170  Biso   1.000  H
  H130     1.0000 0.76400  0.99980  0.38390  Biso   1.000  H
  H131     1.0000 0.68920  0.02920  0.38020  Biso   1.000  H
  H132     1.0000 0.74570  0.06970  0.41010  Biso   1.000  H
  H133     1.0000 0.68640  0.15680  0.32820  Biso   1.000  H
  H134     1.0000 0.72090  0.13210  0.27770  Biso   1.000  H
  H135     1.0000 0.76290  0.17630  0.31650  Biso   1.000  H
  H136     1.0000 0.86880  0.40810  0.13560  Biso   1.000  H
  H137     1.0000 0.66550  0.40990  0.11610  Biso   1.000  H
  H138     1.0000 0.74820  0.51180  0.23170  Biso   1.000  H
  H139     1.0000 0.73600  0.50020  0.38390  Biso   1.000  H
  H140     1.0000 0.81080  0.47080  0.38020  Biso   1.000  H
  H141     1.0000 0.75430  0.43030  0.41010  Biso   1.000  H
  H142     1.0000 0.81360  0.34320  0.32820  Biso   1.000  H
  H143     1.0000 0.77910  0.36790  0.27770  Biso   1.000  H
  H144     1.0000 0.73710  0.32370  0.31650  Biso   1.000  H
  C1       1.0000 0.48340  0.62530  0.19410  Biso   1.000  C
  C2       1.0000 0.42160  0.82520  0.14600  Biso   1.000  C
  C3       1.0000 0.42310  0.70420  0.13440  Biso   1.000  C
  C4       1.0000 0.40080  0.76800  0.11890  Biso   1.000  C
  C5       1.0000 0.48290  0.88030  0.21910  Biso   1.000  C
  C6       1.0000 0.35180  0.77540  0.07570  Biso   1.000  C
  C7       1.0000 0.46250  0.81760  0.18860  Biso   1.000  C
  C8       1.0000 0.46420  0.69650  0.17590  Biso   1.000  C
  C9       1.0000 0.48400  0.75330  0.20330  Biso   1.000  C
  C10      1.0000 0.45140  0.68890  0.32160  Biso   1.000  C
  C11      1.0000 0.45900  0.76290  0.38130  Biso   1.000  C
  C12      1.0000 0.35900  0.77150  0.31300  Biso   1.000  C
  C13      1.0000 0.01660  0.87470  0.19410  Biso   1.000  C
  C14      1.0000 0.07840  0.67480  0.14600  Biso   1.000  C
  C15      1.0000 0.07690  0.79580  0.13440  Biso   1.000  C
  C16      1.0000 0.09920  0.73200  0.11890  Biso   1.000  C
  C17      1.0000 0.01710  0.61970  0.21910  Biso   1.000  C
  C18      1.0000 0.14820  0.72460  0.07570  Biso   1.000  C
  C19      1.0000 0.03750  0.68240  0.18860  Biso   1.000  C
  C20      1.0000 0.03580  0.80350  0.17590  Biso   1.000  C
  C21      1.0000 0.01600  0.74670  0.20330  Biso   1.000  C
  C22      1.0000 0.04860  0.81110  0.32160  Biso   1.000  C
  C23      1.0000 0.04100  0.73710  0.38130  Biso   1.000  C
  C24      1.0000 0.14100  0.72850  0.31300  Biso   1.000  C
  C25      1.0000 0.87470  0.48340  0.69410  Biso   1.000  C
  C26      1.0000 0.67480  0.42160  0.64600  Biso   1.000  C
  C27      1.0000 0.79580  0.42310  0.63440  Biso   1.000  C
  C28      1.0000 0.73200  0.40080  0.61890  Biso   1.000  C
  C29      1.0000 0.61970  0.48290  0.71910  Biso   1.000  C
  C30      1.0000 0.72460  0.35180  0.57570  Biso   1.000  C
  C31      1.0000 0.68240  0.46250  0.68860  Biso   1.000  C
  C32      1.0000 0.80350  0.46420  0.67590  Biso   1.000  C
  C33      1.0000 0.74670  0.48400  0.70330  Biso   1.000  C
  C34      1.0000 0.81110  0.45140  0.82160  Biso   1.000  C
  C35      1.0000 0.73710  0.45900  0.88130  Biso   1.000  C
  C36      1.0000 0.72850  0.35900  0.81300  Biso   1.000  C
  C37      1.0000 0.62530  0.01660  0.69410  Biso   1.000  C
  C38      1.0000 0.82520  0.07840  0.64600  Biso   1.000  C
  C39      1.0000 0.70420  0.07690  0.63440  Biso   1.000  C
  C40      1.0000 0.76800  0.09920  0.61890  Biso   1.000  C
  C41      1.0000 0.88030  0.01710  0.71910  Biso   1.000  C
  C42      1.0000 0.77540  0.14820  0.57570  Biso   1.000  C
  C43      1.0000 0.81760  0.03750  0.68860  Biso   1.000  C
  C44      1.0000 0.69650  0.03580  0.67590  Biso   1.000  C
  C45      1.0000 0.75330  0.01600  0.70330  Biso   1.000  C
  C46      1.0000 0.68890  0.04860  0.82160  Biso   1.000  C
  C47      1.0000 0.76290  0.04100  0.88130  Biso   1.000  C
  C48      1.0000 0.77150  0.14100  0.81300  Biso   1.000  C
  C49      1.0000 0.51660  0.12530  0.30590  Biso   1.000  C
  C50      1.0000 0.57840  0.32520  0.35400  Biso   1.000  C
  C51      1.0000 0.57690  0.20420  0.36560  Biso   1.000  C
  C52      1.0000 0.59920  0.26800  0.38110  Biso   1.000  C
  C53      1.0000 0.51710  0.38030  0.28090  Biso   1.000  C
  C54      1.0000 0.64820  0.27540  0.42430  Biso   1.000  C
  C55      1.0000 0.53750  0.31760  0.31140  Biso   1.000  C
  C56      1.0000 0.53580  0.19650  0.32410  Biso   1.000  C
  C57      1.0000 0.51600  0.25330  0.29670  Biso   1.000  C
  C58      1.0000 0.54860  0.18890  0.17840  Biso   1.000  C
  C59      1.0000 0.54100  0.26290  0.11870  Biso   1.000  C
  C60      1.0000 0.64100  0.27150  0.18700  Biso   1.000  C
  C61      1.0000 0.98340  0.37470  0.30590  Biso   1.000  C
  C62      1.0000 0.92160  0.17480  0.35400  Biso   1.000  C
  C63      1.0000 0.92310  0.29580  0.36560  Biso   1.000  C
  C64      1.0000 0.90080  0.23200  0.38110  Biso   1.000  C
  C65      1.0000 0.98290  0.11970  0.28090  Biso   1.000  C
  C66      1.0000 0.85180  0.22460  0.42430  Biso   1.000  C
  C67      1.0000 0.96250  0.18240  0.31140  Biso   1.000  C
  C68      1.0000 0.96420  0.30350  0.32410  Biso   1.000  C
  C69      1.0000 0.98400  0.24670  0.29670  Biso   1.000  C
  C70      1.0000 0.95140  0.31110  0.17840  Biso   1.000  C
  C71      1.0000 0.95900  0.23710  0.11870  Biso   1.000  C
  C72      1.0000 0.85900  0.22850  0.18700  Biso   1.000  C
  C73      1.0000 0.12530  0.98340  0.80590  Biso   1.000  C
  C74      1.0000 0.32520  0.92160  0.85400  Biso   1.000  C
  C75      1.0000 0.20420  0.92310  0.86560  Biso   1.000  C
  C76      1.0000 0.26800  0.90080  0.88110  Biso   1.000  C
  C77      1.0000 0.38030  0.98290  0.78090  Biso   1.000  C
  C78      1.0000 0.27540  0.85180  0.92430  Biso   1.000  C
  C79      1.0000 0.31760  0.96250  0.81140  Biso   1.000  C
  C80      1.0000 0.19650  0.96420  0.82410  Biso   1.000  C
  C81      1.0000 0.25330  0.98400  0.79670  Biso   1.000  C
  C82      1.0000 0.18890  0.95140  0.67840  Biso   1.000  C
  C83      1.0000 0.26290  0.95900  0.61870  Biso   1.000  C
  C84      1.0000 0.27150  0.85900  0.68700  Biso   1.000  C
  C85      1.0000 0.37470  0.51660  0.80590  Biso   1.000  C
  C86      1.0000 0.17480  0.57840  0.85400  Biso   1.000  C
  C87      1.0000 0.29580  0.57690  0.86560  Biso   1.000  C
  C88      1.0000 0.23200  0.59920  0.88110  Biso   1.000  C
  C89      1.0000 0.11970  0.51710  0.78090  Biso   1.000  C
  C90      1.0000 0.22460  0.64820  0.92430  Biso   1.000  C
  C91      1.0000 0.18240  0.53750  0.81140  Biso   1.000  C
  C92      1.0000 0.30350  0.53580  0.82410  Biso   1.000  C
  C93      1.0000 0.24670  0.51600  0.79670  Biso   1.000  C
  C94      1.0000 0.31110  0.54860  0.67840  Biso   1.000  C
  C95      1.0000 0.23710  0.54100  0.61870  Biso   1.000  C
  C96      1.0000 0.22850  0.64100  0.68700  Biso   1.000  C
  C97      1.0000 0.51660  0.37470  0.80590  Biso   1.000  C
  C98      1.0000 0.57840  0.17480  0.85400  Biso   1.000  C
  C99      1.0000 0.57690  0.29580  0.86560  Biso   1.000  C
  C100     1.0000 0.59920  0.23200  0.88110  Biso   1.000  C
  C101     1.0000 0.51710  0.11970  0.78090  Biso   1.000  C
  C102     1.0000 0.64820  0.22460  0.92430  Biso   1.000  C
  C103     1.0000 0.53750  0.18240  0.81140  Biso   1.000  C
  C104     1.0000 0.53580  0.30350  0.82410  Biso   1.000  C
  C105     1.0000 0.51600  0.24670  0.79670  Biso   1.000  C
  C106     1.0000 0.54860  0.31110  0.67840  Biso   1.000  C
  C107     1.0000 0.54100  0.23710  0.61870  Biso   1.000  C
  C108     1.0000 0.64100  0.22850  0.68700  Biso   1.000  C
  C109     1.0000 0.98340  0.12530  0.80590  Biso   1.000  C
  C110     1.0000 0.92160  0.32520  0.85400  Biso   1.000  C
  C111     1.0000 0.92310  0.20420  0.86560  Biso   1.000  C
  C112     1.0000 0.90080  0.26800  0.88110  Biso   1.000  C
  C113     1.0000 0.98290  0.38030  0.78090  Biso   1.000  C
  C114     1.0000 0.85180  0.27540  0.92430  Biso   1.000  C
  C115     1.0000 0.96250  0.31760  0.81140  Biso   1.000  C
  C116     1.0000 0.96420  0.19650  0.82410  Biso   1.000  C
  C117     1.0000 0.98400  0.25330  0.79670  Biso   1.000  C
  C118     1.0000 0.95140  0.18890  0.67840  Biso   1.000  C
  C119     1.0000 0.95900  0.26290  0.61870  Biso   1.000  C
  C120     1.0000 0.85900  0.27150  0.68700  Biso   1.000  C
  C121     1.0000 0.12530  0.51660  0.30590  Biso   1.000  C
  C122     1.0000 0.32520  0.57840  0.35400  Biso   1.000  C
  C123     1.0000 0.20420  0.57690  0.36560  Biso   1.000  C
  C124     1.0000 0.26800  0.59920  0.38110  Biso   1.000  C
  C125     1.0000 0.38030  0.51710  0.28090  Biso   1.000  C
  C126     1.0000 0.27540  0.64820  0.42430  Biso   1.000  C
  C127     1.0000 0.31760  0.53750  0.31140  Biso   1.000  C
  C128     1.0000 0.19650  0.53580  0.32410  Biso   1.000  C
  C129     1.0000 0.25330  0.51600  0.29670  Biso   1.000  C
  C130     1.0000 0.18890  0.54860  0.17840  Biso   1.000  C
  C131     1.0000 0.26290  0.54100  0.11870  Biso   1.000  C
  C132     1.0000 0.27150  0.64100  0.18700  Biso   1.000  C
  C133     1.0000 0.37470  0.98340  0.30590  Biso   1.000  C
  C134     1.0000 0.17480  0.92160  0.35400  Biso   1.000  C
  C135     1.0000 0.29580  0.92310  0.36560  Biso   1.000  C
  C136     1.0000 0.23200  0.90080  0.38110  Biso   1.000  C
  C137     1.0000 0.11970  0.98290  0.28090  Biso   1.000  C
  C138     1.0000 0.22460  0.85180  0.42430  Biso   1.000  C
  C139     1.0000 0.18240  0.96250  0.31140  Biso   1.000  C
  C140     1.0000 0.30350  0.96420  0.32410  Biso   1.000  C
  C141     1.0000 0.24670  0.98400  0.29670  Biso   1.000  C
  C142     1.0000 0.31110  0.95140  0.17840  Biso   1.000  C
  C143     1.0000 0.23710  0.95900  0.11870  Biso   1.000  C
  C144     1.0000 0.22850  0.85900  0.18700  Biso   1.000  C
  C145     1.0000 0.48340  0.87470  0.69410  Biso   1.000  C
  C146     1.0000 0.42160  0.67480  0.64600  Biso   1.000  C
  C147     1.0000 0.42310  0.79580  0.63440  Biso   1.000  C
  C148     1.0000 0.40080  0.73200  0.61890  Biso   1.000  C
  C149     1.0000 0.48290  0.61970  0.71910  Biso   1.000  C
  C150     1.0000 0.35180  0.72460  0.57570  Biso   1.000  C
  C151     1.0000 0.46250  0.68240  0.68860  Biso   1.000  C
  C152     1.0000 0.46420  0.80350  0.67590  Biso   1.000  C
  C153     1.0000 0.48400  0.74670  0.70330  Biso   1.000  C
  C154     1.0000 0.45140  0.81110  0.82160  Biso   1.000  C
  C155     1.0000 0.45900  0.73710  0.88130  Biso   1.000  C
  C156     1.0000 0.35900  0.72850  0.81300  Biso   1.000  C
  C157     1.0000 0.01660  0.62530  0.69410  Biso   1.000  C
  C158     1.0000 0.07840  0.82520  0.64600  Biso   1.000  C
  C159     1.0000 0.07690  0.70420  0.63440  Biso   1.000  C
  C160     1.0000 0.09920  0.76800  0.61890  Biso   1.000  C
  C161     1.0000 0.01710  0.88030  0.71910  Biso   1.000  C
  C162     1.0000 0.14820  0.77540  0.57570  Biso   1.000  C
  C163     1.0000 0.03750  0.81760  0.68860  Biso   1.000  C
  C164     1.0000 0.03580  0.69650  0.67590  Biso   1.000  C
  C165     1.0000 0.01600  0.75330  0.70330  Biso   1.000  C
  C166     1.0000 0.04860  0.68890  0.82160  Biso   1.000  C
  C167     1.0000 0.04100  0.76290  0.88130  Biso   1.000  C
  C168     1.0000 0.14100  0.77150  0.81300  Biso   1.000  C
  C169     1.0000 0.87470  0.01660  0.19410  Biso   1.000  C
  C170     1.0000 0.67480  0.07840  0.14600  Biso   1.000  C
  C171     1.0000 0.79580  0.07690  0.13440  Biso   1.000  C
  C172     1.0000 0.73200  0.09920  0.11890  Biso   1.000  C
  C173     1.0000 0.61970  0.01710  0.21910  Biso   1.000  C
  C174     1.0000 0.72460  0.14820  0.07570  Biso   1.000  C
  C175     1.0000 0.68240  0.03750  0.18860  Biso   1.000  C
  C176     1.0000 0.80350  0.03580  0.17590  Biso   1.000  C
  C177     1.0000 0.74670  0.01600  0.20330  Biso   1.000  C
  C178     1.0000 0.81110  0.04860  0.32160  Biso   1.000  C
  C179     1.0000 0.73710  0.04100  0.38130  Biso   1.000  C
  C180     1.0000 0.72850  0.14100  0.31300  Biso   1.000  C
  C181     1.0000 0.62530  0.48340  0.19410  Biso   1.000  C
  C182     1.0000 0.82520  0.42160  0.14600  Biso   1.000  C
  C183     1.0000 0.70420  0.42310  0.13440  Biso   1.000  C
  C184     1.0000 0.76800  0.40080  0.11890  Biso   1.000  C
  C185     1.0000 0.88030  0.48290  0.21910  Biso   1.000  C
  C186     1.0000 0.77540  0.35180  0.07570  Biso   1.000  C
  C187     1.0000 0.81760  0.46250  0.18860  Biso   1.000  C
  C188     1.0000 0.69650  0.46420  0.17590  Biso   1.000  C
  C189     1.0000 0.75330  0.48400  0.20330  Biso   1.000  C
  C190     1.0000 0.68890  0.45140  0.32160  Biso   1.000  C
  C191     1.0000 0.76290  0.45900  0.38130  Biso   1.000  C
  C192     1.0000 0.77150  0.35900  0.31300  Biso   1.000  C
  N1       1.0000 0.42660  0.74650  0.34040  Biso   1.000  N
  N2       1.0000 0.07340  0.75350  0.34040  Biso   1.000  N
  N3       1.0000 0.75350  0.42660  0.84040  Biso   1.000  N
  N4       1.0000 0.74650  0.07340  0.84040  Biso   1.000  N
  N5       1.0000 0.57340  0.24650  0.15960  Biso   1.000  N
  N6       1.0000 0.92660  0.25350  0.15960  Biso   1.000  N
  N7       1.0000 0.24650  0.92660  0.65960  Biso   1.000  N
  N8       1.0000 0.25350  0.57340  0.65960  Biso   1.000  N
  N9       1.0000 0.57340  0.25350  0.65960  Biso   1.000  N
  N10      1.0000 0.92660  0.24650  0.65960  Biso   1.000  N
  N11      1.0000 0.24650  0.57340  0.15960  Biso   1.000  N
  N12      1.0000 0.25350  0.92660  0.15960  Biso   1.000  N
  N13      1.0000 0.42660  0.75350  0.84040  Biso   1.000  N
  N14      1.0000 0.07340  0.74650  0.84040  Biso   1.000  N
  N15      1.0000 0.75350  0.07340  0.34040  Biso   1.000  N
  N16      1.0000 0.74650  0.42660  0.34040  Biso   1.000  N
  O1       1.0000 0.46080  0.57560  0.16930  Biso   1.000  O
  O2       1.0000 0.51810  0.62000  0.23260  Biso   1.000  O
  O3       1.0000 0.33510  0.72060  0.05160  Biso   1.000  O
  O4       1.0000 0.46150  0.93730  0.20560  Biso   1.000  O
  O5       1.0000 0.51700  0.86970  0.25930  Biso   1.000  O
  O6       1.0000 0.32850  0.83180  0.06410  Biso   1.000  O
  O7       1.0000 0.50590  0.66080  0.33700  Biso   1.000  O
  O8       1.0000 0.03920  0.92440  0.16930  Biso   1.000  O
  O9       1.0000 0.98190  0.88000  0.23260  Biso   1.000  O
  O10      1.0000 0.16490  0.77940  0.05160  Biso   1.000  O
  O11      1.0000 0.03850  0.56270  0.20560  Biso   1.000  O
  O12      1.0000 0.98300  0.63030  0.25930  Biso   1.000  O
  O13      1.0000 0.17150  0.66820  0.06410  Biso   1.000  O
  O14      1.0000 0.99410  0.83920  0.33700  Biso   1.000  O
  O15      1.0000 0.92440  0.46080  0.66930  Biso   1.000  O
  O16      1.0000 0.88000  0.51810  0.73260  Biso   1.000  O
  O17      1.0000 0.77940  0.33510  0.55160  Biso   1.000  O
  O18      1.0000 0.56270  0.46150  0.70560  Biso   1.000  O
  O19      1.0000 0.63030  0.51700  0.75930  Biso   1.000  O
  O20      1.0000 0.66820  0.32850  0.56410  Biso   1.000  O
  O21      1.0000 0.83920  0.50590  0.83700  Biso   1.000  O
  O22      1.0000 0.57560  0.03920  0.66930  Biso   1.000  O
  O23      1.0000 0.62000  0.98190  0.73260  Biso   1.000  O
  O24      1.0000 0.72060  0.16490  0.55160  Biso   1.000  O
  O25      1.0000 0.93730  0.03850  0.70560  Biso   1.000  O
  O26      1.0000 0.86970  0.98300  0.75930  Biso   1.000  O
  O27      1.0000 0.83180  0.17150  0.56410  Biso   1.000  O
  O28      1.0000 0.66080  0.99410  0.83700  Biso   1.000  O
  O29      1.0000 0.53920  0.07560  0.33070  Biso   1.000  O
  O30      1.0000 0.48190  0.12000  0.26740  Biso   1.000  O
  O31      1.0000 0.66490  0.22060  0.44840  Biso   1.000  O
  O32      1.0000 0.53850  0.43730  0.29440  Biso   1.000  O
  O33      1.0000 0.48300  0.36970  0.24070  Biso   1.000  O
  O34      1.0000 0.67150  0.33180  0.43590  Biso   1.000  O
  O35      1.0000 0.49410  0.16080  0.16300  Biso   1.000  O
  O36      1.0000 0.96080  0.42440  0.33070  Biso   1.000  O
  O37      1.0000 0.01810  0.38000  0.26740  Biso   1.000  O
  O38      1.0000 0.83510  0.27940  0.44840  Biso   1.000  O
  O39      1.0000 0.96150  0.06270  0.29440  Biso   1.000  O
  O40      1.0000 0.01700  0.13030  0.24070  Biso   1.000  O
  O41      1.0000 0.82850  0.16820  0.43590  Biso   1.000  O
  O42      1.0000 0.00590  0.33920  0.16300  Biso   1.000  O
  O43      1.0000 0.07560  0.96080  0.83070  Biso   1.000  O
  O44      1.0000 0.12000  0.01810  0.76740  Biso   1.000  O
  O45      1.0000 0.22060  0.83510  0.94840  Biso   1.000  O
  O46      1.0000 0.43730  0.96150  0.79440  Biso   1.000  O
  O47      1.0000 0.36970  0.01700  0.74070  Biso   1.000  O
  O48      1.0000 0.33180  0.82850  0.93590  Biso   1.000  O
  O49      1.0000 0.16080  0.00590  0.66300  Biso   1.000  O
  O50      1.0000 0.42440  0.53920  0.83070  Biso   1.000  O
  O51      1.0000 0.38000  0.48190  0.76740  Biso   1.000  O
  O52      1.0000 0.27940  0.66490  0.94840  Biso   1.000  O
  O53      1.0000 0.06270  0.53850  0.79440  Biso   1.000  O
  O54      1.0000 0.13030  0.48300  0.74070  Biso   1.000  O
  O55      1.0000 0.16820  0.67150  0.93590  Biso   1.000  O
  O56      1.0000 0.33920  0.49410  0.66300  Biso   1.000  O
  O57      1.0000 0.53920  0.42440  0.83070  Biso   1.000  O
  O58      1.0000 0.48190  0.38000  0.76740  Biso   1.000  O
  O59      1.0000 0.66490  0.27940  0.94840  Biso   1.000  O
  O60      1.0000 0.53850  0.06270  0.79440  Biso   1.000  O
  O61      1.0000 0.48300  0.13030  0.74070  Biso   1.000  O
  O62      1.0000 0.67150  0.16820  0.93590  Biso   1.000  O
  O63      1.0000 0.49410  0.33920  0.66300  Biso   1.000  O
  O64      1.0000 0.96080  0.07560  0.83070  Biso   1.000  O
  O65      1.0000 0.01810  0.12000  0.76740  Biso   1.000  O
  O66      1.0000 0.83510  0.22060  0.94840  Biso   1.000  O
  O67      1.0000 0.96150  0.43730  0.79440  Biso   1.000  O
  O68      1.0000 0.01700  0.36970  0.74070  Biso   1.000  O
  O69      1.0000 0.82850  0.33180  0.93590  Biso   1.000  O
  O70      1.0000 0.00590  0.16080  0.66300  Biso   1.000  O
  O71      1.0000 0.07560  0.53920  0.33070  Biso   1.000  O
  O72      1.0000 0.12000  0.48190  0.26740  Biso   1.000  O
  O73      1.0000 0.22060  0.66490  0.44840  Biso   1.000  O
  O74      1.0000 0.43730  0.53850  0.29440  Biso   1.000  O
  O75      1.0000 0.36970  0.48300  0.24070  Biso   1.000  O
  O76      1.0000 0.33180  0.67150  0.43590  Biso   1.000  O
  O77      1.0000 0.16080  0.49410  0.16300  Biso   1.000  O
  O78      1.0000 0.42440  0.96080  0.33070  Biso   1.000  O
  O79      1.0000 0.38000  0.01810  0.26740  Biso   1.000  O
  O80      1.0000 0.27940  0.83510  0.44840  Biso   1.000  O
  O81      1.0000 0.06270  0.96150  0.29440  Biso   1.000  O
  O82      1.0000 0.13030  0.01700  0.24070  Biso   1.000  O
  O83      1.0000 0.16820  0.82850  0.43590  Biso   1.000  O
  O84      1.0000 0.33920  0.00590  0.16300  Biso   1.000  O
  O85      1.0000 0.46080  0.92440  0.66930  Biso   1.000  O
  O86      1.0000 0.51810  0.88000  0.73260  Biso   1.000  O
  O87      1.0000 0.33510  0.77940  0.55160  Biso   1.000  O
  O88      1.0000 0.46150  0.56270  0.70560  Biso   1.000  O
  O89      1.0000 0.51700  0.63030  0.75930  Biso   1.000  O
  O90      1.0000 0.32850  0.66820  0.56410  Biso   1.000  O
  O91      1.0000 0.50590  0.83920  0.83700  Biso   1.000  O
  O92      1.0000 0.03920  0.57560  0.66930  Biso   1.000  O
  O93      1.0000 0.98190  0.62000  0.73260  Biso   1.000  O
  O94      1.0000 0.16490  0.72060  0.55160  Biso   1.000  O
  O95      1.0000 0.03850  0.93730  0.70560  Biso   1.000  O
  O96      1.0000 0.98300  0.86970  0.75930  Biso   1.000  O
  O97      1.0000 0.17150  0.83180  0.56410  Biso   1.000  O
  O98      1.0000 0.99410  0.66080  0.83700  Biso   1.000  O
  O99      1.0000 0.92440  0.03920  0.16930  Biso   1.000  O
  O100     1.0000 0.88000  0.98190  0.23260  Biso   1.000  O
  O101     1.0000 0.77940  0.16490  0.05160  Biso   1.000  O
  O102     1.0000 0.56270  0.03850  0.20560  Biso   1.000  O
  O103     1.0000 0.63030  0.98300  0.25930  Biso   1.000  O
  O104     1.0000 0.66820  0.17150  0.06410  Biso   1.000  O
  O105     1.0000 0.83920  0.99410  0.33700  Biso   1.000  O
  O106     1.0000 0.57560  0.46080  0.16930  Biso   1.000  O
  O107     1.0000 0.62000  0.51810  0.23260  Biso   1.000  O
  O108     1.0000 0.72060  0.33510  0.05160  Biso   1.000  O
  O109     1.0000 0.93730  0.46150  0.20560  Biso   1.000  O
  O110     1.0000 0.86970  0.51700  0.25930  Biso   1.000  O
  O111     1.0000 0.83180  0.32850  0.06410  Biso   1.000  O
  O112     1.0000 0.66080  0.50590  0.33700  Biso   1.000  O
  O113     1.0000 0.53640  0.53640  0.39040  Biso   1.000  O
  O114     1.0000 0.64260  0.64260  0.30050  Biso   1.000  O
  O115     1.0000 0.41110  0.41110  0.13200  Biso   1.000  O
  O116     1.0000 0.96360  0.96360  0.39040  Biso   1.000  O
  O117     1.0000 0.85740  0.85740  0.30050  Biso   1.000  O
  O118     1.0000 0.08890  0.08890  0.13200  Biso   1.000  O
  O119     1.0000 0.96360  0.53640  0.89040  Biso   1.000  O
  O120     1.0000 0.85740  0.64260  0.80050  Biso   1.000  O
  O121     1.0000 0.08890  0.41110  0.63200  Biso   1.000  O
  O122     1.0000 0.53640  0.96360  0.89040  Biso   1.000  O
  O123     1.0000 0.64260  0.85740  0.80050  Biso   1.000  O
  O124     1.0000 0.41110  0.08890  0.63200  Biso   1.000  O
  O125     1.0000 0.46360  0.03640  0.10960  Biso   1.000  O
  O126     1.0000 0.35740  0.14260  0.19950  Biso   1.000  O
  O127     1.0000 0.58890  0.91110  0.36800  Biso   1.000  O
  O128     1.0000 0.03640  0.46360  0.10960  Biso   1.000  O
  O129     1.0000 0.14260  0.35740  0.19950  Biso   1.000  O
  O130     1.0000 0.91110  0.58890  0.36800  Biso   1.000  O
  O131     1.0000 0.03640  0.03640  0.60960  Biso   1.000  O
  O132     1.0000 0.14260  0.14260  0.69950  Biso   1.000  O
  O133     1.0000 0.91110  0.91110  0.86800  Biso   1.000  O
  O134     1.0000 0.46360  0.46360  0.60960  Biso   1.000  O
  O135     1.0000 0.35740  0.35740  0.69950  Biso   1.000  O
  O136     1.0000 0.58890  0.58890  0.86800  Biso   1.000  O
