data_image0
_cell_length_a       19.4876
_cell_length_b       19.4876
_cell_length_c       26.377
_cell_angle_alpha    90
_cell_angle_beta     90
_cell_angle_gamma    90

_symmetry_space_group_name_H-M    P 1
_symmetry_int_tables_number       1

loop_
  _symmetry_equiv_pos_as_xyz
  'x, y, z'

loop_
  _atom_site_label
  _atom_site_occupancy
  _atom_site_fract_x
  _atom_site_fract_y
  _atom_site_fract_z
  _atom_site_thermal_displace_type
  _atom_site_B_iso_or_equiv
  _atom_site_type_symbol
  Sm1      1.0000 0.44101  0.05899  0.80287  Biso   1.000  Sm
  Sm2      1.0000 0.05899  0.44101  0.80287  Biso   1.000  Sm
  Sm3      1.0000 0.44101  0.44101  0.30287  Biso   1.000  Sm
  Sm4      1.0000 0.05899  0.05899  0.30287  Biso   1.000  Sm
  Sm5      1.0000 0.55899  0.55899  0.69713  Biso   1.000  Sm
  Sm6      1.0000 0.94101  0.94101  0.69713  Biso   1.000  Sm
  Sm7      1.0000 0.55899  0.94101  0.19713  Biso   1.000  Sm
  Sm8      1.0000 0.94101  0.55899  0.19713  Biso   1.000  Sm
  Cd1      1.0000 0.52990  0.97010  0.69607  Biso   1.000  Cd
  Cd2      1.0000 0.97010  0.52990  0.69607  Biso   1.000  Cd
  Cd3      1.0000 0.52990  0.52990  0.19607  Biso   1.000  Cd
  Cd4      1.0000 0.97010  0.97010  0.19607  Biso   1.000  Cd
  Cd5      1.0000 0.47010  0.47010  0.80393  Biso   1.000  Cd
  Cd6      1.0000 0.02990  0.02990  0.80393  Biso   1.000  Cd
  Cd7      1.0000 0.47010  0.02990  0.30393  Biso   1.000  Cd
  Cd8      1.0000 0.02990  0.47010  0.30393  Biso   1.000  Cd
  Cd9      1.0000 0.75000  0.25000  0.50000  Biso   1.000  Cd
  Cd10     1.0000 0.25000  0.75000  0.00000  Biso   1.000  Cd
  Cd11     1.0000 0.25000  0.75000  0.50000  Biso   1.000  Cd
  Cd12     1.0000 0.75000  0.25000  0.00000  Biso   1.000  Cd
  H1       1.0000 0.48730  0.25120  0.73080  Biso   1.000  H
  H2       1.0000 0.59000  0.16710  0.61510  Biso   1.000  H
  H3       1.0000 0.59550  0.37040  0.63570  Biso   1.000  H
  H4       1.0000 0.50220  0.24520  0.88720  Biso   1.000  H
  H5       1.0000 0.57280  0.26660  0.91090  Biso   1.000  H
  H6       1.0000 0.53170  0.31900  0.87760  Biso   1.000  H
  H7       1.0000 0.65200  0.23530  0.77910  Biso   1.000  H
  H8       1.0000 0.64540  0.31230  0.79580  Biso   1.000  H
  H9       1.0000 0.68630  0.26030  0.82970  Biso   1.000  H
  H10      1.0000 0.01270  0.24880  0.73080  Biso   1.000  H
  H11      1.0000 0.91000  0.33290  0.61510  Biso   1.000  H
  H12      1.0000 0.90450  0.12960  0.63570  Biso   1.000  H
  H13      1.0000 0.99780  0.25480  0.88720  Biso   1.000  H
  H14      1.0000 0.92720  0.23340  0.91090  Biso   1.000  H
  H15      1.0000 0.96830  0.18100  0.87760  Biso   1.000  H
  H16      1.0000 0.84800  0.26470  0.77910  Biso   1.000  H
  H17      1.0000 0.85460  0.18770  0.79580  Biso   1.000  H
  H18      1.0000 0.81370  0.23970  0.82970  Biso   1.000  H
  H19      1.0000 0.24880  0.48730  0.23080  Biso   1.000  H
  H20      1.0000 0.33290  0.59000  0.11510  Biso   1.000  H
  H21      1.0000 0.12960  0.59550  0.13570  Biso   1.000  H
  H22      1.0000 0.25480  0.50220  0.38720  Biso   1.000  H
  H23      1.0000 0.23340  0.57280  0.41090  Biso   1.000  H
  H24      1.0000 0.18100  0.53170  0.37760  Biso   1.000  H
  H25      1.0000 0.26470  0.65200  0.27910  Biso   1.000  H
  H26      1.0000 0.18770  0.64540  0.29580  Biso   1.000  H
  H27      1.0000 0.23970  0.68630  0.32970  Biso   1.000  H
  H28      1.0000 0.25120  0.01270  0.23080  Biso   1.000  H
  H29      1.0000 0.16710  0.91000  0.11510  Biso   1.000  H
  H30      1.0000 0.37040  0.90450  0.13570  Biso   1.000  H
  H31      1.0000 0.24520  0.99780  0.38720  Biso   1.000  H
  H32      1.0000 0.26660  0.92720  0.41090  Biso   1.000  H
  H33      1.0000 0.31900  0.96830  0.37760  Biso   1.000  H
  H34      1.0000 0.23530  0.84800  0.27910  Biso   1.000  H
  H35      1.0000 0.31230  0.85460  0.29580  Biso   1.000  H
  H36      1.0000 0.26030  0.81370  0.32970  Biso   1.000  H
  H37      1.0000 0.51270  0.75120  0.76920  Biso   1.000  H
  H38      1.0000 0.41000  0.66710  0.88490  Biso   1.000  H
  H39      1.0000 0.40450  0.87040  0.86430  Biso   1.000  H
  H40      1.0000 0.49780  0.74520  0.61280  Biso   1.000  H
  H41      1.0000 0.42720  0.76660  0.58910  Biso   1.000  H
  H42      1.0000 0.46830  0.81900  0.62240  Biso   1.000  H
  H43      1.0000 0.34800  0.73530  0.72090  Biso   1.000  H
  H44      1.0000 0.35460  0.81230  0.70420  Biso   1.000  H
  H45      1.0000 0.31370  0.76030  0.67030  Biso   1.000  H
  H46      1.0000 0.98730  0.74880  0.76920  Biso   1.000  H
  H47      1.0000 0.09000  0.83290  0.88490  Biso   1.000  H
  H48      1.0000 0.09550  0.62960  0.86430  Biso   1.000  H
  H49      1.0000 0.00220  0.75480  0.61280  Biso   1.000  H
  H50      1.0000 0.07280  0.73340  0.58910  Biso   1.000  H
  H51      1.0000 0.03170  0.68100  0.62240  Biso   1.000  H
  H52      1.0000 0.15200  0.76470  0.72090  Biso   1.000  H
  H53      1.0000 0.14540  0.68770  0.70420  Biso   1.000  H
  H54      1.0000 0.18630  0.73970  0.67030  Biso   1.000  H
  H55      1.0000 0.75120  0.98730  0.26920  Biso   1.000  H
  H56      1.0000 0.66710  0.09000  0.38490  Biso   1.000  H
  H57      1.0000 0.87040  0.09550  0.36430  Biso   1.000  H
  H58      1.0000 0.74520  0.00220  0.11280  Biso   1.000  H
  H59      1.0000 0.76660  0.07280  0.08910  Biso   1.000  H
  H60      1.0000 0.81900  0.03170  0.12240  Biso   1.000  H
  H61      1.0000 0.73530  0.15200  0.22090  Biso   1.000  H
  H62      1.0000 0.81230  0.14540  0.20420  Biso   1.000  H
  H63      1.0000 0.76030  0.18630  0.17030  Biso   1.000  H
  H64      1.0000 0.74880  0.51270  0.26920  Biso   1.000  H
  H65      1.0000 0.83290  0.41000  0.38490  Biso   1.000  H
  H66      1.0000 0.62960  0.40450  0.36430  Biso   1.000  H
  H67      1.0000 0.75480  0.49780  0.11280  Biso   1.000  H
  H68      1.0000 0.73340  0.42720  0.08910  Biso   1.000  H
  H69      1.0000 0.68100  0.46830  0.12240  Biso   1.000  H
  H70      1.0000 0.76470  0.34800  0.22090  Biso   1.000  H
  H71      1.0000 0.68770  0.35460  0.20420  Biso   1.000  H
  H72      1.0000 0.73970  0.31370  0.17030  Biso   1.000  H
  H73      1.0000 0.51270  0.74880  0.26920  Biso   1.000  H
  H74      1.0000 0.41000  0.83290  0.38490  Biso   1.000  H
  H75      1.0000 0.40450  0.62960  0.36430  Biso   1.000  H
  H76      1.0000 0.49780  0.75480  0.11280  Biso   1.000  H
  H77      1.0000 0.42720  0.73340  0.08910  Biso   1.000  H
  H78      1.0000 0.46830  0.68100  0.12240  Biso   1.000  H
  H79      1.0000 0.34800  0.76470  0.22090  Biso   1.000  H
  H80      1.0000 0.35460  0.68770  0.20420  Biso   1.000  H
  H81      1.0000 0.31370  0.73970  0.17030  Biso   1.000  H
  H82      1.0000 0.98730  0.75120  0.26920  Biso   1.000  H
  H83      1.0000 0.09000  0.66710  0.38490  Biso   1.000  H
  H84      1.0000 0.09550  0.87040  0.36430  Biso   1.000  H
  H85      1.0000 0.00220  0.74520  0.11280  Biso   1.000  H
  H86      1.0000 0.07280  0.76660  0.08910  Biso   1.000  H
  H87      1.0000 0.03170  0.81900  0.12240  Biso   1.000  H
  H88      1.0000 0.15200  0.73530  0.22090  Biso   1.000  H
  H89      1.0000 0.14540  0.81230  0.20420  Biso   1.000  H
  H90      1.0000 0.18630  0.76030  0.17030  Biso   1.000  H
  H91      1.0000 0.75120  0.51270  0.76920  Biso   1.000  H
  H92      1.0000 0.66710  0.41000  0.88490  Biso   1.000  H
  H93      1.0000 0.87040  0.40450  0.86430  Biso   1.000  H
  H94      1.0000 0.74520  0.49780  0.61280  Biso   1.000  H
  H95      1.0000 0.76660  0.42720  0.58910  Biso   1.000  H
  H96      1.0000 0.81900  0.46830  0.62240  Biso   1.000  H
  H97      1.0000 0.73530  0.34800  0.72090  Biso   1.000  H
  H98      1.0000 0.81230  0.35460  0.70420  Biso   1.000  H
  H99      1.0000 0.76030  0.31370  0.67030  Biso   1.000  H
  H100     1.0000 0.74880  0.98730  0.76920  Biso   1.000  H
  H101     1.0000 0.83290  0.09000  0.88490  Biso   1.000  H
  H102     1.0000 0.62960  0.09550  0.86430  Biso   1.000  H
  H103     1.0000 0.75480  0.00220  0.61280  Biso   1.000  H
  H104     1.0000 0.73340  0.07280  0.58910  Biso   1.000  H
  H105     1.0000 0.68100  0.03170  0.62240  Biso   1.000  H
  H106     1.0000 0.76470  0.15200  0.72090  Biso   1.000  H
  H107     1.0000 0.68770  0.14540  0.70420  Biso   1.000  H
  H108     1.0000 0.73970  0.18630  0.67030  Biso   1.000  H
  H109     1.0000 0.48730  0.24880  0.23080  Biso   1.000  H
  H110     1.0000 0.59000  0.33290  0.11510  Biso   1.000  H
  H111     1.0000 0.59550  0.12960  0.13570  Biso   1.000  H
  H112     1.0000 0.50220  0.25480  0.38720  Biso   1.000  H
  H113     1.0000 0.57280  0.23340  0.41090  Biso   1.000  H
  H114     1.0000 0.53170  0.18100  0.37760  Biso   1.000  H
  H115     1.0000 0.65200  0.26470  0.27910  Biso   1.000  H
  H116     1.0000 0.64540  0.18770  0.29580  Biso   1.000  H
  H117     1.0000 0.68630  0.23970  0.32970  Biso   1.000  H
  H118     1.0000 0.01270  0.25120  0.23080  Biso   1.000  H
  H119     1.0000 0.91000  0.16710  0.11510  Biso   1.000  H
  H120     1.0000 0.90450  0.37040  0.13570  Biso   1.000  H
  H121     1.0000 0.99780  0.24520  0.38720  Biso   1.000  H
  H122     1.0000 0.92720  0.26660  0.41090  Biso   1.000  H
  H123     1.0000 0.96830  0.31900  0.37760  Biso   1.000  H
  H124     1.0000 0.84800  0.23530  0.27910  Biso   1.000  H
  H125     1.0000 0.85460  0.31230  0.29580  Biso   1.000  H
  H126     1.0000 0.81370  0.26030  0.32970  Biso   1.000  H
  H127     1.0000 0.24880  0.01270  0.73080  Biso   1.000  H
  H128     1.0000 0.33290  0.91000  0.61510  Biso   1.000  H
  H129     1.0000 0.12960  0.90450  0.63570  Biso   1.000  H
  H130     1.0000 0.25480  0.99780  0.88720  Biso   1.000  H
  H131     1.0000 0.23340  0.92720  0.91090  Biso   1.000  H
  H132     1.0000 0.18100  0.96830  0.87760  Biso   1.000  H
  H133     1.0000 0.26470  0.84800  0.77910  Biso   1.000  H
  H134     1.0000 0.18770  0.85460  0.79580  Biso   1.000  H
  H135     1.0000 0.23970  0.81370  0.82970  Biso   1.000  H
  H136     1.0000 0.25120  0.48730  0.73080  Biso   1.000  H
  H137     1.0000 0.16710  0.59000  0.61510  Biso   1.000  H
  H138     1.0000 0.37040  0.59550  0.63570  Biso   1.000  H
  H139     1.0000 0.24520  0.50220  0.88720  Biso   1.000  H
  H140     1.0000 0.26660  0.57280  0.91090  Biso   1.000  H
  H141     1.0000 0.31900  0.53170  0.87760  Biso   1.000  H
  H142     1.0000 0.23530  0.65200  0.77910  Biso   1.000  H
  H143     1.0000 0.31230  0.64540  0.79580  Biso   1.000  H
  H144     1.0000 0.26030  0.68630  0.82970  Biso   1.000  H
  C1       1.0000 0.51640  0.12860  0.69360  Biso   1.000  C
  C2       1.0000 0.53800  0.32030  0.68810  Biso   1.000  C
  C3       1.0000 0.64760  0.27500  0.57450  Biso   1.000  C
  C4       1.0000 0.53470  0.19910  0.67540  Biso   1.000  C
  C5       1.0000 0.59880  0.26960  0.61840  Biso   1.000  C
  C6       1.0000 0.51550  0.25590  0.70260  Biso   1.000  C
  C7       1.0000 0.57680  0.20580  0.63320  Biso   1.000  C
  C8       1.0000 0.58010  0.32730  0.64560  Biso   1.000  C
  C9       1.0000 0.54410  0.19140  0.82440  Biso   1.000  C
  C10      1.0000 0.54330  0.27150  0.88200  Biso   1.000  C
  C11      1.0000 0.64700  0.26570  0.80760  Biso   1.000  C
  C12      1.0000 0.51950  0.38180  0.71970  Biso   1.000  C
  C13      1.0000 0.98360  0.37140  0.69360  Biso   1.000  C
  C14      1.0000 0.96200  0.17970  0.68810  Biso   1.000  C
  C15      1.0000 0.85240  0.22500  0.57450  Biso   1.000  C
  C16      1.0000 0.96530  0.30090  0.67540  Biso   1.000  C
  C17      1.0000 0.90120  0.23040  0.61840  Biso   1.000  C
  C18      1.0000 0.98450  0.24410  0.70260  Biso   1.000  C
  C19      1.0000 0.92320  0.29420  0.63320  Biso   1.000  C
  C20      1.0000 0.91990  0.17270  0.64560  Biso   1.000  C
  C21      1.0000 0.95590  0.30860  0.82440  Biso   1.000  C
  C22      1.0000 0.95670  0.22850  0.88200  Biso   1.000  C
  C23      1.0000 0.85300  0.23430  0.80760  Biso   1.000  C
  C24      1.0000 0.98050  0.11820  0.71970  Biso   1.000  C
  C25      1.0000 0.37140  0.51640  0.19360  Biso   1.000  C
  C26      1.0000 0.17970  0.53800  0.18810  Biso   1.000  C
  C27      1.0000 0.22500  0.64760  0.07450  Biso   1.000  C
  C28      1.0000 0.30090  0.53470  0.17540  Biso   1.000  C
  C29      1.0000 0.23040  0.59880  0.11840  Biso   1.000  C
  C30      1.0000 0.24410  0.51550  0.20260  Biso   1.000  C
  C31      1.0000 0.29420  0.57680  0.13320  Biso   1.000  C
  C32      1.0000 0.17270  0.58010  0.14560  Biso   1.000  C
  C33      1.0000 0.30860  0.54410  0.32440  Biso   1.000  C
  C34      1.0000 0.22850  0.54330  0.38200  Biso   1.000  C
  C35      1.0000 0.23430  0.64700  0.30760  Biso   1.000  C
  C36      1.0000 0.11820  0.51950  0.21970  Biso   1.000  C
  C37      1.0000 0.12860  0.98360  0.19360  Biso   1.000  C
  C38      1.0000 0.32030  0.96200  0.18810  Biso   1.000  C
  C39      1.0000 0.27500  0.85240  0.07450  Biso   1.000  C
  C40      1.0000 0.19910  0.96530  0.17540  Biso   1.000  C
  C41      1.0000 0.26960  0.90120  0.11840  Biso   1.000  C
  C42      1.0000 0.25590  0.98450  0.20260  Biso   1.000  C
  C43      1.0000 0.20580  0.92320  0.13320  Biso   1.000  C
  C44      1.0000 0.32730  0.91990  0.14560  Biso   1.000  C
  C45      1.0000 0.19140  0.95590  0.32440  Biso   1.000  C
  C46      1.0000 0.27150  0.95670  0.38200  Biso   1.000  C
  C47      1.0000 0.26570  0.85300  0.30760  Biso   1.000  C
  C48      1.0000 0.38180  0.98050  0.21970  Biso   1.000  C
  C49      1.0000 0.48360  0.62860  0.80640  Biso   1.000  C
  C50      1.0000 0.46200  0.82030  0.81190  Biso   1.000  C
  C51      1.0000 0.35240  0.77500  0.92550  Biso   1.000  C
  C52      1.0000 0.46530  0.69910  0.82460  Biso   1.000  C
  C53      1.0000 0.40120  0.76960  0.88160  Biso   1.000  C
  C54      1.0000 0.48450  0.75590  0.79740  Biso   1.000  C
  C55      1.0000 0.42320  0.70580  0.86680  Biso   1.000  C
  C56      1.0000 0.41990  0.82730  0.85440  Biso   1.000  C
  C57      1.0000 0.45590  0.69140  0.67560  Biso   1.000  C
  C58      1.0000 0.45670  0.77150  0.61800  Biso   1.000  C
  C59      1.0000 0.35300  0.76570  0.69240  Biso   1.000  C
  C60      1.0000 0.48050  0.88180  0.78030  Biso   1.000  C
  C61      1.0000 0.01640  0.87140  0.80640  Biso   1.000  C
  C62      1.0000 0.03800  0.67970  0.81190  Biso   1.000  C
  C63      1.0000 0.14760  0.72500  0.92550  Biso   1.000  C
  C64      1.0000 0.03470  0.80090  0.82460  Biso   1.000  C
  C65      1.0000 0.09880  0.73040  0.88160  Biso   1.000  C
  C66      1.0000 0.01550  0.74410  0.79740  Biso   1.000  C
  C67      1.0000 0.07680  0.79420  0.86680  Biso   1.000  C
  C68      1.0000 0.08010  0.67270  0.85440  Biso   1.000  C
  C69      1.0000 0.04410  0.80860  0.67560  Biso   1.000  C
  C70      1.0000 0.04330  0.72850  0.61800  Biso   1.000  C
  C71      1.0000 0.14700  0.73430  0.69240  Biso   1.000  C
  C72      1.0000 0.01950  0.61820  0.78030  Biso   1.000  C
  C73      1.0000 0.62860  0.01640  0.30640  Biso   1.000  C
  C74      1.0000 0.82030  0.03800  0.31190  Biso   1.000  C
  C75      1.0000 0.77500  0.14760  0.42550  Biso   1.000  C
  C76      1.0000 0.69910  0.03470  0.32460  Biso   1.000  C
  C77      1.0000 0.76960  0.09880  0.38160  Biso   1.000  C
  C78      1.0000 0.75590  0.01550  0.29740  Biso   1.000  C
  C79      1.0000 0.70580  0.07680  0.36680  Biso   1.000  C
  C80      1.0000 0.82730  0.08010  0.35440  Biso   1.000  C
  C81      1.0000 0.69140  0.04410  0.17560  Biso   1.000  C
  C82      1.0000 0.77150  0.04330  0.11800  Biso   1.000  C
  C83      1.0000 0.76570  0.14700  0.19240  Biso   1.000  C
  C84      1.0000 0.88180  0.01950  0.28030  Biso   1.000  C
  C85      1.0000 0.87140  0.48360  0.30640  Biso   1.000  C
  C86      1.0000 0.67970  0.46200  0.31190  Biso   1.000  C
  C87      1.0000 0.72500  0.35240  0.42550  Biso   1.000  C
  C88      1.0000 0.80090  0.46530  0.32460  Biso   1.000  C
  C89      1.0000 0.73040  0.40120  0.38160  Biso   1.000  C
  C90      1.0000 0.74410  0.48450  0.29740  Biso   1.000  C
  C91      1.0000 0.79420  0.42320  0.36680  Biso   1.000  C
  C92      1.0000 0.67270  0.41990  0.35440  Biso   1.000  C
  C93      1.0000 0.80860  0.45590  0.17560  Biso   1.000  C
  C94      1.0000 0.72850  0.45670  0.11800  Biso   1.000  C
  C95      1.0000 0.73430  0.35300  0.19240  Biso   1.000  C
  C96      1.0000 0.61820  0.48050  0.28030  Biso   1.000  C
  C97      1.0000 0.48360  0.87140  0.30640  Biso   1.000  C
  C98      1.0000 0.46200  0.67970  0.31190  Biso   1.000  C
  C99      1.0000 0.35240  0.72500  0.42550  Biso   1.000  C
  C100     1.0000 0.46530  0.80090  0.32460  Biso   1.000  C
  C101     1.0000 0.40120  0.73040  0.38160  Biso   1.000  C
  C102     1.0000 0.48450  0.74410  0.29740  Biso   1.000  C
  C103     1.0000 0.42320  0.79420  0.36680  Biso   1.000  C
  C104     1.0000 0.41990  0.67270  0.35440  Biso   1.000  C
  C105     1.0000 0.45590  0.80860  0.17560  Biso   1.000  C
  C106     1.0000 0.45670  0.72850  0.11800  Biso   1.000  C
  C107     1.0000 0.35300  0.73430  0.19240  Biso   1.000  C
  C108     1.0000 0.48050  0.61820  0.28030  Biso   1.000  C
  C109     1.0000 0.01640  0.62860  0.30640  Biso   1.000  C
  C110     1.0000 0.03800  0.82030  0.31190  Biso   1.000  C
  C111     1.0000 0.14760  0.77500  0.42550  Biso   1.000  C
  C112     1.0000 0.03470  0.69910  0.32460  Biso   1.000  C
  C113     1.0000 0.09880  0.76960  0.38160  Biso   1.000  C
  C114     1.0000 0.01550  0.75590  0.29740  Biso   1.000  C
  C115     1.0000 0.07680  0.70580  0.36680  Biso   1.000  C
  C116     1.0000 0.08010  0.82730  0.35440  Biso   1.000  C
  C117     1.0000 0.04410  0.69140  0.17560  Biso   1.000  C
  C118     1.0000 0.04330  0.77150  0.11800  Biso   1.000  C
  C119     1.0000 0.14700  0.76570  0.19240  Biso   1.000  C
  C120     1.0000 0.01950  0.88180  0.28030  Biso   1.000  C
  C121     1.0000 0.62860  0.48360  0.80640  Biso   1.000  C
  C122     1.0000 0.82030  0.46200  0.81190  Biso   1.000  C
  C123     1.0000 0.77500  0.35240  0.92550  Biso   1.000  C
  C124     1.0000 0.69910  0.46530  0.82460  Biso   1.000  C
  C125     1.0000 0.76960  0.40120  0.88160  Biso   1.000  C
  C126     1.0000 0.75590  0.48450  0.79740  Biso   1.000  C
  C127     1.0000 0.70580  0.42320  0.86680  Biso   1.000  C
  C128     1.0000 0.82730  0.41990  0.85440  Biso   1.000  C
  C129     1.0000 0.69140  0.45590  0.67560  Biso   1.000  C
  C130     1.0000 0.77150  0.45670  0.61800  Biso   1.000  C
  C131     1.0000 0.76570  0.35300  0.69240  Biso   1.000  C
  C132     1.0000 0.88180  0.48050  0.78030  Biso   1.000  C
  C133     1.0000 0.87140  0.01640  0.80640  Biso   1.000  C
  C134     1.0000 0.67970  0.03800  0.81190  Biso   1.000  C
  C135     1.0000 0.72500  0.14760  0.92550  Biso   1.000  C
  C136     1.0000 0.80090  0.03470  0.82460  Biso   1.000  C
  C137     1.0000 0.73040  0.09880  0.88160  Biso   1.000  C
  C138     1.0000 0.74410  0.01550  0.79740  Biso   1.000  C
  C139     1.0000 0.79420  0.07680  0.86680  Biso   1.000  C
  C140     1.0000 0.67270  0.08010  0.85440  Biso   1.000  C
  C141     1.0000 0.80860  0.04410  0.67560  Biso   1.000  C
  C142     1.0000 0.72850  0.04330  0.61800  Biso   1.000  C
  C143     1.0000 0.73430  0.14700  0.69240  Biso   1.000  C
  C144     1.0000 0.61820  0.01950  0.78030  Biso   1.000  C
  C145     1.0000 0.51640  0.37140  0.19360  Biso   1.000  C
  C146     1.0000 0.53800  0.17970  0.18810  Biso   1.000  C
  C147     1.0000 0.64760  0.22500  0.07450  Biso   1.000  C
  C148     1.0000 0.53470  0.30090  0.17540  Biso   1.000  C
  C149     1.0000 0.59880  0.23040  0.11840  Biso   1.000  C
  C150     1.0000 0.51550  0.24410  0.20260  Biso   1.000  C
  C151     1.0000 0.57680  0.29420  0.13320  Biso   1.000  C
  C152     1.0000 0.58010  0.17270  0.14560  Biso   1.000  C
  C153     1.0000 0.54410  0.30860  0.32440  Biso   1.000  C
  C154     1.0000 0.54330  0.22850  0.38200  Biso   1.000  C
  C155     1.0000 0.64700  0.23430  0.30760  Biso   1.000  C
  C156     1.0000 0.51950  0.11820  0.21970  Biso   1.000  C
  C157     1.0000 0.98360  0.12860  0.19360  Biso   1.000  C
  C158     1.0000 0.96200  0.32030  0.18810  Biso   1.000  C
  C159     1.0000 0.85240  0.27500  0.07450  Biso   1.000  C
  C160     1.0000 0.96530  0.19910  0.17540  Biso   1.000  C
  C161     1.0000 0.90120  0.26960  0.11840  Biso   1.000  C
  C162     1.0000 0.98450  0.25590  0.20260  Biso   1.000  C
  C163     1.0000 0.92320  0.20580  0.13320  Biso   1.000  C
  C164     1.0000 0.91990  0.32730  0.14560  Biso   1.000  C
  C165     1.0000 0.95590  0.19140  0.32440  Biso   1.000  C
  C166     1.0000 0.95670  0.27150  0.38200  Biso   1.000  C
  C167     1.0000 0.85300  0.26570  0.30760  Biso   1.000  C
  C168     1.0000 0.98050  0.38180  0.21970  Biso   1.000  C
  C169     1.0000 0.37140  0.98360  0.69360  Biso   1.000  C
  C170     1.0000 0.17970  0.96200  0.68810  Biso   1.000  C
  C171     1.0000 0.22500  0.85240  0.57450  Biso   1.000  C
  C172     1.0000 0.30090  0.96530  0.67540  Biso   1.000  C
  C173     1.0000 0.23040  0.90120  0.61840  Biso   1.000  C
  C174     1.0000 0.24410  0.98450  0.70260  Biso   1.000  C
  C175     1.0000 0.29420  0.92320  0.63320  Biso   1.000  C
  C176     1.0000 0.17270  0.91990  0.64560  Biso   1.000  C
  C177     1.0000 0.30860  0.95590  0.82440  Biso   1.000  C
  C178     1.0000 0.22850  0.95670  0.88200  Biso   1.000  C
  C179     1.0000 0.23430  0.85300  0.80760  Biso   1.000  C
  C180     1.0000 0.11820  0.98050  0.71970  Biso   1.000  C
  C181     1.0000 0.12860  0.51640  0.69360  Biso   1.000  C
  C182     1.0000 0.32030  0.53800  0.68810  Biso   1.000  C
  C183     1.0000 0.27500  0.64760  0.57450  Biso   1.000  C
  C184     1.0000 0.19910  0.53470  0.67540  Biso   1.000  C
  C185     1.0000 0.26960  0.59880  0.61840  Biso   1.000  C
  C186     1.0000 0.25590  0.51550  0.70260  Biso   1.000  C
  C187     1.0000 0.20580  0.57680  0.63320  Biso   1.000  C
  C188     1.0000 0.32730  0.58010  0.64560  Biso   1.000  C
  C189     1.0000 0.19140  0.54410  0.82440  Biso   1.000  C
  C190     1.0000 0.27150  0.54330  0.88200  Biso   1.000  C
  C191     1.0000 0.26570  0.64700  0.80760  Biso   1.000  C
  C192     1.0000 0.38180  0.51950  0.71970  Biso   1.000  C
  N1       1.0000 0.57750  0.24750  0.83840  Biso   1.000  N
  N2       1.0000 0.92250  0.25250  0.83840  Biso   1.000  N
  N3       1.0000 0.25250  0.57750  0.33840  Biso   1.000  N
  N4       1.0000 0.24750  0.92250  0.33840  Biso   1.000  N
  N5       1.0000 0.42250  0.74750  0.66160  Biso   1.000  N
  N6       1.0000 0.07750  0.75250  0.66160  Biso   1.000  N
  N7       1.0000 0.74750  0.07750  0.16160  Biso   1.000  N
  N8       1.0000 0.75250  0.42250  0.16160  Biso   1.000  N
  N9       1.0000 0.42250  0.75250  0.16160  Biso   1.000  N
  N10      1.0000 0.07750  0.74750  0.16160  Biso   1.000  N
  N11      1.0000 0.74750  0.42250  0.66160  Biso   1.000  N
  N12      1.0000 0.75250  0.07750  0.66160  Biso   1.000  N
  N13      1.0000 0.57750  0.25250  0.33840  Biso   1.000  N
  N14      1.0000 0.92250  0.24750  0.33840  Biso   1.000  N
  N15      1.0000 0.25250  0.92250  0.83840  Biso   1.000  N
  N16      1.0000 0.24750  0.57750  0.83840  Biso   1.000  N
  O1       1.0000 0.47910  0.12330  0.73250  Biso   1.000  O
  O2       1.0000 0.53970  0.43770  0.70600  Biso   1.000  O
  O3       1.0000 0.66350  0.22140  0.55110  Biso   1.000  O
  O4       1.0000 0.67280  0.33230  0.56390  Biso   1.000  O
  O5       1.0000 0.53770  0.07870  0.66980  Biso   1.000  O
  O6       1.0000 0.49310  0.16330  0.83860  Biso   1.000  O
  O7       1.0000 0.48680  0.37360  0.75980  Biso   1.000  O
  O8       1.0000 0.02090  0.37670  0.73250  Biso   1.000  O
  O9       1.0000 0.96030  0.06230  0.70600  Biso   1.000  O
  O10      1.0000 0.83650  0.27860  0.55110  Biso   1.000  O
  O11      1.0000 0.82720  0.16770  0.56390  Biso   1.000  O
  O12      1.0000 0.96230  0.42130  0.66980  Biso   1.000  O
  O13      1.0000 0.00690  0.33670  0.83860  Biso   1.000  O
  O14      1.0000 0.01320  0.12640  0.75980  Biso   1.000  O
  O15      1.0000 0.37670  0.47910  0.23250  Biso   1.000  O
  O16      1.0000 0.06230  0.53970  0.20600  Biso   1.000  O
  O17      1.0000 0.27860  0.66350  0.05110  Biso   1.000  O
  O18      1.0000 0.16770  0.67280  0.06390  Biso   1.000  O
  O19      1.0000 0.42130  0.53770  0.16980  Biso   1.000  O
  O20      1.0000 0.33670  0.49310  0.33860  Biso   1.000  O
  O21      1.0000 0.12640  0.48680  0.25980  Biso   1.000  O
  O22      1.0000 0.12330  0.02090  0.23250  Biso   1.000  O
  O23      1.0000 0.43770  0.96030  0.20600  Biso   1.000  O
  O24      1.0000 0.22140  0.83650  0.05110  Biso   1.000  O
  O25      1.0000 0.33230  0.82720  0.06390  Biso   1.000  O
  O26      1.0000 0.07870  0.96230  0.16980  Biso   1.000  O
  O27      1.0000 0.16330  0.00690  0.33860  Biso   1.000  O
  O28      1.0000 0.37360  0.01320  0.25980  Biso   1.000  O
  O29      1.0000 0.52090  0.62330  0.76750  Biso   1.000  O
  O30      1.0000 0.46030  0.93770  0.79400  Biso   1.000  O
  O31      1.0000 0.33650  0.72140  0.94890  Biso   1.000  O
  O32      1.0000 0.32720  0.83230  0.93610  Biso   1.000  O
  O33      1.0000 0.46230  0.57870  0.83020  Biso   1.000  O
  O34      1.0000 0.50690  0.66330  0.66140  Biso   1.000  O
  O35      1.0000 0.51320  0.87360  0.74020  Biso   1.000  O
  O36      1.0000 0.97910  0.87670  0.76750  Biso   1.000  O
  O37      1.0000 0.03970  0.56230  0.79400  Biso   1.000  O
  O38      1.0000 0.16350  0.77860  0.94890  Biso   1.000  O
  O39      1.0000 0.17280  0.66770  0.93610  Biso   1.000  O
  O40      1.0000 0.03770  0.92130  0.83020  Biso   1.000  O
  O41      1.0000 0.99310  0.83670  0.66140  Biso   1.000  O
  O42      1.0000 0.98680  0.62640  0.74020  Biso   1.000  O
  O43      1.0000 0.62330  0.97910  0.26750  Biso   1.000  O
  O44      1.0000 0.93770  0.03970  0.29400  Biso   1.000  O
  O45      1.0000 0.72140  0.16350  0.44890  Biso   1.000  O
  O46      1.0000 0.83230  0.17280  0.43610  Biso   1.000  O
  O47      1.0000 0.57870  0.03770  0.33020  Biso   1.000  O
  O48      1.0000 0.66330  0.99310  0.16140  Biso   1.000  O
  O49      1.0000 0.87360  0.98680  0.24020  Biso   1.000  O
  O50      1.0000 0.87670  0.52090  0.26750  Biso   1.000  O
  O51      1.0000 0.56230  0.46030  0.29400  Biso   1.000  O
  O52      1.0000 0.77860  0.33650  0.44890  Biso   1.000  O
  O53      1.0000 0.66770  0.32720  0.43610  Biso   1.000  O
  O54      1.0000 0.92130  0.46230  0.33020  Biso   1.000  O
  O55      1.0000 0.83670  0.50690  0.16140  Biso   1.000  O
  O56      1.0000 0.62640  0.51320  0.24020  Biso   1.000  O
  O57      1.0000 0.52090  0.87670  0.26750  Biso   1.000  O
  O58      1.0000 0.46030  0.56230  0.29400  Biso   1.000  O
  O59      1.0000 0.33650  0.77860  0.44890  Biso   1.000  O
  O60      1.0000 0.32720  0.66770  0.43610  Biso   1.000  O
  O61      1.0000 0.46230  0.92130  0.33020  Biso   1.000  O
  O62      1.0000 0.50690  0.83670  0.16140  Biso   1.000  O
  O63      1.0000 0.51320  0.62640  0.24020  Biso   1.000  O
  O64      1.0000 0.97910  0.62330  0.26750  Biso   1.000  O
  O65      1.0000 0.03970  0.93770  0.29400  Biso   1.000  O
  O66      1.0000 0.16350  0.72140  0.44890  Biso   1.000  O
  O67      1.0000 0.17280  0.83230  0.43610  Biso   1.000  O
  O68      1.0000 0.03770  0.57870  0.33020  Biso   1.000  O
  O69      1.0000 0.99310  0.66330  0.16140  Biso   1.000  O
  O70      1.0000 0.98680  0.87360  0.24020  Biso   1.000  O
  O71      1.0000 0.62330  0.52090  0.76750  Biso   1.000  O
  O72      1.0000 0.93770  0.46030  0.79400  Biso   1.000  O
  O73      1.0000 0.72140  0.33650  0.94890  Biso   1.000  O
  O74      1.0000 0.83230  0.32720  0.93610  Biso   1.000  O
  O75      1.0000 0.57870  0.46230  0.83020  Biso   1.000  O
  O76      1.0000 0.66330  0.50690  0.66140  Biso   1.000  O
  O77      1.0000 0.87360  0.51320  0.74020  Biso   1.000  O
  O78      1.0000 0.87670  0.97910  0.76750  Biso   1.000  O
  O79      1.0000 0.56230  0.03970  0.79400  Biso   1.000  O
  O80      1.0000 0.77860  0.16350  0.94890  Biso   1.000  O
  O81      1.0000 0.66770  0.17280  0.93610  Biso   1.000  O
  O82      1.0000 0.92130  0.03770  0.83020  Biso   1.000  O
  O83      1.0000 0.83670  0.99310  0.66140  Biso   1.000  O
  O84      1.0000 0.62640  0.98680  0.74020  Biso   1.000  O
  O85      1.0000 0.47910  0.37670  0.23250  Biso   1.000  O
  O86      1.0000 0.53970  0.06230  0.20600  Biso   1.000  O
  O87      1.0000 0.66350  0.27860  0.05110  Biso   1.000  O
  O88      1.0000 0.67280  0.16770  0.06390  Biso   1.000  O
  O89      1.0000 0.53770  0.42130  0.16980  Biso   1.000  O
  O90      1.0000 0.49310  0.33670  0.33860  Biso   1.000  O
  O91      1.0000 0.48680  0.12640  0.25980  Biso   1.000  O
  O92      1.0000 0.02090  0.12330  0.23250  Biso   1.000  O
  O93      1.0000 0.96030  0.43770  0.20600  Biso   1.000  O
  O94      1.0000 0.83650  0.22140  0.05110  Biso   1.000  O
  O95      1.0000 0.82720  0.33230  0.06390  Biso   1.000  O
  O96      1.0000 0.96230  0.07870  0.16980  Biso   1.000  O
  O97      1.0000 0.00690  0.16330  0.33860  Biso   1.000  O
  O98      1.0000 0.01320  0.37360  0.25980  Biso   1.000  O
  O99      1.0000 0.37670  0.02090  0.73250  Biso   1.000  O
  O100     1.0000 0.06230  0.96030  0.70600  Biso   1.000  O
  O101     1.0000 0.27860  0.83650  0.55110  Biso   1.000  O
  O102     1.0000 0.16770  0.82720  0.56390  Biso   1.000  O
  O103     1.0000 0.42130  0.96230  0.66980  Biso   1.000  O
  O104     1.0000 0.33670  0.00690  0.83860  Biso   1.000  O
  O105     1.0000 0.12640  0.01320  0.75980  Biso   1.000  O
  O106     1.0000 0.12330  0.47910  0.73250  Biso   1.000  O
  O107     1.0000 0.43770  0.53970  0.70600  Biso   1.000  O
  O108     1.0000 0.22140  0.66350  0.55110  Biso   1.000  O
  O109     1.0000 0.33230  0.67280  0.56390  Biso   1.000  O
  O110     1.0000 0.07870  0.53770  0.66980  Biso   1.000  O
  O111     1.0000 0.16330  0.49310  0.83860  Biso   1.000  O
  O112     1.0000 0.37360  0.48680  0.75980  Biso   1.000  O
  O113     1.0000 0.35350  0.14650  0.79900  Biso   1.000  O
  O114     1.0000 0.57920  0.92080  0.62720  Biso   1.000  O
  O115     1.0000 0.46110  0.03890  0.89160  Biso   1.000  O
  O116     1.0000 0.14650  0.35350  0.79900  Biso   1.000  O
  O117     1.0000 0.92080  0.57920  0.62720  Biso   1.000  O
  O118     1.0000 0.03890  0.46110  0.89160  Biso   1.000  O
  O119     1.0000 0.35350  0.35350  0.29900  Biso   1.000  O
  O120     1.0000 0.57920  0.57920  0.12720  Biso   1.000  O
  O121     1.0000 0.46110  0.46110  0.39160  Biso   1.000  O
  O122     1.0000 0.14650  0.14650  0.29900  Biso   1.000  O
  O123     1.0000 0.92080  0.92080  0.12720  Biso   1.000  O
  O124     1.0000 0.03890  0.03890  0.39160  Biso   1.000  O
  O125     1.0000 0.64650  0.64650  0.70100  Biso   1.000  O
  O126     1.0000 0.42080  0.42080  0.87280  Biso   1.000  O
  O127     1.0000 0.53890  0.53890  0.60840  Biso   1.000  O
  O128     1.0000 0.85350  0.85350  0.70100  Biso   1.000  O
  O129     1.0000 0.07920  0.07920  0.87280  Biso   1.000  O
  O130     1.0000 0.96110  0.96110  0.60840  Biso   1.000  O
  O131     1.0000 0.64650  0.85350  0.20100  Biso   1.000  O
  O132     1.0000 0.42080  0.07920  0.37280  Biso   1.000  O
  O133     1.0000 0.53890  0.96110  0.10840  Biso   1.000  O
  O134     1.0000 0.85350  0.64650  0.20100  Biso   1.000  O
  O135     1.0000 0.07920  0.42080  0.37280  Biso   1.000  O
  O136     1.0000 0.96110  0.53890  0.10840  Biso   1.000  O
