data_image0
_cell_length_a       19.4911
_cell_length_b       19.4911
_cell_length_c       26.2995
_cell_angle_alpha    90
_cell_angle_beta     90
_cell_angle_gamma    90

_symmetry_space_group_name_H-M    P 1
_symmetry_int_tables_number       1

loop_
  _symmetry_equiv_pos_as_xyz
  'x, y, z'

loop_
  _atom_site_label
  _atom_site_occupancy
  _atom_site_fract_x
  _atom_site_fract_y
  _atom_site_fract_z
  _atom_site_thermal_displace_type
  _atom_site_B_iso_or_equiv
  _atom_site_type_symbol
  Eu1      1.0000 0.05653  0.44347  0.19741  Biso   1.000  Eu
  Eu2      1.0000 0.44347  0.05653  0.19741  Biso   1.000  Eu
  Eu3      1.0000 0.05653  0.05653  0.69741  Biso   1.000  Eu
  Eu4      1.0000 0.44347  0.44347  0.69741  Biso   1.000  Eu
  Eu5      1.0000 0.94347  0.94347  0.30259  Biso   1.000  Eu
  Eu6      1.0000 0.55653  0.55653  0.30259  Biso   1.000  Eu
  Eu7      1.0000 0.94347  0.55653  0.80259  Biso   1.000  Eu
  Eu8      1.0000 0.55653  0.94347  0.80259  Biso   1.000  Eu
  Cd1      1.0000 0.96757  0.53243  0.30367  Biso   1.000  Cd
  Cd2      1.0000 0.53243  0.96757  0.30367  Biso   1.000  Cd
  Cd3      1.0000 0.96757  0.96757  0.80367  Biso   1.000  Cd
  Cd4      1.0000 0.53243  0.53243  0.80367  Biso   1.000  Cd
  Cd5      1.0000 0.03243  0.03243  0.19633  Biso   1.000  Cd
  Cd6      1.0000 0.46757  0.46757  0.19633  Biso   1.000  Cd
  Cd7      1.0000 0.03243  0.46757  0.69633  Biso   1.000  Cd
  Cd8      1.0000 0.46757  0.03243  0.69633  Biso   1.000  Cd
  Cd9      1.0000 0.75000  0.25000  0.00000  Biso   1.000  Cd
  Cd10     1.0000 0.25000  0.75000  0.50000  Biso   1.000  Cd
  Cd11     1.0000 0.25000  0.75000  0.00000  Biso   1.000  Cd
  Cd12     1.0000 0.75000  0.25000  0.50000  Biso   1.000  Cd
  H1       1.0000 0.66480  0.41020  0.11540  Biso   1.000  H
  H2       1.0000 0.74810  0.51110  0.23180  Biso   1.000  H
  H3       1.0000 0.86870  0.40760  0.13590  Biso   1.000  H
  H4       1.0000 0.24470  0.65100  0.21840  Biso   1.000  H
  H5       1.0000 0.31880  0.63610  0.19800  Biso   1.000  H
  H6       1.0000 0.26820  0.68130  0.16600  Biso   1.000  H
  H7       1.0000 0.23930  0.50290  0.11480  Biso   1.000  H
  H8       1.0000 0.26150  0.57240  0.08960  Biso   1.000  H
  H9       1.0000 0.31400  0.53090  0.12260  Biso   1.000  H
  H10      1.0000 0.83520  0.08980  0.11540  Biso   1.000  H
  H11      1.0000 0.75190  0.98890  0.23180  Biso   1.000  H
  H12      1.0000 0.63130  0.09240  0.13590  Biso   1.000  H
  H13      1.0000 0.25530  0.84900  0.21840  Biso   1.000  H
  H14      1.0000 0.18120  0.86390  0.19800  Biso   1.000  H
  H15      1.0000 0.23180  0.81870  0.16600  Biso   1.000  H
  H16      1.0000 0.26070  0.99710  0.11480  Biso   1.000  H
  H17      1.0000 0.23850  0.92760  0.08960  Biso   1.000  H
  H18      1.0000 0.18600  0.96910  0.12260  Biso   1.000  H
  H19      1.0000 0.08980  0.66480  0.61540  Biso   1.000  H
  H20      1.0000 0.98890  0.74810  0.73180  Biso   1.000  H
  H21      1.0000 0.09240  0.86870  0.63590  Biso   1.000  H
  H22      1.0000 0.84900  0.24470  0.71840  Biso   1.000  H
  H23      1.0000 0.86390  0.31880  0.69800  Biso   1.000  H
  H24      1.0000 0.81870  0.26820  0.66600  Biso   1.000  H
  H25      1.0000 0.99710  0.23930  0.61480  Biso   1.000  H
  H26      1.0000 0.92760  0.26150  0.58960  Biso   1.000  H
  H27      1.0000 0.96910  0.31400  0.62260  Biso   1.000  H
  H28      1.0000 0.41020  0.83520  0.61540  Biso   1.000  H
  H29      1.0000 0.51110  0.75190  0.73180  Biso   1.000  H
  H30      1.0000 0.40760  0.63130  0.63590  Biso   1.000  H
  H31      1.0000 0.65100  0.25530  0.71840  Biso   1.000  H
  H32      1.0000 0.63610  0.18120  0.69800  Biso   1.000  H
  H33      1.0000 0.68130  0.23180  0.66600  Biso   1.000  H
  H34      1.0000 0.50290  0.26070  0.61480  Biso   1.000  H
  H35      1.0000 0.57240  0.23850  0.58960  Biso   1.000  H
  H36      1.0000 0.53090  0.18600  0.62260  Biso   1.000  H
  H37      1.0000 0.33520  0.91020  0.38460  Biso   1.000  H
  H38      1.0000 0.25190  0.01110  0.26820  Biso   1.000  H
  H39      1.0000 0.13130  0.90760  0.36410  Biso   1.000  H
  H40      1.0000 0.75530  0.15100  0.28160  Biso   1.000  H
  H41      1.0000 0.68120  0.13610  0.30200  Biso   1.000  H
  H42      1.0000 0.73180  0.18130  0.33400  Biso   1.000  H
  H43      1.0000 0.76070  0.00290  0.38520  Biso   1.000  H
  H44      1.0000 0.73850  0.07240  0.41040  Biso   1.000  H
  H45      1.0000 0.68600  0.03090  0.37740  Biso   1.000  H
  H46      1.0000 0.16480  0.58980  0.38460  Biso   1.000  H
  H47      1.0000 0.24810  0.48890  0.26820  Biso   1.000  H
  H48      1.0000 0.36870  0.59240  0.36410  Biso   1.000  H
  H49      1.0000 0.74470  0.34900  0.28160  Biso   1.000  H
  H50      1.0000 0.81880  0.36390  0.30200  Biso   1.000  H
  H51      1.0000 0.76820  0.31870  0.33400  Biso   1.000  H
  H52      1.0000 0.73930  0.49710  0.38520  Biso   1.000  H
  H53      1.0000 0.76150  0.42760  0.41040  Biso   1.000  H
  H54      1.0000 0.81400  0.46910  0.37740  Biso   1.000  H
  H55      1.0000 0.91020  0.16480  0.88460  Biso   1.000  H
  H56      1.0000 0.01110  0.24810  0.76820  Biso   1.000  H
  H57      1.0000 0.90760  0.36870  0.86410  Biso   1.000  H
  H58      1.0000 0.15100  0.74470  0.78160  Biso   1.000  H
  H59      1.0000 0.13610  0.81880  0.80200  Biso   1.000  H
  H60      1.0000 0.18130  0.76820  0.83400  Biso   1.000  H
  H61      1.0000 0.00290  0.73930  0.88520  Biso   1.000  H
  H62      1.0000 0.07240  0.76150  0.91040  Biso   1.000  H
  H63      1.0000 0.03090  0.81400  0.87740  Biso   1.000  H
  H64      1.0000 0.58980  0.33520  0.88460  Biso   1.000  H
  H65      1.0000 0.48890  0.25190  0.76820  Biso   1.000  H
  H66      1.0000 0.59240  0.13130  0.86410  Biso   1.000  H
  H67      1.0000 0.34900  0.75530  0.78160  Biso   1.000  H
  H68      1.0000 0.36390  0.68120  0.80200  Biso   1.000  H
  H69      1.0000 0.31870  0.73180  0.83400  Biso   1.000  H
  H70      1.0000 0.49710  0.76070  0.88520  Biso   1.000  H
  H71      1.0000 0.42760  0.73850  0.91040  Biso   1.000  H
  H72      1.0000 0.46910  0.68600  0.87740  Biso   1.000  H
  H73      1.0000 0.33520  0.58980  0.88460  Biso   1.000  H
  H74      1.0000 0.25190  0.48890  0.76820  Biso   1.000  H
  H75      1.0000 0.13130  0.59240  0.86410  Biso   1.000  H
  H76      1.0000 0.75530  0.34900  0.78160  Biso   1.000  H
  H77      1.0000 0.68120  0.36390  0.80200  Biso   1.000  H
  H78      1.0000 0.73180  0.31870  0.83400  Biso   1.000  H
  H79      1.0000 0.76070  0.49710  0.88520  Biso   1.000  H
  H80      1.0000 0.73850  0.42760  0.91040  Biso   1.000  H
  H81      1.0000 0.68600  0.46910  0.87740  Biso   1.000  H
  H82      1.0000 0.16480  0.91020  0.88460  Biso   1.000  H
  H83      1.0000 0.24810  0.01110  0.76820  Biso   1.000  H
  H84      1.0000 0.36870  0.90760  0.86410  Biso   1.000  H
  H85      1.0000 0.74470  0.15100  0.78160  Biso   1.000  H
  H86      1.0000 0.81880  0.13610  0.80200  Biso   1.000  H
  H87      1.0000 0.76820  0.18130  0.83400  Biso   1.000  H
  H88      1.0000 0.73930  0.00290  0.88520  Biso   1.000  H
  H89      1.0000 0.76150  0.07240  0.91040  Biso   1.000  H
  H90      1.0000 0.81400  0.03090  0.87740  Biso   1.000  H
  H91      1.0000 0.91020  0.33520  0.38460  Biso   1.000  H
  H92      1.0000 0.01110  0.25190  0.26820  Biso   1.000  H
  H93      1.0000 0.90760  0.13130  0.36410  Biso   1.000  H
  H94      1.0000 0.15100  0.75530  0.28160  Biso   1.000  H
  H95      1.0000 0.13610  0.68120  0.30200  Biso   1.000  H
  H96      1.0000 0.18130  0.73180  0.33400  Biso   1.000  H
  H97      1.0000 0.00290  0.76070  0.38520  Biso   1.000  H
  H98      1.0000 0.07240  0.73850  0.41040  Biso   1.000  H
  H99      1.0000 0.03090  0.68600  0.37740  Biso   1.000  H
  H100     1.0000 0.58980  0.16480  0.38460  Biso   1.000  H
  H101     1.0000 0.48890  0.24810  0.26820  Biso   1.000  H
  H102     1.0000 0.59240  0.36870  0.36410  Biso   1.000  H
  H103     1.0000 0.34900  0.74470  0.28160  Biso   1.000  H
  H104     1.0000 0.36390  0.81880  0.30200  Biso   1.000  H
  H105     1.0000 0.31870  0.76820  0.33400  Biso   1.000  H
  H106     1.0000 0.49710  0.73930  0.38520  Biso   1.000  H
  H107     1.0000 0.42760  0.76150  0.41040  Biso   1.000  H
  H108     1.0000 0.46910  0.81400  0.37740  Biso   1.000  H
  H109     1.0000 0.66480  0.08980  0.61540  Biso   1.000  H
  H110     1.0000 0.74810  0.98890  0.73180  Biso   1.000  H
  H111     1.0000 0.86870  0.09240  0.63590  Biso   1.000  H
  H112     1.0000 0.24470  0.84900  0.71840  Biso   1.000  H
  H113     1.0000 0.31880  0.86390  0.69800  Biso   1.000  H
  H114     1.0000 0.26820  0.81870  0.66600  Biso   1.000  H
  H115     1.0000 0.23930  0.99710  0.61480  Biso   1.000  H
  H116     1.0000 0.26150  0.92760  0.58960  Biso   1.000  H
  H117     1.0000 0.31400  0.96910  0.62260  Biso   1.000  H
  H118     1.0000 0.83520  0.41020  0.61540  Biso   1.000  H
  H119     1.0000 0.75190  0.51110  0.73180  Biso   1.000  H
  H120     1.0000 0.63130  0.40760  0.63590  Biso   1.000  H
  H121     1.0000 0.25530  0.65100  0.71840  Biso   1.000  H
  H122     1.0000 0.18120  0.63610  0.69800  Biso   1.000  H
  H123     1.0000 0.23180  0.68130  0.66600  Biso   1.000  H
  H124     1.0000 0.26070  0.50290  0.61480  Biso   1.000  H
  H125     1.0000 0.23850  0.57240  0.58960  Biso   1.000  H
  H126     1.0000 0.18600  0.53090  0.62260  Biso   1.000  H
  H127     1.0000 0.08980  0.83520  0.11540  Biso   1.000  H
  H128     1.0000 0.98890  0.75190  0.23180  Biso   1.000  H
  H129     1.0000 0.09240  0.63130  0.13590  Biso   1.000  H
  H130     1.0000 0.84900  0.25530  0.21840  Biso   1.000  H
  H131     1.0000 0.86390  0.18120  0.19800  Biso   1.000  H
  H132     1.0000 0.81870  0.23180  0.16600  Biso   1.000  H
  H133     1.0000 0.99710  0.26070  0.11480  Biso   1.000  H
  H134     1.0000 0.92760  0.23850  0.08960  Biso   1.000  H
  H135     1.0000 0.96910  0.18600  0.12260  Biso   1.000  H
  H136     1.0000 0.41020  0.66480  0.11540  Biso   1.000  H
  H137     1.0000 0.51110  0.74810  0.23180  Biso   1.000  H
  H138     1.0000 0.40760  0.86870  0.13590  Biso   1.000  H
  H139     1.0000 0.65100  0.24470  0.21840  Biso   1.000  H
  H140     1.0000 0.63610  0.31880  0.19800  Biso   1.000  H
  H141     1.0000 0.68130  0.26820  0.16600  Biso   1.000  H
  H142     1.0000 0.50290  0.23930  0.11480  Biso   1.000  H
  H143     1.0000 0.57240  0.26150  0.08960  Biso   1.000  H
  H144     1.0000 0.53090  0.31400  0.12260  Biso   1.000  H
  C1       1.0000 0.62590  0.48210  0.19430  Biso   1.000  C
  C2       1.0000 0.81790  0.46220  0.18820  Biso   1.000  C
  C3       1.0000 0.69690  0.46380  0.17600  Biso   1.000  C
  C4       1.0000 0.70350  0.42300  0.13390  Biso   1.000  C
  C5       1.0000 0.88020  0.48280  0.21900  Biso   1.000  C
  C6       1.0000 0.75320  0.48350  0.20320  Biso   1.000  C
  C7       1.0000 0.77490  0.35260  0.07470  Biso   1.000  C
  C8       1.0000 0.82520  0.42150  0.14610  Biso   1.000  C
  C9       1.0000 0.76810  0.40090  0.11880  Biso   1.000  C
  C10      1.0000 0.27170  0.64270  0.18850  Biso   1.000  C
  C11      1.0000 0.26670  0.54350  0.11890  Biso   1.000  C
  C12      1.0000 0.18800  0.54860  0.17830  Biso   1.000  C
  C13      1.0000 0.87410  0.01790  0.19430  Biso   1.000  C
  C14      1.0000 0.68210  0.03780  0.18820  Biso   1.000  C
  C15      1.0000 0.80310  0.03620  0.17600  Biso   1.000  C
  C16      1.0000 0.79650  0.07700  0.13390  Biso   1.000  C
  C17      1.0000 0.61980  0.01720  0.21900  Biso   1.000  C
  C18      1.0000 0.74680  0.01650  0.20320  Biso   1.000  C
  C19      1.0000 0.72510  0.14740  0.07470  Biso   1.000  C
  C20      1.0000 0.67480  0.07850  0.14610  Biso   1.000  C
  C21      1.0000 0.73190  0.09910  0.11880  Biso   1.000  C
  C22      1.0000 0.22830  0.85730  0.18850  Biso   1.000  C
  C23      1.0000 0.23330  0.95650  0.11890  Biso   1.000  C
  C24      1.0000 0.31200  0.95140  0.17830  Biso   1.000  C
  C25      1.0000 0.01790  0.62590  0.69430  Biso   1.000  C
  C26      1.0000 0.03780  0.81790  0.68820  Biso   1.000  C
  C27      1.0000 0.03620  0.69690  0.67600  Biso   1.000  C
  C28      1.0000 0.07700  0.70350  0.63390  Biso   1.000  C
  C29      1.0000 0.01720  0.88020  0.71900  Biso   1.000  C
  C30      1.0000 0.01650  0.75320  0.70320  Biso   1.000  C
  C31      1.0000 0.14740  0.77490  0.57470  Biso   1.000  C
  C32      1.0000 0.07850  0.82520  0.64610  Biso   1.000  C
  C33      1.0000 0.09910  0.76810  0.61880  Biso   1.000  C
  C34      1.0000 0.85730  0.27170  0.68850  Biso   1.000  C
  C35      1.0000 0.95650  0.26670  0.61890  Biso   1.000  C
  C36      1.0000 0.95140  0.18800  0.67830  Biso   1.000  C
  C37      1.0000 0.48210  0.87410  0.69430  Biso   1.000  C
  C38      1.0000 0.46220  0.68210  0.68820  Biso   1.000  C
  C39      1.0000 0.46380  0.80310  0.67600  Biso   1.000  C
  C40      1.0000 0.42300  0.79650  0.63390  Biso   1.000  C
  C41      1.0000 0.48280  0.61980  0.71900  Biso   1.000  C
  C42      1.0000 0.48350  0.74680  0.70320  Biso   1.000  C
  C43      1.0000 0.35260  0.72510  0.57470  Biso   1.000  C
  C44      1.0000 0.42150  0.67480  0.64610  Biso   1.000  C
  C45      1.0000 0.40090  0.73190  0.61880  Biso   1.000  C
  C46      1.0000 0.64270  0.22830  0.68850  Biso   1.000  C
  C47      1.0000 0.54350  0.23330  0.61890  Biso   1.000  C
  C48      1.0000 0.54860  0.31200  0.67830  Biso   1.000  C
  C49      1.0000 0.37410  0.98210  0.30570  Biso   1.000  C
  C50      1.0000 0.18210  0.96220  0.31180  Biso   1.000  C
  C51      1.0000 0.30310  0.96380  0.32400  Biso   1.000  C
  C52      1.0000 0.29650  0.92300  0.36610  Biso   1.000  C
  C53      1.0000 0.11980  0.98280  0.28100  Biso   1.000  C
  C54      1.0000 0.24680  0.98350  0.29680  Biso   1.000  C
  C55      1.0000 0.22510  0.85260  0.42530  Biso   1.000  C
  C56      1.0000 0.17480  0.92150  0.35390  Biso   1.000  C
  C57      1.0000 0.23190  0.90090  0.38120  Biso   1.000  C
  C58      1.0000 0.72830  0.14270  0.31150  Biso   1.000  C
  C59      1.0000 0.73330  0.04350  0.38110  Biso   1.000  C
  C60      1.0000 0.81200  0.04860  0.32170  Biso   1.000  C
  C61      1.0000 0.12590  0.51790  0.30570  Biso   1.000  C
  C62      1.0000 0.31790  0.53780  0.31180  Biso   1.000  C
  C63      1.0000 0.19690  0.53620  0.32400  Biso   1.000  C
  C64      1.0000 0.20350  0.57700  0.36610  Biso   1.000  C
  C65      1.0000 0.38020  0.51720  0.28100  Biso   1.000  C
  C66      1.0000 0.25320  0.51650  0.29680  Biso   1.000  C
  C67      1.0000 0.27490  0.64740  0.42530  Biso   1.000  C
  C68      1.0000 0.32520  0.57850  0.35390  Biso   1.000  C
  C69      1.0000 0.26810  0.59910  0.38120  Biso   1.000  C
  C70      1.0000 0.77170  0.35730  0.31150  Biso   1.000  C
  C71      1.0000 0.76670  0.45650  0.38110  Biso   1.000  C
  C72      1.0000 0.68800  0.45140  0.32170  Biso   1.000  C
  C73      1.0000 0.98210  0.12590  0.80570  Biso   1.000  C
  C74      1.0000 0.96220  0.31790  0.81180  Biso   1.000  C
  C75      1.0000 0.96380  0.19690  0.82400  Biso   1.000  C
  C76      1.0000 0.92300  0.20350  0.86610  Biso   1.000  C
  C77      1.0000 0.98280  0.38020  0.78100  Biso   1.000  C
  C78      1.0000 0.98350  0.25320  0.79680  Biso   1.000  C
  C79      1.0000 0.85260  0.27490  0.92530  Biso   1.000  C
  C80      1.0000 0.92150  0.32520  0.85390  Biso   1.000  C
  C81      1.0000 0.90090  0.26810  0.88120  Biso   1.000  C
  C82      1.0000 0.14270  0.77170  0.81150  Biso   1.000  C
  C83      1.0000 0.04350  0.76670  0.88110  Biso   1.000  C
  C84      1.0000 0.04860  0.68800  0.82170  Biso   1.000  C
  C85      1.0000 0.51790  0.37410  0.80570  Biso   1.000  C
  C86      1.0000 0.53780  0.18210  0.81180  Biso   1.000  C
  C87      1.0000 0.53620  0.30310  0.82400  Biso   1.000  C
  C88      1.0000 0.57700  0.29650  0.86610  Biso   1.000  C
  C89      1.0000 0.51720  0.11980  0.78100  Biso   1.000  C
  C90      1.0000 0.51650  0.24680  0.79680  Biso   1.000  C
  C91      1.0000 0.64740  0.22510  0.92530  Biso   1.000  C
  C92      1.0000 0.57850  0.17480  0.85390  Biso   1.000  C
  C93      1.0000 0.59910  0.23190  0.88120  Biso   1.000  C
  C94      1.0000 0.35730  0.72830  0.81150  Biso   1.000  C
  C95      1.0000 0.45650  0.73330  0.88110  Biso   1.000  C
  C96      1.0000 0.45140  0.81200  0.82170  Biso   1.000  C
  C97      1.0000 0.37410  0.51790  0.80570  Biso   1.000  C
  C98      1.0000 0.18210  0.53780  0.81180  Biso   1.000  C
  C99      1.0000 0.30310  0.53620  0.82400  Biso   1.000  C
  C100     1.0000 0.29650  0.57700  0.86610  Biso   1.000  C
  C101     1.0000 0.11980  0.51720  0.78100  Biso   1.000  C
  C102     1.0000 0.24680  0.51650  0.79680  Biso   1.000  C
  C103     1.0000 0.22510  0.64740  0.92530  Biso   1.000  C
  C104     1.0000 0.17480  0.57850  0.85390  Biso   1.000  C
  C105     1.0000 0.23190  0.59910  0.88120  Biso   1.000  C
  C106     1.0000 0.72830  0.35730  0.81150  Biso   1.000  C
  C107     1.0000 0.73330  0.45650  0.88110  Biso   1.000  C
  C108     1.0000 0.81200  0.45140  0.82170  Biso   1.000  C
  C109     1.0000 0.12590  0.98210  0.80570  Biso   1.000  C
  C110     1.0000 0.31790  0.96220  0.81180  Biso   1.000  C
  C111     1.0000 0.19690  0.96380  0.82400  Biso   1.000  C
  C112     1.0000 0.20350  0.92300  0.86610  Biso   1.000  C
  C113     1.0000 0.38020  0.98280  0.78100  Biso   1.000  C
  C114     1.0000 0.25320  0.98350  0.79680  Biso   1.000  C
  C115     1.0000 0.27490  0.85260  0.92530  Biso   1.000  C
  C116     1.0000 0.32520  0.92150  0.85390  Biso   1.000  C
  C117     1.0000 0.26810  0.90090  0.88120  Biso   1.000  C
  C118     1.0000 0.77170  0.14270  0.81150  Biso   1.000  C
  C119     1.0000 0.76670  0.04350  0.88110  Biso   1.000  C
  C120     1.0000 0.68800  0.04860  0.82170  Biso   1.000  C
  C121     1.0000 0.98210  0.37410  0.30570  Biso   1.000  C
  C122     1.0000 0.96220  0.18210  0.31180  Biso   1.000  C
  C123     1.0000 0.96380  0.30310  0.32400  Biso   1.000  C
  C124     1.0000 0.92300  0.29650  0.36610  Biso   1.000  C
  C125     1.0000 0.98280  0.11980  0.28100  Biso   1.000  C
  C126     1.0000 0.98350  0.24680  0.29680  Biso   1.000  C
  C127     1.0000 0.85260  0.22510  0.42530  Biso   1.000  C
  C128     1.0000 0.92150  0.17480  0.35390  Biso   1.000  C
  C129     1.0000 0.90090  0.23190  0.38120  Biso   1.000  C
  C130     1.0000 0.14270  0.72830  0.31150  Biso   1.000  C
  C131     1.0000 0.04350  0.73330  0.38110  Biso   1.000  C
  C132     1.0000 0.04860  0.81200  0.32170  Biso   1.000  C
  C133     1.0000 0.51790  0.12590  0.30570  Biso   1.000  C
  C134     1.0000 0.53780  0.31790  0.31180  Biso   1.000  C
  C135     1.0000 0.53620  0.19690  0.32400  Biso   1.000  C
  C136     1.0000 0.57700  0.20350  0.36610  Biso   1.000  C
  C137     1.0000 0.51720  0.38020  0.28100  Biso   1.000  C
  C138     1.0000 0.51650  0.25320  0.29680  Biso   1.000  C
  C139     1.0000 0.64740  0.27490  0.42530  Biso   1.000  C
  C140     1.0000 0.57850  0.32520  0.35390  Biso   1.000  C
  C141     1.0000 0.59910  0.26810  0.38120  Biso   1.000  C
  C142     1.0000 0.35730  0.77170  0.31150  Biso   1.000  C
  C143     1.0000 0.45650  0.76670  0.38110  Biso   1.000  C
  C144     1.0000 0.45140  0.68800  0.32170  Biso   1.000  C
  C145     1.0000 0.62590  0.01790  0.69430  Biso   1.000  C
  C146     1.0000 0.81790  0.03780  0.68820  Biso   1.000  C
  C147     1.0000 0.69690  0.03620  0.67600  Biso   1.000  C
  C148     1.0000 0.70350  0.07700  0.63390  Biso   1.000  C
  C149     1.0000 0.88020  0.01720  0.71900  Biso   1.000  C
  C150     1.0000 0.75320  0.01650  0.70320  Biso   1.000  C
  C151     1.0000 0.77490  0.14740  0.57470  Biso   1.000  C
  C152     1.0000 0.82520  0.07850  0.64610  Biso   1.000  C
  C153     1.0000 0.76810  0.09910  0.61880  Biso   1.000  C
  C154     1.0000 0.27170  0.85730  0.68850  Biso   1.000  C
  C155     1.0000 0.26670  0.95650  0.61890  Biso   1.000  C
  C156     1.0000 0.18800  0.95140  0.67830  Biso   1.000  C
  C157     1.0000 0.87410  0.48210  0.69430  Biso   1.000  C
  C158     1.0000 0.68210  0.46220  0.68820  Biso   1.000  C
  C159     1.0000 0.80310  0.46380  0.67600  Biso   1.000  C
  C160     1.0000 0.79650  0.42300  0.63390  Biso   1.000  C
  C161     1.0000 0.61980  0.48280  0.71900  Biso   1.000  C
  C162     1.0000 0.74680  0.48350  0.70320  Biso   1.000  C
  C163     1.0000 0.72510  0.35260  0.57470  Biso   1.000  C
  C164     1.0000 0.67480  0.42150  0.64610  Biso   1.000  C
  C165     1.0000 0.73190  0.40090  0.61880  Biso   1.000  C
  C166     1.0000 0.22830  0.64270  0.68850  Biso   1.000  C
  C167     1.0000 0.23330  0.54350  0.61890  Biso   1.000  C
  C168     1.0000 0.31200  0.54860  0.67830  Biso   1.000  C
  C169     1.0000 0.01790  0.87410  0.19430  Biso   1.000  C
  C170     1.0000 0.03780  0.68210  0.18820  Biso   1.000  C
  C171     1.0000 0.03620  0.80310  0.17600  Biso   1.000  C
  C172     1.0000 0.07700  0.79650  0.13390  Biso   1.000  C
  C173     1.0000 0.01720  0.61980  0.21900  Biso   1.000  C
  C174     1.0000 0.01650  0.74680  0.20320  Biso   1.000  C
  C175     1.0000 0.14740  0.72510  0.07470  Biso   1.000  C
  C176     1.0000 0.07850  0.67480  0.14610  Biso   1.000  C
  C177     1.0000 0.09910  0.73190  0.11880  Biso   1.000  C
  C178     1.0000 0.85730  0.22830  0.18850  Biso   1.000  C
  C179     1.0000 0.95650  0.23330  0.11890  Biso   1.000  C
  C180     1.0000 0.95140  0.31200  0.17830  Biso   1.000  C
  C181     1.0000 0.48210  0.62590  0.19430  Biso   1.000  C
  C182     1.0000 0.46220  0.81790  0.18820  Biso   1.000  C
  C183     1.0000 0.46380  0.69690  0.17600  Biso   1.000  C
  C184     1.0000 0.42300  0.70350  0.13390  Biso   1.000  C
  C185     1.0000 0.48280  0.88020  0.21900  Biso   1.000  C
  C186     1.0000 0.48350  0.75320  0.20320  Biso   1.000  C
  C187     1.0000 0.35260  0.77490  0.07470  Biso   1.000  C
  C188     1.0000 0.42150  0.82520  0.14610  Biso   1.000  C
  C189     1.0000 0.40090  0.76810  0.11880  Biso   1.000  C
  C190     1.0000 0.64270  0.27170  0.18850  Biso   1.000  C
  C191     1.0000 0.54350  0.26670  0.11890  Biso   1.000  C
  C192     1.0000 0.54860  0.18800  0.17830  Biso   1.000  C
  N1       1.0000 0.24530  0.57860  0.16170  Biso   1.000  N
  N2       1.0000 0.25470  0.92140  0.16170  Biso   1.000  N
  N3       1.0000 0.92140  0.24530  0.66170  Biso   1.000  N
  N4       1.0000 0.57860  0.25470  0.66170  Biso   1.000  N
  N5       1.0000 0.75470  0.07860  0.33830  Biso   1.000  N
  N6       1.0000 0.74530  0.42140  0.33830  Biso   1.000  N
  N7       1.0000 0.07860  0.74530  0.83830  Biso   1.000  N
  N8       1.0000 0.42140  0.75470  0.83830  Biso   1.000  N
  N9       1.0000 0.75470  0.42140  0.83830  Biso   1.000  N
  N10      1.0000 0.74530  0.07860  0.83830  Biso   1.000  N
  N11      1.0000 0.07860  0.75470  0.33830  Biso   1.000  N
  N12      1.0000 0.42140  0.74530  0.33830  Biso   1.000  N
  N13      1.0000 0.24530  0.92140  0.66170  Biso   1.000  N
  N14      1.0000 0.25470  0.57860  0.66170  Biso   1.000  N
  N15      1.0000 0.92140  0.25470  0.16170  Biso   1.000  N
  N16      1.0000 0.57860  0.24530  0.16170  Biso   1.000  N
  O1       1.0000 0.83200  0.32800  0.06400  Biso   1.000  O
  O2       1.0000 0.72060  0.33510  0.05160  Biso   1.000  O
  O3       1.0000 0.93640  0.46190  0.20530  Biso   1.000  O
  O4       1.0000 0.87040  0.51610  0.25930  Biso   1.000  O
  O5       1.0000 0.57610  0.45950  0.16950  Biso   1.000  O
  O6       1.0000 0.61990  0.51830  0.23220  Biso   1.000  O
  O7       1.0000 0.16030  0.49420  0.16220  Biso   1.000  O
  O8       1.0000 0.66800  0.17200  0.06400  Biso   1.000  O
  O9       1.0000 0.77940  0.16490  0.05160  Biso   1.000  O
  O10      1.0000 0.56360  0.03810  0.20530  Biso   1.000  O
  O11      1.0000 0.62960  0.98390  0.25930  Biso   1.000  O
  O12      1.0000 0.92390  0.04050  0.16950  Biso   1.000  O
  O13      1.0000 0.88010  0.98170  0.23220  Biso   1.000  O
  O14      1.0000 0.33970  0.00580  0.16220  Biso   1.000  O
  O15      1.0000 0.17200  0.83200  0.56400  Biso   1.000  O
  O16      1.0000 0.16490  0.72060  0.55160  Biso   1.000  O
  O17      1.0000 0.03810  0.93640  0.70530  Biso   1.000  O
  O18      1.0000 0.98390  0.87040  0.75930  Biso   1.000  O
  O19      1.0000 0.04050  0.57610  0.66950  Biso   1.000  O
  O20      1.0000 0.98170  0.61990  0.73220  Biso   1.000  O
  O21      1.0000 0.00580  0.16030  0.66220  Biso   1.000  O
  O22      1.0000 0.32800  0.66800  0.56400  Biso   1.000  O
  O23      1.0000 0.33510  0.77940  0.55160  Biso   1.000  O
  O24      1.0000 0.46190  0.56360  0.70530  Biso   1.000  O
  O25      1.0000 0.51610  0.62960  0.75930  Biso   1.000  O
  O26      1.0000 0.45950  0.92390  0.66950  Biso   1.000  O
  O27      1.0000 0.51830  0.88010  0.73220  Biso   1.000  O
  O28      1.0000 0.49420  0.33970  0.66220  Biso   1.000  O
  O29      1.0000 0.16800  0.82800  0.43600  Biso   1.000  O
  O30      1.0000 0.27940  0.83510  0.44840  Biso   1.000  O
  O31      1.0000 0.06360  0.96190  0.29470  Biso   1.000  O
  O32      1.0000 0.12960  0.01610  0.24070  Biso   1.000  O
  O33      1.0000 0.42390  0.95950  0.33050  Biso   1.000  O
  O34      1.0000 0.38010  0.01830  0.26780  Biso   1.000  O
  O35      1.0000 0.83970  0.99420  0.33780  Biso   1.000  O
  O36      1.0000 0.33200  0.67200  0.43600  Biso   1.000  O
  O37      1.0000 0.22060  0.66490  0.44840  Biso   1.000  O
  O38      1.0000 0.43640  0.53810  0.29470  Biso   1.000  O
  O39      1.0000 0.37040  0.48390  0.24070  Biso   1.000  O
  O40      1.0000 0.07610  0.54050  0.33050  Biso   1.000  O
  O41      1.0000 0.11990  0.48170  0.26780  Biso   1.000  O
  O42      1.0000 0.66030  0.50580  0.33780  Biso   1.000  O
  O43      1.0000 0.82800  0.33200  0.93600  Biso   1.000  O
  O44      1.0000 0.83510  0.22060  0.94840  Biso   1.000  O
  O45      1.0000 0.96190  0.43640  0.79470  Biso   1.000  O
  O46      1.0000 0.01610  0.37040  0.74070  Biso   1.000  O
  O47      1.0000 0.95950  0.07610  0.83050  Biso   1.000  O
  O48      1.0000 0.01830  0.11990  0.76780  Biso   1.000  O
  O49      1.0000 0.99420  0.66030  0.83780  Biso   1.000  O
  O50      1.0000 0.67200  0.16800  0.93600  Biso   1.000  O
  O51      1.0000 0.66490  0.27940  0.94840  Biso   1.000  O
  O52      1.0000 0.53810  0.06360  0.79470  Biso   1.000  O
  O53      1.0000 0.48390  0.12960  0.74070  Biso   1.000  O
  O54      1.0000 0.54050  0.42390  0.83050  Biso   1.000  O
  O55      1.0000 0.48170  0.38010  0.76780  Biso   1.000  O
  O56      1.0000 0.50580  0.83970  0.83780  Biso   1.000  O
  O57      1.0000 0.16800  0.67200  0.93600  Biso   1.000  O
  O58      1.0000 0.27940  0.66490  0.94840  Biso   1.000  O
  O59      1.0000 0.06360  0.53810  0.79470  Biso   1.000  O
  O60      1.0000 0.12960  0.48390  0.74070  Biso   1.000  O
  O61      1.0000 0.42390  0.54050  0.83050  Biso   1.000  O
  O62      1.0000 0.38010  0.48170  0.76780  Biso   1.000  O
  O63      1.0000 0.83970  0.50580  0.83780  Biso   1.000  O
  O64      1.0000 0.33200  0.82800  0.93600  Biso   1.000  O
  O65      1.0000 0.22060  0.83510  0.94840  Biso   1.000  O
  O66      1.0000 0.43640  0.96190  0.79470  Biso   1.000  O
  O67      1.0000 0.37040  0.01610  0.74070  Biso   1.000  O
  O68      1.0000 0.07610  0.95950  0.83050  Biso   1.000  O
  O69      1.0000 0.11990  0.01830  0.76780  Biso   1.000  O
  O70      1.0000 0.66030  0.99420  0.83780  Biso   1.000  O
  O71      1.0000 0.82800  0.16800  0.43600  Biso   1.000  O
  O72      1.0000 0.83510  0.27940  0.44840  Biso   1.000  O
  O73      1.0000 0.96190  0.06360  0.29470  Biso   1.000  O
  O74      1.0000 0.01610  0.12960  0.24070  Biso   1.000  O
  O75      1.0000 0.95950  0.42390  0.33050  Biso   1.000  O
  O76      1.0000 0.01830  0.38010  0.26780  Biso   1.000  O
  O77      1.0000 0.99420  0.83970  0.33780  Biso   1.000  O
  O78      1.0000 0.67200  0.33200  0.43600  Biso   1.000  O
  O79      1.0000 0.66490  0.22060  0.44840  Biso   1.000  O
  O80      1.0000 0.53810  0.43640  0.29470  Biso   1.000  O
  O81      1.0000 0.48390  0.37040  0.24070  Biso   1.000  O
  O82      1.0000 0.54050  0.07610  0.33050  Biso   1.000  O
  O83      1.0000 0.48170  0.11990  0.26780  Biso   1.000  O
  O84      1.0000 0.50580  0.66030  0.33780  Biso   1.000  O
  O85      1.0000 0.83200  0.17200  0.56400  Biso   1.000  O
  O86      1.0000 0.72060  0.16490  0.55160  Biso   1.000  O
  O87      1.0000 0.93640  0.03810  0.70530  Biso   1.000  O
  O88      1.0000 0.87040  0.98390  0.75930  Biso   1.000  O
  O89      1.0000 0.57610  0.04050  0.66950  Biso   1.000  O
  O90      1.0000 0.61990  0.98170  0.73220  Biso   1.000  O
  O91      1.0000 0.16030  0.00580  0.66220  Biso   1.000  O
  O92      1.0000 0.66800  0.32800  0.56400  Biso   1.000  O
  O93      1.0000 0.77940  0.33510  0.55160  Biso   1.000  O
  O94      1.0000 0.56360  0.46190  0.70530  Biso   1.000  O
  O95      1.0000 0.62960  0.51610  0.75930  Biso   1.000  O
  O96      1.0000 0.92390  0.45950  0.66950  Biso   1.000  O
  O97      1.0000 0.88010  0.51830  0.73220  Biso   1.000  O
  O98      1.0000 0.33970  0.49420  0.66220  Biso   1.000  O
  O99      1.0000 0.17200  0.66800  0.06400  Biso   1.000  O
  O100     1.0000 0.16490  0.77940  0.05160  Biso   1.000  O
  O101     1.0000 0.03810  0.56360  0.20530  Biso   1.000  O
  O102     1.0000 0.98390  0.62960  0.25930  Biso   1.000  O
  O103     1.0000 0.04050  0.92390  0.16950  Biso   1.000  O
  O104     1.0000 0.98170  0.88010  0.23220  Biso   1.000  O
  O105     1.0000 0.00580  0.33970  0.16220  Biso   1.000  O
  O106     1.0000 0.32800  0.83200  0.06400  Biso   1.000  O
  O107     1.0000 0.33510  0.72060  0.05160  Biso   1.000  O
  O108     1.0000 0.46190  0.93640  0.20530  Biso   1.000  O
  O109     1.0000 0.51610  0.87040  0.25930  Biso   1.000  O
  O110     1.0000 0.45950  0.57610  0.16950  Biso   1.000  O
  O111     1.0000 0.51830  0.61990  0.23220  Biso   1.000  O
  O112     1.0000 0.49420  0.16030  0.16220  Biso   1.000  O
  O113     1.0000 0.14310  0.35690  0.20010  Biso   1.000  O
  O114     1.0000 0.03800  0.46200  0.10950  Biso   1.000  O
  O115     1.0000 0.91430  0.58570  0.36960  Biso   1.000  O
  O116     1.0000 0.35690  0.14310  0.20010  Biso   1.000  O
  O117     1.0000 0.46200  0.03800  0.10950  Biso   1.000  O
  O118     1.0000 0.58570  0.91430  0.36960  Biso   1.000  O
  O119     1.0000 0.14310  0.14310  0.70010  Biso   1.000  O
  O120     1.0000 0.03800  0.03800  0.60950  Biso   1.000  O
  O121     1.0000 0.91430  0.91430  0.86960  Biso   1.000  O
  O122     1.0000 0.35690  0.35690  0.70010  Biso   1.000  O
  O123     1.0000 0.46200  0.46200  0.60950  Biso   1.000  O
  O124     1.0000 0.58570  0.58570  0.86960  Biso   1.000  O
  O125     1.0000 0.85690  0.85690  0.29990  Biso   1.000  O
  O126     1.0000 0.96200  0.96200  0.39050  Biso   1.000  O
  O127     1.0000 0.08570  0.08570  0.13040  Biso   1.000  O
  O128     1.0000 0.64310  0.64310  0.29990  Biso   1.000  O
  O129     1.0000 0.53800  0.53800  0.39050  Biso   1.000  O
  O130     1.0000 0.41430  0.41430  0.13040  Biso   1.000  O
  O131     1.0000 0.85690  0.64310  0.79990  Biso   1.000  O
  O132     1.0000 0.96200  0.53800  0.89050  Biso   1.000  O
  O133     1.0000 0.08570  0.41430  0.63040  Biso   1.000  O
  O134     1.0000 0.64310  0.85690  0.79990  Biso   1.000  O
  O135     1.0000 0.53800  0.96200  0.89050  Biso   1.000  O
  O136     1.0000 0.41430  0.08570  0.63040  Biso   1.000  O
