data_image0
_cell_length_a       9.141
_cell_length_b       9.667
_cell_length_c       13.855
_cell_angle_alpha    100.83
_cell_angle_beta     90.81
_cell_angle_gamma    100.94

_symmetry_space_group_name_H-M    P 1
_symmetry_int_tables_number       1

loop_
  _symmetry_equiv_pos_as_xyz
  'x, y, z'

loop_
  _atom_site_label
  _atom_site_occupancy
  _atom_site_fract_x
  _atom_site_fract_y
  _atom_site_fract_z
  _atom_site_thermal_displace_type
  _atom_site_B_iso_or_equiv
  _atom_site_type_symbol
  Co1      1.0000 0.84945  0.03944  0.26753  Biso   1.000  Co
  Co2      1.0000 0.15055  0.96056  0.73247  Biso   1.000  Co
  Co3      1.0000 0.00000  0.00000  0.50000  Biso   1.000  Co
  H1       1.0000 0.45960  0.20270  0.19700  Biso   1.000  H
  H2       1.0000 0.58940  0.31620  0.16800  Biso   1.000  H
  H3       1.0000 0.16310  0.06610  0.15160  Biso   1.000  H
  H4       1.0000 0.20010  0.89940  0.00150  Biso   1.000  H
  H5       1.0000 0.79910  0.76950  0.09630  Biso   1.000  H
  H6       1.0000 0.73620  0.65690  0.93100  Biso   1.000  H
  H7       1.0000 0.68270  0.44360  0.81590  Biso   1.000  H
  H8       1.0000 0.11830  0.42860  0.81330  Biso   1.000  H
  H9       1.0000 0.17120  0.63960  0.93050  Biso   1.000  H
  H10      1.0000 0.65160  0.17880  0.76610  Biso   1.000  H
  H11      1.0000 0.68330  0.98640  0.63110  Biso   1.000  H
  H12      1.0000 0.04160  0.28630  0.65330  Biso   1.000  H
  H13      1.0000 0.67470  0.78060  0.48600  Biso   1.000  H
  H14      1.0000 0.53760  0.84240  0.45770  Biso   1.000  H
  H15      1.0000 0.68710  0.54880  0.33140  Biso   1.000  H
  H16      1.0000 0.31160  0.25930  0.31840  Biso   1.000  H
  H17      1.0000 0.32660  0.66500  0.45100  Biso   1.000  H
  H18      1.0000 0.12610  0.46370  0.48380  Biso   1.000  H
  H19      1.0000 0.07480  0.47050  0.37680  Biso   1.000  H
  H20      1.0000 0.54040  0.79730  0.80300  Biso   1.000  H
  H21      1.0000 0.41060  0.68380  0.83200  Biso   1.000  H
  H22      1.0000 0.83690  0.93390  0.84840  Biso   1.000  H
  H23      1.0000 0.79990  0.10060  0.99850  Biso   1.000  H
  H24      1.0000 0.20090  0.23050  0.90370  Biso   1.000  H
  H25      1.0000 0.26380  0.34310  0.06900  Biso   1.000  H
  H26      1.0000 0.31730  0.55640  0.18410  Biso   1.000  H
  H27      1.0000 0.88170  0.57140  0.18670  Biso   1.000  H
  H28      1.0000 0.82880  0.36040  0.06950  Biso   1.000  H
  H29      1.0000 0.34840  0.82120  0.23390  Biso   1.000  H
  H30      1.0000 0.31670  0.01360  0.36890  Biso   1.000  H
  H31      1.0000 0.95840  0.71370  0.34670  Biso   1.000  H
  H32      1.0000 0.32530  0.21940  0.51400  Biso   1.000  H
  H33      1.0000 0.46240  0.15760  0.54230  Biso   1.000  H
  H34      1.0000 0.31290  0.45120  0.66860  Biso   1.000  H
  H35      1.0000 0.68840  0.74070  0.68160  Biso   1.000  H
  H36      1.0000 0.67340  0.33500  0.54900  Biso   1.000  H
  H37      1.0000 0.87390  0.53630  0.51620  Biso   1.000  H
  H38      1.0000 0.92520  0.52950  0.62320  Biso   1.000  H
  C1       1.0000 0.54780  0.27290  0.22100  Biso   1.000  C
  C2       1.0000 0.09440  0.98500  0.12160  Biso   1.000  C
  C3       1.0000 0.11580  0.89350  0.03860  Biso   1.000  C
  C4       1.0000 0.89400  0.82270  0.09190  Biso   1.000  C
  C5       1.0000 0.95730  0.66550  0.94300  Biso   1.000  C
  C6       1.0000 0.81240  0.60970  0.90830  Biso   1.000  C
  C7       1.0000 0.78060  0.48260  0.83920  Biso   1.000  C
  C8       1.0000 0.89470  0.41440  0.80510  Biso   1.000  C
  C9       1.0000 0.04160  0.47350  0.83800  Biso   1.000  C
  C10      1.0000 0.07330  0.59960  0.90770  Biso   1.000  C
  C11      1.0000 0.73380  0.17710  0.72740  Biso   1.000  C
  C12      1.0000 0.75210  0.07130  0.65260  Biso   1.000  C
  C13      1.0000 0.94860  0.23490  0.66430  Biso   1.000  C
  C14      1.0000 0.69740  0.85390  0.35860  Biso   1.000  C
  C15      1.0000 0.60750  0.78250  0.43170  Biso   1.000  C
  C16      1.0000 0.52090  0.63260  0.39590  Biso   1.000  C
  C17      1.0000 0.58720  0.52640  0.34570  Biso   1.000  C
  C18      1.0000 0.51040  0.38860  0.31610  Biso   1.000  C
  C19      1.0000 0.36370  0.35330  0.33800  Biso   1.000  C
  C20      1.0000 0.29360  0.45590  0.38860  Biso   1.000  C
  C21      1.0000 0.37370  0.59490  0.41680  Biso   1.000  C
  C22      1.0000 0.13270  0.42320  0.41480  Biso   1.000  C
  C23      1.0000 0.06400  0.26530  0.39680  Biso   1.000  C
  C24      1.0000 0.66030  0.20200  0.26290  Biso   1.000  C
  C25      1.0000 0.45220  0.72710  0.77900  Biso   1.000  C
  C26      1.0000 0.90560  0.01500  0.87840  Biso   1.000  C
  C27      1.0000 0.88420  0.10650  0.96140  Biso   1.000  C
  C28      1.0000 0.10600  0.17730  0.90810  Biso   1.000  C
  C29      1.0000 0.04270  0.33450  0.05700  Biso   1.000  C
  C30      1.0000 0.18760  0.39030  0.09170  Biso   1.000  C
  C31      1.0000 0.21940  0.51740  0.16080  Biso   1.000  C
  C32      1.0000 0.10530  0.58560  0.19490  Biso   1.000  C
  C33      1.0000 0.95840  0.52650  0.16200  Biso   1.000  C
  C34      1.0000 0.92670  0.40040  0.09230  Biso   1.000  C
  C35      1.0000 0.26620  0.82290  0.27260  Biso   1.000  C
  C36      1.0000 0.24790  0.92870  0.34740  Biso   1.000  C
  C37      1.0000 0.05140  0.76510  0.33570  Biso   1.000  C
  C38      1.0000 0.30260  0.14610  0.64140  Biso   1.000  C
  C39      1.0000 0.39250  0.21750  0.56830  Biso   1.000  C
  C40      1.0000 0.47910  0.36740  0.60410  Biso   1.000  C
  C41      1.0000 0.41280  0.47360  0.65430  Biso   1.000  C
  C42      1.0000 0.48960  0.61140  0.68390  Biso   1.000  C
  C43      1.0000 0.63630  0.64670  0.66200  Biso   1.000  C
  C44      1.0000 0.70640  0.54410  0.61140  Biso   1.000  C
  C45      1.0000 0.62630  0.40510  0.58320  Biso   1.000  C
  C46      1.0000 0.86730  0.57680  0.58520  Biso   1.000  C
  C47      1.0000 0.93600  0.73470  0.60320  Biso   1.000  C
  C48      1.0000 0.33970  0.79800  0.73710  Biso   1.000  C
  N1       1.0000 0.95510  0.93980  0.15480  Biso   1.000  N
  N2       1.0000 0.98740  0.78980  0.02010  Biso   1.000  N
  N3       1.0000 0.86020  0.28160  0.73530  Biso   1.000  N
  N4       1.0000 0.88790  0.10810  0.61270  Biso   1.000  N
  N5       1.0000 0.04490  0.06020  0.84520  Biso   1.000  N
  N6       1.0000 0.01260  0.21020  0.97990  Biso   1.000  N
  N7       1.0000 0.13980  0.71840  0.26470  Biso   1.000  N
  N8       1.0000 0.11210  0.89190  0.38730  Biso   1.000  N
  O1       1.0000 0.80600  0.95990  0.39200  Biso   1.000  O
  O2       1.0000 0.66920  0.81900  0.26920  Biso   1.000  O
  O3       1.0000 0.07460  0.19940  0.46500  Biso   1.000  O
  O4       1.0000 0.00240  0.21150  0.31390  Biso   1.000  O
  O5       1.0000 0.68900  0.09200  0.18190  Biso   1.000  O
  O6       1.0000 0.70030  0.22530  0.34530  Biso   1.000  O
  O7       1.0000 0.19400  0.04010  0.60800  Biso   1.000  O
  O8       1.0000 0.33080  0.18100  0.73080  Biso   1.000  O
  O9       1.0000 0.92540  0.80060  0.53500  Biso   1.000  O
  O10      1.0000 0.99760  0.78850  0.68610  Biso   1.000  O
  O11      1.0000 0.31100  0.90800  0.81810  Biso   1.000  O
  O12      1.0000 0.29970  0.77470  0.65470  Biso   1.000  O
