data_image0
_cell_length_a       10.7868
_cell_length_b       13.9806
_cell_length_c       17.9066
_cell_angle_alpha    111.605
_cell_angle_beta     90
_cell_angle_gamma    90

_symmetry_space_group_name_H-M    P 1
_symmetry_int_tables_number       1

loop_
  _symmetry_equiv_pos_as_xyz
  'x, y, z'

loop_
  _atom_site_label
  _atom_site_occupancy
  _atom_site_fract_x
  _atom_site_fract_y
  _atom_site_fract_z
  _atom_site_thermal_displace_type
  _atom_site_B_iso_or_equiv
  _atom_site_type_symbol
  Zn1      1.0000 0.72189  0.26942  0.17631  Biso   1.000  Zn
  Zn2      1.0000 0.76695  0.75925  0.33053  Biso   1.000  Zn
  Zn3      1.0000 0.22189  0.23058  0.32369  Biso   1.000  Zn
  Zn4      1.0000 0.26695  0.74075  0.16947  Biso   1.000  Zn
  Zn5      1.0000 0.27811  0.73058  0.82369  Biso   1.000  Zn
  Zn6      1.0000 0.23305  0.24075  0.66947  Biso   1.000  Zn
  Zn7      1.0000 0.77811  0.76942  0.67631  Biso   1.000  Zn
  Zn8      1.0000 0.73305  0.25925  0.83053  Biso   1.000  Zn
  H1       1.0000 0.96420  0.55970  0.27040  Biso   1.000  H
  H2       1.0000 0.94400  0.45310  0.19670  Biso   1.000  H
  H3       1.0000 0.95250  0.45480  0.28640  Biso   1.000  H
  H4       1.0000 0.49240  0.36720  0.38570  Biso   1.000  H
  H5       1.0000 0.62540  0.32220  0.35040  Biso   1.000  H
  H6       1.0000 0.53110  0.25360  0.37840  Biso   1.000  H
  H7       1.0000 0.94550  0.73560  0.13200  Biso   1.000  H
  H8       1.0000 0.87330  0.65120  0.15620  Biso   1.000  H
  H9       1.0000 0.00830  0.62630  0.11670  Biso   1.000  H
  H10      1.0000 0.67150  0.08440  0.94390  Biso   1.000  H
  H11      1.0000 0.56980  0.15700  0.92660  Biso   1.000  H
  H12      1.0000 0.57640  0.14780  0.01300  Biso   1.000  H
  H13      1.0000 0.46420  0.94030  0.22960  Biso   1.000  H
  H14      1.0000 0.44400  0.04690  0.30330  Biso   1.000  H
  H15      1.0000 0.45250  0.04520  0.21360  Biso   1.000  H
  H16      1.0000 0.99240  0.13280  0.11430  Biso   1.000  H
  H17      1.0000 0.12540  0.17780  0.14960  Biso   1.000  H
  H18      1.0000 0.03110  0.24640  0.12160  Biso   1.000  H
  H19      1.0000 0.44550  0.76440  0.36800  Biso   1.000  H
  H20      1.0000 0.37330  0.84880  0.34380  Biso   1.000  H
  H21      1.0000 0.50830  0.87370  0.38330  Biso   1.000  H
  H22      1.0000 0.17150  0.41560  0.55610  Biso   1.000  H
  H23      1.0000 0.06980  0.34300  0.57340  Biso   1.000  H
  H24      1.0000 0.07640  0.35220  0.48700  Biso   1.000  H
  H25      1.0000 0.03580  0.44030  0.72960  Biso   1.000  H
  H26      1.0000 0.05600  0.54690  0.80330  Biso   1.000  H
  H27      1.0000 0.04750  0.54520  0.71360  Biso   1.000  H
  H28      1.0000 0.50760  0.63280  0.61430  Biso   1.000  H
  H29      1.0000 0.37460  0.67780  0.64960  Biso   1.000  H
  H30      1.0000 0.46890  0.74640  0.62160  Biso   1.000  H
  H31      1.0000 0.05450  0.26440  0.86800  Biso   1.000  H
  H32      1.0000 0.12670  0.34880  0.84380  Biso   1.000  H
  H33      1.0000 0.99170  0.37370  0.88330  Biso   1.000  H
  H34      1.0000 0.32850  0.91560  0.05610  Biso   1.000  H
  H35      1.0000 0.43020  0.84300  0.07340  Biso   1.000  H
  H36      1.0000 0.42360  0.85220  0.98700  Biso   1.000  H
  H37      1.0000 0.53580  0.05970  0.77040  Biso   1.000  H
  H38      1.0000 0.55600  0.95310  0.69670  Biso   1.000  H
  H39      1.0000 0.54750  0.95480  0.78640  Biso   1.000  H
  H40      1.0000 0.00760  0.86720  0.88570  Biso   1.000  H
  H41      1.0000 0.87460  0.82220  0.85040  Biso   1.000  H
  H42      1.0000 0.96890  0.75360  0.87840  Biso   1.000  H
  H43      1.0000 0.55450  0.23560  0.63200  Biso   1.000  H
  H44      1.0000 0.62670  0.15120  0.65620  Biso   1.000  H
  H45      1.0000 0.49170  0.12630  0.61670  Biso   1.000  H
  H46      1.0000 0.82850  0.58440  0.44390  Biso   1.000  H
  H47      1.0000 0.93020  0.65700  0.42660  Biso   1.000  H
  H48      1.0000 0.92360  0.64780  0.51300  Biso   1.000  H
  C1       1.0000 0.78656  0.50673  0.26177  Biso   1.000  C
  C2       1.0000 0.92358  0.49236  0.25308  Biso   1.000  C
  C3       1.0000 0.48459  0.26272  0.27104  Biso   1.000  C
  C4       1.0000 0.53791  0.30505  0.35342  Biso   1.000  C
  C5       1.0000 0.01163  0.72201  0.23381  Biso   1.000  C
  C6       1.0000 0.95488  0.68023  0.15280  Biso   1.000  C
  C7       1.0000 0.71381  0.23679  0.99489  Biso   1.000  C
  C8       1.0000 0.62533  0.14898  0.96724  Biso   1.000  C
  C9       1.0000 0.28656  0.99327  0.23823  Biso   1.000  C
  C10      1.0000 0.42358  0.00764  0.24692  Biso   1.000  C
  C11      1.0000 0.98459  0.23728  0.22896  Biso   1.000  C
  C12      1.0000 0.03791  0.19495  0.14658  Biso   1.000  C
  C13      1.0000 0.51163  0.77799  0.26619  Biso   1.000  C
  C14      1.0000 0.45488  0.81977  0.34720  Biso   1.000  C
  C15      1.0000 0.21381  0.26321  0.50511  Biso   1.000  C
  C16      1.0000 0.12533  0.35102  0.53276  Biso   1.000  C
  C17      1.0000 0.21344  0.49327  0.73823  Biso   1.000  C
  C18      1.0000 0.07642  0.50764  0.74692  Biso   1.000  C
  C19      1.0000 0.51541  0.73728  0.72896  Biso   1.000  C
  C20      1.0000 0.46209  0.69495  0.64658  Biso   1.000  C
  C21      1.0000 0.98837  0.27799  0.76619  Biso   1.000  C
  C22      1.0000 0.04512  0.31977  0.84720  Biso   1.000  C
  C23      1.0000 0.28619  0.76321  0.00511  Biso   1.000  C
  C24      1.0000 0.37467  0.85102  0.03276  Biso   1.000  C
  C25      1.0000 0.71344  0.00673  0.76177  Biso   1.000  C
  C26      1.0000 0.57642  0.99236  0.75308  Biso   1.000  C
  C27      1.0000 0.01541  0.76272  0.77104  Biso   1.000  C
  C28      1.0000 0.96209  0.80505  0.85342  Biso   1.000  C
  C29      1.0000 0.48837  0.22201  0.73381  Biso   1.000  C
  C30      1.0000 0.54512  0.18023  0.65280  Biso   1.000  C
  C31      1.0000 0.78619  0.73679  0.49489  Biso   1.000  C
  C32      1.0000 0.87467  0.64898  0.46724  Biso   1.000  C
  N1       1.0000 0.72871  0.59715  0.29365  Biso   1.000  N
  N2       1.0000 0.60592  0.57468  0.29386  Biso   1.000  N
  N3       1.0000 0.59125  0.47538  0.26293  Biso   1.000  N
  N4       1.0000 0.70379  0.42985  0.24166  Biso   1.000  N
  N5       1.0000 0.54799  0.23904  0.20241  Biso   1.000  N
  N6       1.0000 0.46388  0.20212  0.14189  Biso   1.000  N
  N7       1.0000 0.35474  0.20283  0.17287  Biso   1.000  N
  N8       1.0000 0.36536  0.24068  0.25424  Biso   1.000  N
  N9       1.0000 0.94981  0.75110  0.30302  Biso   1.000  N
  N10      1.0000 0.03620  0.78449  0.36218  Biso   1.000  N
  N11      1.0000 0.14553  0.77547  0.32935  Biso   1.000  N
  N12      1.0000 0.13265  0.73603  0.24828  Biso   1.000  N
  N13      1.0000 0.75596  0.28268  0.06971  Biso   1.000  N
  N14      1.0000 0.83424  0.35850  0.06842  Biso   1.000  N
  N15      1.0000 0.83857  0.35863  0.99613  Biso   1.000  N
  N16      1.0000 0.76297  0.28270  0.94817  Biso   1.000  N
  N17      1.0000 0.22871  0.90285  0.20635  Biso   1.000  N
  N18      1.0000 0.10592  0.92532  0.20614  Biso   1.000  N
  N19      1.0000 0.09125  0.02462  0.23707  Biso   1.000  N
  N20      1.0000 0.20379  0.07015  0.25834  Biso   1.000  N
  N21      1.0000 0.04799  0.26096  0.29759  Biso   1.000  N
  N22      1.0000 0.96388  0.29788  0.35811  Biso   1.000  N
  N23      1.0000 0.85474  0.29717  0.32713  Biso   1.000  N
  N24      1.0000 0.86536  0.25932  0.24576  Biso   1.000  N
  N25      1.0000 0.44981  0.74890  0.19698  Biso   1.000  N
  N26      1.0000 0.53620  0.71551  0.13782  Biso   1.000  N
  N27      1.0000 0.64553  0.72453  0.17065  Biso   1.000  N
  N28      1.0000 0.63265  0.76397  0.25172  Biso   1.000  N
  N29      1.0000 0.25596  0.21732  0.43029  Biso   1.000  N
  N30      1.0000 0.33424  0.14150  0.43158  Biso   1.000  N
  N31      1.0000 0.33857  0.14137  0.50387  Biso   1.000  N
  N32      1.0000 0.26297  0.21730  0.55183  Biso   1.000  N
  N33      1.0000 0.27129  0.40285  0.70635  Biso   1.000  N
  N34      1.0000 0.39408  0.42532  0.70614  Biso   1.000  N
  N35      1.0000 0.40875  0.52462  0.73707  Biso   1.000  N
  N36      1.0000 0.29621  0.57015  0.75834  Biso   1.000  N
  N37      1.0000 0.45201  0.76096  0.79759  Biso   1.000  N
  N38      1.0000 0.53612  0.79788  0.85811  Biso   1.000  N
  N39      1.0000 0.64526  0.79717  0.82713  Biso   1.000  N
  N40      1.0000 0.63464  0.75932  0.74576  Biso   1.000  N
  N41      1.0000 0.05019  0.24890  0.69698  Biso   1.000  N
  N42      1.0000 0.96380  0.21551  0.63782  Biso   1.000  N
  N43      1.0000 0.85447  0.22453  0.67065  Biso   1.000  N
  N44      1.0000 0.86735  0.26397  0.75172  Biso   1.000  N
  N45      1.0000 0.24404  0.71732  0.93029  Biso   1.000  N
  N46      1.0000 0.16576  0.64150  0.93158  Biso   1.000  N
  N47      1.0000 0.16143  0.64137  0.00387  Biso   1.000  N
  N48      1.0000 0.23703  0.71730  0.05183  Biso   1.000  N
  N49      1.0000 0.77129  0.09715  0.79365  Biso   1.000  N
  N50      1.0000 0.89408  0.07468  0.79386  Biso   1.000  N
  N51      1.0000 0.90875  0.97538  0.76293  Biso   1.000  N
  N52      1.0000 0.79621  0.92985  0.74166  Biso   1.000  N
  N53      1.0000 0.95201  0.73904  0.70241  Biso   1.000  N
  N54      1.0000 0.03612  0.70212  0.64189  Biso   1.000  N
  N55      1.0000 0.14526  0.70283  0.67287  Biso   1.000  N
  N56      1.0000 0.13464  0.74068  0.75424  Biso   1.000  N
  N57      1.0000 0.55019  0.25110  0.80302  Biso   1.000  N
  N58      1.0000 0.46380  0.28449  0.86218  Biso   1.000  N
  N59      1.0000 0.35447  0.27547  0.82935  Biso   1.000  N
  N60      1.0000 0.36735  0.23603  0.74828  Biso   1.000  N
  N61      1.0000 0.74404  0.78268  0.56971  Biso   1.000  N
  N62      1.0000 0.66576  0.85850  0.56842  Biso   1.000  N
  N63      1.0000 0.66143  0.85863  0.49613  Biso   1.000  N
  N64      1.0000 0.73703  0.78270  0.44817  Biso   1.000  N
