data_image0
_cell_length_a       16.021
_cell_length_b       19.247
_cell_length_c       22.482
_cell_angle_alpha    90
_cell_angle_beta     90
_cell_angle_gamma    90.43

_symmetry_space_group_name_H-M    P 1
_symmetry_int_tables_number       1

loop_
  _symmetry_equiv_pos_as_xyz
  'x, y, z'

loop_
  _atom_site_label
  _atom_site_occupancy
  _atom_site_fract_x
  _atom_site_fract_y
  _atom_site_fract_z
  _atom_site_thermal_displace_type
  _atom_site_B_iso_or_equiv
  _atom_site_type_symbol
  Cu1      1.0000 0.75310  0.99593  0.24892  Biso   1.000  Cu
  Cu2      1.0000 0.75700  0.49909  0.24987  Biso   1.000  Cu
  Cu3      1.0000 0.74690  0.00407  0.74892  Biso   1.000  Cu
  Cu4      1.0000 0.74300  0.50091  0.74987  Biso   1.000  Cu
  Cu5      1.0000 0.24690  0.00407  0.75108  Biso   1.000  Cu
  Cu6      1.0000 0.24300  0.50091  0.75013  Biso   1.000  Cu
  Cu7      1.0000 0.25310  0.99593  0.25108  Biso   1.000  Cu
  Cu8      1.0000 0.25700  0.49909  0.25013  Biso   1.000  Cu
  H1       1.0000 0.67140  0.68640  0.06710  Biso   1.000  H
  H2       1.0000 0.70180  0.75570  0.09710  Biso   1.000  H
  H3       1.0000 0.81120  0.66520  0.03410  Biso   1.000  H
  H4       1.0000 0.84010  0.73560  0.06290  Biso   1.000  H
  H5       1.0000 0.76140  0.79680  0.99800  Biso   1.000  H
  H6       1.0000 0.72210  0.72860  0.97230  Biso   1.000  H
  H7       1.0000 0.88550  0.76580  0.95980  Biso   1.000  H
  H8       1.0000 0.84240  0.70020  0.93150  Biso   1.000  H
  H9       1.0000 0.78980  0.83450  0.90620  Biso   1.000  H
  H10      1.0000 0.85770  0.79790  0.86780  Biso   1.000  H
  H11      1.0000 0.72780  0.79240  0.82110  Biso   1.000  H
  H12      1.0000 0.69060  0.75190  0.87570  Biso   1.000  H
  H13      1.0000 0.88650  0.61240  0.75380  Biso   1.000  H
  H14      1.0000 0.67060  0.62640  0.83240  Biso   1.000  H
  H15      1.0000 0.68990  0.51980  0.38240  Biso   1.000  H
  H16      1.0000 0.58520  0.58010  0.23730  Biso   1.000  H
  H17      1.0000 0.43090  0.60760  0.34280  Biso   1.000  H
  H18      1.0000 0.45400  0.63440  0.27880  Biso   1.000  H
  H19      1.0000 0.43910  0.72630  0.33910  Biso   1.000  H
  H20      1.0000 0.50090  0.69480  0.38550  Biso   1.000  H
  H21      1.0000 0.61070  0.71260  0.32250  Biso   1.000  H
  H22      1.0000 0.56500  0.78260  0.33520  Biso   1.000  H
  H23      1.0000 0.60480  0.77170  0.23670  Biso   1.000  H
  H24      1.0000 0.54620  0.70670  0.23030  Biso   1.000  H
  H25      1.0000 0.47500  0.83310  0.26300  Biso   1.000  H
  H26      1.0000 0.43030  0.77020  0.23240  Biso   1.000  H
  H27      1.0000 0.49920  0.80000  0.14320  Biso   1.000  H
  H28      1.0000 0.43510  0.85600  0.16490  Biso   1.000  H
  H29      1.0000 0.58590  0.90620  0.26120  Biso   1.000  H
  H30      1.0000 0.68560  0.97560  0.11570  Biso   1.000  H
  H31      1.0000 0.61190  0.10860  0.24780  Biso   1.000  H
  H32      1.0000 0.82870  0.12490  0.17510  Biso   1.000  H
  H33      1.0000 0.76910  0.29100  0.18610  Biso   1.000  H
  H34      1.0000 0.81530  0.25110  0.13530  Biso   1.000  H
  H35      1.0000 0.72460  0.32830  0.09360  Biso   1.000  H
  H36      1.0000 0.65010  0.29720  0.13030  Biso   1.000  H
  H37      1.0000 0.62330  0.22950  0.06180  Biso   1.000  H
  H38      1.0000 0.70970  0.19420  0.07080  Biso   1.000  H
  H39      1.0000 0.68340  0.30250  0.99920  Biso   1.000  H
  H40      1.0000 0.76570  0.26040  0.00570  Biso   1.000  H
  H41      1.0000 0.63810  0.23360  0.92910  Biso   1.000  H
  H42      1.0000 0.65850  0.16610  0.96650  Biso   1.000  H
  H43      1.0000 0.79930  0.17830  0.94640  Biso   1.000  H
  H44      1.0000 0.78480  0.25060  0.91600  Biso   1.000  H
  H45      1.0000 0.72250  0.17040  0.73240  Biso   1.000  H
  H46      1.0000 0.76100  0.06770  0.87910  Biso   1.000  H
  H47      1.0000 0.79610  0.07820  0.36650  Biso   1.000  H
  H48      1.0000 0.95230  0.01530  0.24770  Biso   1.000  H
  H49      1.0000 0.97490  0.16720  0.40260  Biso   1.000  H
  H50      1.0000 0.89930  0.13580  0.43800  Biso   1.000  H
  H51      1.0000 0.02650  0.11370  0.48730  Biso   1.000  H
  H52      1.0000 0.05820  0.07230  0.43180  Biso   1.000  H
  H53      1.0000 0.95560  0.98700  0.44720  Biso   1.000  H
  H54      1.0000 0.91990  0.02920  0.50120  Biso   1.000  H
  H55      1.0000 0.79990  0.43290  0.12420  Biso   1.000  H
  H56      1.0000 0.95270  0.46570  0.25520  Biso   1.000  H
  H57      1.0000 0.96800  0.32700  0.09020  Biso   1.000  H
  H58      1.0000 0.89390  0.36170  0.05610  Biso   1.000  H
  H59      1.0000 0.02120  0.38480  0.00780  Biso   1.000  H
  H60      1.0000 0.05530  0.42130  0.06520  Biso   1.000  H
  H61      1.0000 0.91880  0.47110  0.00060  Biso   1.000  H
  H62      1.0000 0.95960  0.50880  0.05520  Biso   1.000  H
  H63      1.0000 0.77770  0.66200  0.26990  Biso   1.000  H
  H64      1.0000 0.73510  0.56820  0.11990  Biso   1.000  H
  H65      1.0000 0.82860  0.31360  0.56710  Biso   1.000  H
  H66      1.0000 0.79820  0.24430  0.59710  Biso   1.000  H
  H67      1.0000 0.68880  0.33480  0.53410  Biso   1.000  H
  H68      1.0000 0.65990  0.26440  0.56290  Biso   1.000  H
  H69      1.0000 0.73860  0.20320  0.49800  Biso   1.000  H
  H70      1.0000 0.77790  0.27140  0.47230  Biso   1.000  H
  H71      1.0000 0.61450  0.23420  0.45980  Biso   1.000  H
  H72      1.0000 0.65760  0.29980  0.43150  Biso   1.000  H
  H73      1.0000 0.71020  0.16550  0.40620  Biso   1.000  H
  H74      1.0000 0.64230  0.20210  0.36780  Biso   1.000  H
  H75      1.0000 0.77220  0.20760  0.32110  Biso   1.000  H
  H76      1.0000 0.80940  0.24810  0.37570  Biso   1.000  H
  H77      1.0000 0.61350  0.38760  0.25380  Biso   1.000  H
  H78      1.0000 0.82940  0.37360  0.33240  Biso   1.000  H
  H79      1.0000 0.81010  0.48020  0.88240  Biso   1.000  H
  H80      1.0000 0.91480  0.41990  0.73730  Biso   1.000  H
  H81      1.0000 0.06910  0.39240  0.84280  Biso   1.000  H
  H82      1.0000 0.04600  0.36560  0.77880  Biso   1.000  H
  H83      1.0000 0.06090  0.27370  0.83910  Biso   1.000  H
  H84      1.0000 0.99910  0.30520  0.88550  Biso   1.000  H
  H85      1.0000 0.88930  0.28740  0.82250  Biso   1.000  H
  H86      1.0000 0.93500  0.21740  0.83520  Biso   1.000  H
  H87      1.0000 0.89520  0.22830  0.73670  Biso   1.000  H
  H88      1.0000 0.95380  0.29330  0.73030  Biso   1.000  H
  H89      1.0000 0.02500  0.16690  0.76300  Biso   1.000  H
  H90      1.0000 0.06970  0.22980  0.73240  Biso   1.000  H
  H91      1.0000 0.00080  0.20000  0.64320  Biso   1.000  H
  H92      1.0000 0.06490  0.14400  0.66490  Biso   1.000  H
  H93      1.0000 0.91410  0.09380  0.76120  Biso   1.000  H
  H94      1.0000 0.81440  0.02440  0.61570  Biso   1.000  H
  H95      1.0000 0.88810  0.89140  0.74780  Biso   1.000  H
  H96      1.0000 0.67130  0.87510  0.67510  Biso   1.000  H
  H97      1.0000 0.73090  0.70900  0.68610  Biso   1.000  H
  H98      1.0000 0.68470  0.74890  0.63530  Biso   1.000  H
  H99      1.0000 0.77540  0.67170  0.59360  Biso   1.000  H
  H100     1.0000 0.84990  0.70280  0.63030  Biso   1.000  H
  H101     1.0000 0.87670  0.77050  0.56180  Biso   1.000  H
  H102     1.0000 0.79030  0.80580  0.57080  Biso   1.000  H
  H103     1.0000 0.81660  0.69750  0.49920  Biso   1.000  H
  H104     1.0000 0.73430  0.73960  0.50570  Biso   1.000  H
  H105     1.0000 0.86190  0.76640  0.42910  Biso   1.000  H
  H106     1.0000 0.84150  0.83390  0.46650  Biso   1.000  H
  H107     1.0000 0.70070  0.82170  0.44640  Biso   1.000  H
  H108     1.0000 0.71520  0.74940  0.41600  Biso   1.000  H
  H109     1.0000 0.77750  0.82960  0.23240  Biso   1.000  H
  H110     1.0000 0.73900  0.93230  0.37910  Biso   1.000  H
  H111     1.0000 0.70390  0.92180  0.86650  Biso   1.000  H
  H112     1.0000 0.54770  0.98470  0.74770  Biso   1.000  H
  H113     1.0000 0.52510  0.83280  0.90260  Biso   1.000  H
  H114     1.0000 0.60070  0.86420  0.93800  Biso   1.000  H
  H115     1.0000 0.47350  0.88630  0.98730  Biso   1.000  H
  H116     1.0000 0.44180  0.92770  0.93180  Biso   1.000  H
  H117     1.0000 0.54440  0.01300  0.94720  Biso   1.000  H
  H118     1.0000 0.58010  0.97080  0.00120  Biso   1.000  H
  H119     1.0000 0.70010  0.56710  0.62420  Biso   1.000  H
  H120     1.0000 0.54730  0.53430  0.75520  Biso   1.000  H
  H121     1.0000 0.53200  0.67300  0.59020  Biso   1.000  H
  H122     1.0000 0.60610  0.63830  0.55610  Biso   1.000  H
  H123     1.0000 0.47880  0.61520  0.50780  Biso   1.000  H
  H124     1.0000 0.44470  0.57870  0.56520  Biso   1.000  H
  H125     1.0000 0.58120  0.52890  0.50060  Biso   1.000  H
  H126     1.0000 0.54040  0.49120  0.55520  Biso   1.000  H
  H127     1.0000 0.72230  0.33800  0.76990  Biso   1.000  H
  H128     1.0000 0.76490  0.43180  0.61990  Biso   1.000  H
  H129     1.0000 0.32860  0.31360  0.93290  Biso   1.000  H
  H130     1.0000 0.29820  0.24430  0.90290  Biso   1.000  H
  H131     1.0000 0.18880  0.33480  0.96590  Biso   1.000  H
  H132     1.0000 0.15990  0.26440  0.93710  Biso   1.000  H
  H133     1.0000 0.23860  0.20320  0.00200  Biso   1.000  H
  H134     1.0000 0.27790  0.27140  0.02770  Biso   1.000  H
  H135     1.0000 0.11450  0.23420  0.04020  Biso   1.000  H
  H136     1.0000 0.15760  0.29980  0.06850  Biso   1.000  H
  H137     1.0000 0.21020  0.16550  0.09380  Biso   1.000  H
  H138     1.0000 0.14230  0.20210  0.13220  Biso   1.000  H
  H139     1.0000 0.27220  0.20760  0.17890  Biso   1.000  H
  H140     1.0000 0.30940  0.24810  0.12430  Biso   1.000  H
  H141     1.0000 0.11350  0.38760  0.24620  Biso   1.000  H
  H142     1.0000 0.32940  0.37360  0.16760  Biso   1.000  H
  H143     1.0000 0.31010  0.48020  0.61760  Biso   1.000  H
  H144     1.0000 0.41480  0.41990  0.76270  Biso   1.000  H
  H145     1.0000 0.56910  0.39240  0.65720  Biso   1.000  H
  H146     1.0000 0.54600  0.36560  0.72120  Biso   1.000  H
  H147     1.0000 0.56090  0.27370  0.66090  Biso   1.000  H
  H148     1.0000 0.49910  0.30520  0.61450  Biso   1.000  H
  H149     1.0000 0.38930  0.28740  0.67750  Biso   1.000  H
  H150     1.0000 0.43500  0.21740  0.66480  Biso   1.000  H
  H151     1.0000 0.39520  0.22830  0.76330  Biso   1.000  H
  H152     1.0000 0.45380  0.29330  0.76970  Biso   1.000  H
  H153     1.0000 0.52500  0.16690  0.73700  Biso   1.000  H
  H154     1.0000 0.56970  0.22980  0.76760  Biso   1.000  H
  H155     1.0000 0.50080  0.20000  0.85680  Biso   1.000  H
  H156     1.0000 0.56490  0.14400  0.83510  Biso   1.000  H
  H157     1.0000 0.41410  0.09380  0.73880  Biso   1.000  H
  H158     1.0000 0.31440  0.02440  0.88430  Biso   1.000  H
  H159     1.0000 0.38810  0.89140  0.75220  Biso   1.000  H
  H160     1.0000 0.17130  0.87510  0.82490  Biso   1.000  H
  H161     1.0000 0.23090  0.70900  0.81390  Biso   1.000  H
  H162     1.0000 0.18470  0.74890  0.86470  Biso   1.000  H
  H163     1.0000 0.27540  0.67170  0.90640  Biso   1.000  H
  H164     1.0000 0.34990  0.70280  0.86970  Biso   1.000  H
  H165     1.0000 0.37670  0.77050  0.93820  Biso   1.000  H
  H166     1.0000 0.29030  0.80580  0.92920  Biso   1.000  H
  H167     1.0000 0.31660  0.69750  0.00080  Biso   1.000  H
  H168     1.0000 0.23430  0.73960  0.99430  Biso   1.000  H
  H169     1.0000 0.36190  0.76640  0.07090  Biso   1.000  H
  H170     1.0000 0.34150  0.83390  0.03350  Biso   1.000  H
  H171     1.0000 0.20070  0.82170  0.05360  Biso   1.000  H
  H172     1.0000 0.21520  0.74940  0.08400  Biso   1.000  H
  H173     1.0000 0.27750  0.82960  0.26760  Biso   1.000  H
  H174     1.0000 0.23900  0.93230  0.12090  Biso   1.000  H
  H175     1.0000 0.20390  0.92180  0.63350  Biso   1.000  H
  H176     1.0000 0.04770  0.98470  0.75230  Biso   1.000  H
  H177     1.0000 0.02510  0.83280  0.59740  Biso   1.000  H
  H178     1.0000 0.10070  0.86420  0.56200  Biso   1.000  H
  H179     1.0000 0.97350  0.88630  0.51270  Biso   1.000  H
  H180     1.0000 0.94180  0.92770  0.56820  Biso   1.000  H
  H181     1.0000 0.04440  0.01300  0.55280  Biso   1.000  H
  H182     1.0000 0.08010  0.97080  0.49880  Biso   1.000  H
  H183     1.0000 0.20010  0.56710  0.87580  Biso   1.000  H
  H184     1.0000 0.04730  0.53430  0.74480  Biso   1.000  H
  H185     1.0000 0.03200  0.67300  0.90980  Biso   1.000  H
  H186     1.0000 0.10610  0.63830  0.94390  Biso   1.000  H
  H187     1.0000 0.97880  0.61520  0.99220  Biso   1.000  H
  H188     1.0000 0.94470  0.57870  0.93480  Biso   1.000  H
  H189     1.0000 0.08120  0.52890  0.99940  Biso   1.000  H
  H190     1.0000 0.04040  0.49120  0.94480  Biso   1.000  H
  H191     1.0000 0.22230  0.33800  0.73010  Biso   1.000  H
  H192     1.0000 0.26490  0.43180  0.88010  Biso   1.000  H
  H193     1.0000 0.17140  0.68640  0.43290  Biso   1.000  H
  H194     1.0000 0.20180  0.75570  0.40290  Biso   1.000  H
  H195     1.0000 0.31120  0.66520  0.46590  Biso   1.000  H
  H196     1.0000 0.34010  0.73560  0.43710  Biso   1.000  H
  H197     1.0000 0.26140  0.79680  0.50200  Biso   1.000  H
  H198     1.0000 0.22210  0.72860  0.52770  Biso   1.000  H
  H199     1.0000 0.38550  0.76580  0.54020  Biso   1.000  H
  H200     1.0000 0.34240  0.70020  0.56850  Biso   1.000  H
  H201     1.0000 0.28980  0.83450  0.59380  Biso   1.000  H
  H202     1.0000 0.35770  0.79790  0.63220  Biso   1.000  H
  H203     1.0000 0.22780  0.79240  0.67890  Biso   1.000  H
  H204     1.0000 0.19060  0.75190  0.62430  Biso   1.000  H
  H205     1.0000 0.38650  0.61240  0.74620  Biso   1.000  H
  H206     1.0000 0.17060  0.62640  0.66760  Biso   1.000  H
  H207     1.0000 0.18990  0.51980  0.11760  Biso   1.000  H
  H208     1.0000 0.08520  0.58010  0.26270  Biso   1.000  H
  H209     1.0000 0.93090  0.60760  0.15720  Biso   1.000  H
  H210     1.0000 0.95400  0.63440  0.22120  Biso   1.000  H
  H211     1.0000 0.93910  0.72630  0.16090  Biso   1.000  H
  H212     1.0000 0.00090  0.69480  0.11450  Biso   1.000  H
  H213     1.0000 0.11070  0.71260  0.17750  Biso   1.000  H
  H214     1.0000 0.06500  0.78260  0.16480  Biso   1.000  H
  H215     1.0000 0.10480  0.77170  0.26330  Biso   1.000  H
  H216     1.0000 0.04620  0.70670  0.26970  Biso   1.000  H
  H217     1.0000 0.97500  0.83310  0.23700  Biso   1.000  H
  H218     1.0000 0.93030  0.77020  0.26760  Biso   1.000  H
  H219     1.0000 0.99920  0.80000  0.35680  Biso   1.000  H
  H220     1.0000 0.93510  0.85600  0.33510  Biso   1.000  H
  H221     1.0000 0.08590  0.90620  0.23880  Biso   1.000  H
  H222     1.0000 0.18560  0.97560  0.38430  Biso   1.000  H
  H223     1.0000 0.11190  0.10860  0.25220  Biso   1.000  H
  H224     1.0000 0.32870  0.12490  0.32490  Biso   1.000  H
  H225     1.0000 0.26910  0.29100  0.31390  Biso   1.000  H
  H226     1.0000 0.31530  0.25110  0.36470  Biso   1.000  H
  H227     1.0000 0.22460  0.32830  0.40640  Biso   1.000  H
  H228     1.0000 0.15010  0.29720  0.36970  Biso   1.000  H
  H229     1.0000 0.12330  0.22950  0.43820  Biso   1.000  H
  H230     1.0000 0.20970  0.19420  0.42920  Biso   1.000  H
  H231     1.0000 0.18340  0.30250  0.50080  Biso   1.000  H
  H232     1.0000 0.26570  0.26040  0.49430  Biso   1.000  H
  H233     1.0000 0.13810  0.23360  0.57090  Biso   1.000  H
  H234     1.0000 0.15850  0.16610  0.53350  Biso   1.000  H
  H235     1.0000 0.29930  0.17830  0.55360  Biso   1.000  H
  H236     1.0000 0.28480  0.25060  0.58400  Biso   1.000  H
  H237     1.0000 0.22250  0.17040  0.76760  Biso   1.000  H
  H238     1.0000 0.26100  0.06770  0.62090  Biso   1.000  H
  H239     1.0000 0.29610  0.07820  0.13350  Biso   1.000  H
  H240     1.0000 0.45230  0.01530  0.25230  Biso   1.000  H
  H241     1.0000 0.47490  0.16720  0.09740  Biso   1.000  H
  H242     1.0000 0.39930  0.13580  0.06200  Biso   1.000  H
  H243     1.0000 0.52650  0.11370  0.01270  Biso   1.000  H
  H244     1.0000 0.55820  0.07230  0.06820  Biso   1.000  H
  H245     1.0000 0.45560  0.98700  0.05280  Biso   1.000  H
  H246     1.0000 0.41990  0.02920  0.99880  Biso   1.000  H
  H247     1.0000 0.29990  0.43290  0.37580  Biso   1.000  H
  H248     1.0000 0.45270  0.46570  0.24480  Biso   1.000  H
  H249     1.0000 0.46800  0.32700  0.40980  Biso   1.000  H
  H250     1.0000 0.39390  0.36170  0.44390  Biso   1.000  H
  H251     1.0000 0.52120  0.38480  0.49220  Biso   1.000  H
  H252     1.0000 0.55530  0.42130  0.43480  Biso   1.000  H
  H253     1.0000 0.41880  0.47110  0.49940  Biso   1.000  H
  H254     1.0000 0.45960  0.50880  0.44480  Biso   1.000  H
  H255     1.0000 0.27770  0.66200  0.23010  Biso   1.000  H
  H256     1.0000 0.23510  0.56820  0.38010  Biso   1.000  H
  C1       1.0000 0.71830  0.70890  0.08680  Biso   1.000  C
  C2       1.0000 0.79380  0.71200  0.04360  Biso   1.000  C
  C3       1.0000 0.77300  0.74870  0.98820  Biso   1.000  C
  C4       1.0000 0.83330  0.74780  0.94390  Biso   1.000  C
  C5       1.0000 0.80850  0.78970  0.89200  Biso   1.000  C
  C6       1.0000 0.74070  0.75940  0.85230  Biso   1.000  C
  C7       1.0000 0.84140  0.62980  0.77500  Biso   1.000  C
  C8       1.0000 0.72330  0.63630  0.81710  Biso   1.000  C
  C9       1.0000 0.65230  0.53950  0.35580  Biso   1.000  C
  C10      1.0000 0.59660  0.57120  0.27710  Biso   1.000  C
  C11      1.0000 0.47370  0.63080  0.31950  Biso   1.000  C
  C12      1.0000 0.48950  0.69910  0.34330  Biso   1.000  C
  C13      1.0000 0.55960  0.73800  0.31530  Biso   1.000  C
  C14      1.0000 0.55290  0.75090  0.25040  Biso   1.000  C
  C15      1.0000 0.48110  0.79790  0.23250  Biso   1.000  C
  C16      1.0000 0.48760  0.83370  0.17420  Biso   1.000  C
  C17      1.0000 0.59800  0.91440  0.22130  Biso   1.000  C
  C18      1.0000 0.65120  0.95150  0.14200  Biso   1.000  C
  C19      1.0000 0.65770  0.12600  0.22710  Biso   1.000  C
  C20      1.0000 0.77470  0.13350  0.18820  Biso   1.000  C
  C21      1.0000 0.76160  0.25740  0.15440  Biso   1.000  C
  C22      1.0000 0.70170  0.28570  0.11010  Biso   1.000  C
  C23      1.0000 0.68300  0.23800  0.06180  Biso   1.000  C
  C24      1.0000 0.70500  0.25630  0.00630  Biso   1.000  C
  C25      1.0000 0.67970  0.21100  0.95360  Biso   1.000  C
  C26      1.0000 0.76090  0.20470  0.92200  Biso   1.000  C
  C27      1.0000 0.73150  0.16020  0.77230  Biso   1.000  C
  C28      1.0000 0.75190  0.10290  0.85160  Biso   1.000  C
  C29      1.0000 0.84480  0.06840  0.34570  Biso   1.000  C
  C30      1.0000 0.93090  0.03450  0.28240  Biso   1.000  C
  C31      1.0000 0.94830  0.12410  0.41490  Biso   1.000  C
  C32      1.0000 0.00900  0.08400  0.45470  Biso   1.000  C
  C33      1.0000 0.97050  0.01790  0.47970  Biso   1.000  C
  C34      1.0000 0.84710  0.43300  0.14830  Biso   1.000  C
  C35      1.0000 0.93110  0.45090  0.21890  Biso   1.000  C
  C36      1.0000 0.94340  0.37120  0.07960  Biso   1.000  C
  C37      1.0000 0.00540  0.41240  0.04190  Biso   1.000  C
  C38      1.0000 0.97130  0.47990  0.02090  Biso   1.000  C
  C39      1.0000 0.76570  0.65460  0.22990  Biso   1.000  C
  C40      1.0000 0.74250  0.60190  0.14910  Biso   1.000  C
  C41      1.0000 0.78170  0.29110  0.58680  Biso   1.000  C
  C42      1.0000 0.70620  0.28800  0.54360  Biso   1.000  C
  C43      1.0000 0.72700  0.25130  0.48820  Biso   1.000  C
  C44      1.0000 0.66670  0.25220  0.44390  Biso   1.000  C
  C45      1.0000 0.69150  0.21030  0.39200  Biso   1.000  C
  C46      1.0000 0.75930  0.24060  0.35230  Biso   1.000  C
  C47      1.0000 0.65860  0.37020  0.27500  Biso   1.000  C
  C48      1.0000 0.77670  0.36370  0.31710  Biso   1.000  C
  C49      1.0000 0.84770  0.46050  0.85580  Biso   1.000  C
  C50      1.0000 0.90340  0.42880  0.77710  Biso   1.000  C
  C51      1.0000 0.02630  0.36920  0.81950  Biso   1.000  C
  C52      1.0000 0.01050  0.30090  0.84330  Biso   1.000  C
  C53      1.0000 0.94040  0.26200  0.81530  Biso   1.000  C
  C54      1.0000 0.94710  0.24910  0.75040  Biso   1.000  C
  C55      1.0000 0.01890  0.20210  0.73250  Biso   1.000  C
  C56      1.0000 0.01240  0.16630  0.67420  Biso   1.000  C
  C57      1.0000 0.90200  0.08560  0.72130  Biso   1.000  C
  C58      1.0000 0.84880  0.04850  0.64200  Biso   1.000  C
  C59      1.0000 0.84230  0.87400  0.72710  Biso   1.000  C
  C60      1.0000 0.72530  0.86650  0.68820  Biso   1.000  C
  C61      1.0000 0.73840  0.74260  0.65440  Biso   1.000  C
  C62      1.0000 0.79830  0.71430  0.61010  Biso   1.000  C
  C63      1.0000 0.81700  0.76200  0.56180  Biso   1.000  C
  C64      1.0000 0.79500  0.74370  0.50630  Biso   1.000  C
  C65      1.0000 0.82030  0.78900  0.45360  Biso   1.000  C
  C66      1.0000 0.73910  0.79530  0.42200  Biso   1.000  C
  C67      1.0000 0.76850  0.83980  0.27230  Biso   1.000  C
  C68      1.0000 0.74810  0.89710  0.35160  Biso   1.000  C
  C69      1.0000 0.65520  0.93160  0.84570  Biso   1.000  C
  C70      1.0000 0.56910  0.96550  0.78240  Biso   1.000  C
  C71      1.0000 0.55170  0.87590  0.91490  Biso   1.000  C
  C72      1.0000 0.49100  0.91600  0.95470  Biso   1.000  C
  C73      1.0000 0.52950  0.98210  0.97970  Biso   1.000  C
  C74      1.0000 0.65290  0.56700  0.64830  Biso   1.000  C
  C75      1.0000 0.56890  0.54910  0.71890  Biso   1.000  C
  C76      1.0000 0.55660  0.62880  0.57960  Biso   1.000  C
  C77      1.0000 0.49460  0.58760  0.54190  Biso   1.000  C
  C78      1.0000 0.52870  0.52010  0.52090  Biso   1.000  C
  C79      1.0000 0.73430  0.34540  0.72990  Biso   1.000  C
  C80      1.0000 0.75750  0.39810  0.64910  Biso   1.000  C
  C81      1.0000 0.28170  0.29110  0.91320  Biso   1.000  C
  C82      1.0000 0.20620  0.28800  0.95640  Biso   1.000  C
  C83      1.0000 0.22700  0.25130  0.01180  Biso   1.000  C
  C84      1.0000 0.16670  0.25220  0.05610  Biso   1.000  C
  C85      1.0000 0.19150  0.21030  0.10800  Biso   1.000  C
  C86      1.0000 0.25930  0.24060  0.14770  Biso   1.000  C
  C87      1.0000 0.15860  0.37020  0.22500  Biso   1.000  C
  C88      1.0000 0.27670  0.36370  0.18290  Biso   1.000  C
  C89      1.0000 0.34770  0.46050  0.64420  Biso   1.000  C
  C90      1.0000 0.40340  0.42880  0.72290  Biso   1.000  C
  C91      1.0000 0.52630  0.36920  0.68050  Biso   1.000  C
  C92      1.0000 0.51050  0.30090  0.65670  Biso   1.000  C
  C93      1.0000 0.44040  0.26200  0.68470  Biso   1.000  C
  C94      1.0000 0.44710  0.24910  0.74960  Biso   1.000  C
  C95      1.0000 0.51890  0.20210  0.76750  Biso   1.000  C
  C96      1.0000 0.51240  0.16630  0.82580  Biso   1.000  C
  C97      1.0000 0.40200  0.08560  0.77870  Biso   1.000  C
  C98      1.0000 0.34880  0.04850  0.85800  Biso   1.000  C
  C99      1.0000 0.34230  0.87400  0.77290  Biso   1.000  C
  C100     1.0000 0.22530  0.86650  0.81180  Biso   1.000  C
  C101     1.0000 0.23840  0.74260  0.84560  Biso   1.000  C
  C102     1.0000 0.29830  0.71430  0.88990  Biso   1.000  C
  C103     1.0000 0.31700  0.76200  0.93820  Biso   1.000  C
  C104     1.0000 0.29500  0.74370  0.99370  Biso   1.000  C
  C105     1.0000 0.32030  0.78900  0.04640  Biso   1.000  C
  C106     1.0000 0.23910  0.79530  0.07800  Biso   1.000  C
  C107     1.0000 0.26850  0.83980  0.22770  Biso   1.000  C
  C108     1.0000 0.24810  0.89710  0.14840  Biso   1.000  C
  C109     1.0000 0.15520  0.93160  0.65430  Biso   1.000  C
  C110     1.0000 0.06910  0.96550  0.71760  Biso   1.000  C
  C111     1.0000 0.05170  0.87590  0.58510  Biso   1.000  C
  C112     1.0000 0.99100  0.91600  0.54530  Biso   1.000  C
  C113     1.0000 0.02950  0.98210  0.52030  Biso   1.000  C
  C114     1.0000 0.15290  0.56700  0.85170  Biso   1.000  C
  C115     1.0000 0.06890  0.54910  0.78110  Biso   1.000  C
  C116     1.0000 0.05660  0.62880  0.92040  Biso   1.000  C
  C117     1.0000 0.99460  0.58760  0.95810  Biso   1.000  C
  C118     1.0000 0.02870  0.52010  0.97910  Biso   1.000  C
  C119     1.0000 0.23430  0.34540  0.77010  Biso   1.000  C
  C120     1.0000 0.25750  0.39810  0.85090  Biso   1.000  C
  C121     1.0000 0.21830  0.70890  0.41320  Biso   1.000  C
  C122     1.0000 0.29380  0.71200  0.45640  Biso   1.000  C
  C123     1.0000 0.27300  0.74870  0.51180  Biso   1.000  C
  C124     1.0000 0.33330  0.74780  0.55610  Biso   1.000  C
  C125     1.0000 0.30850  0.78970  0.60800  Biso   1.000  C
  C126     1.0000 0.24070  0.75940  0.64770  Biso   1.000  C
  C127     1.0000 0.34140  0.62980  0.72500  Biso   1.000  C
  C128     1.0000 0.22330  0.63630  0.68290  Biso   1.000  C
  C129     1.0000 0.15230  0.53950  0.14420  Biso   1.000  C
  C130     1.0000 0.09660  0.57120  0.22290  Biso   1.000  C
  C131     1.0000 0.97370  0.63080  0.18050  Biso   1.000  C
  C132     1.0000 0.98950  0.69910  0.15670  Biso   1.000  C
  C133     1.0000 0.05960  0.73800  0.18470  Biso   1.000  C
  C134     1.0000 0.05290  0.75090  0.24960  Biso   1.000  C
  C135     1.0000 0.98110  0.79790  0.26750  Biso   1.000  C
  C136     1.0000 0.98760  0.83370  0.32580  Biso   1.000  C
  C137     1.0000 0.09800  0.91440  0.27870  Biso   1.000  C
  C138     1.0000 0.15120  0.95150  0.35800  Biso   1.000  C
  C139     1.0000 0.15770  0.12600  0.27290  Biso   1.000  C
  C140     1.0000 0.27470  0.13350  0.31180  Biso   1.000  C
  C141     1.0000 0.26160  0.25740  0.34560  Biso   1.000  C
  C142     1.0000 0.20170  0.28570  0.38990  Biso   1.000  C
  C143     1.0000 0.18300  0.23800  0.43820  Biso   1.000  C
  C144     1.0000 0.20500  0.25630  0.49370  Biso   1.000  C
  C145     1.0000 0.17970  0.21100  0.54640  Biso   1.000  C
  C146     1.0000 0.26090  0.20470  0.57800  Biso   1.000  C
  C147     1.0000 0.23150  0.16020  0.72770  Biso   1.000  C
  C148     1.0000 0.25190  0.10290  0.64840  Biso   1.000  C
  C149     1.0000 0.34480  0.06840  0.15430  Biso   1.000  C
  C150     1.0000 0.43090  0.03450  0.21760  Biso   1.000  C
  C151     1.0000 0.44830  0.12410  0.08510  Biso   1.000  C
  C152     1.0000 0.50900  0.08400  0.04530  Biso   1.000  C
  C153     1.0000 0.47050  0.01790  0.02030  Biso   1.000  C
  C154     1.0000 0.34710  0.43300  0.35170  Biso   1.000  C
  C155     1.0000 0.43110  0.45090  0.28110  Biso   1.000  C
  C156     1.0000 0.44340  0.37120  0.42040  Biso   1.000  C
  C157     1.0000 0.50540  0.41240  0.45810  Biso   1.000  C
  C158     1.0000 0.47130  0.47990  0.47910  Biso   1.000  C
  C159     1.0000 0.26570  0.65460  0.27010  Biso   1.000  C
  C160     1.0000 0.24250  0.60190  0.35090  Biso   1.000  C
  N1       1.0000 0.75880  0.58970  0.20520  Biso   1.000  N
  N2       1.0000 0.75380  0.70570  0.19140  Biso   1.000  N
  N3       1.0000 0.73830  0.67100  0.14050  Biso   1.000  N
  N4       1.0000 0.84110  0.69060  0.80050  Biso   1.000  N
  N5       1.0000 0.76610  0.69400  0.82560  Biso   1.000  N
  N6       1.0000 0.76810  0.59460  0.78300  Biso   1.000  N
  N7       1.0000 0.66240  0.53690  0.29710  Biso   1.000  N
  N8       1.0000 0.55090  0.59020  0.32110  Biso   1.000  N
  N9       1.0000 0.58660  0.57140  0.37270  Biso   1.000  N
  N10      1.0000 0.66000  0.95570  0.20170  Biso   1.000  N
  N11      1.0000 0.59030  0.91080  0.12400  Biso   1.000  N
  N12      1.0000 0.55680  0.88740  0.17660  Biso   1.000  N
  N13      1.0000 0.72730  0.08850  0.21810  Biso   1.000  N
  N14      1.0000 0.73450  0.19170  0.17990  Biso   1.000  N
  N15      1.0000 0.65910  0.18860  0.20460  Biso   1.000  N
  N16      1.0000 0.75020  0.16960  0.86330  Biso   1.000  N
  N17      1.0000 0.73880  0.20640  0.81270  Biso   1.000  N
  N18      1.0000 0.73840  0.09410  0.79400  Biso   1.000  N
  N19      1.0000 0.84880  0.03480  0.29530  Biso   1.000  N
  N20      1.0000 0.97700  0.06310  0.32230  Biso   1.000  N
  N21      1.0000 0.92210  0.08650  0.36240  Biso   1.000  N
  N22      1.0000 0.85150  0.45890  0.20250  Biso   1.000  N
  N23      1.0000 0.97530  0.41990  0.17780  Biso   1.000  N
  N24      1.0000 0.91910  0.40780  0.13410  Biso   1.000  N
  N25      1.0000 0.74120  0.41030  0.70520  Biso   1.000  N
  N26      1.0000 0.74620  0.29430  0.69140  Biso   1.000  N
  N27      1.0000 0.76170  0.32900  0.64050  Biso   1.000  N
  N28      1.0000 0.65890  0.30940  0.30050  Biso   1.000  N
  N29      1.0000 0.73390  0.30600  0.32560  Biso   1.000  N
  N30      1.0000 0.73190  0.40540  0.28300  Biso   1.000  N
  N31      1.0000 0.83760  0.46310  0.79710  Biso   1.000  N
  N32      1.0000 0.94910  0.40980  0.82110  Biso   1.000  N
  N33      1.0000 0.91340  0.42860  0.87270  Biso   1.000  N
  N34      1.0000 0.84000  0.04430  0.70170  Biso   1.000  N
  N35      1.0000 0.90970  0.08920  0.62400  Biso   1.000  N
  N36      1.0000 0.94320  0.11260  0.67660  Biso   1.000  N
  N37      1.0000 0.77270  0.91150  0.71810  Biso   1.000  N
  N38      1.0000 0.76550  0.80830  0.67990  Biso   1.000  N
  N39      1.0000 0.84090  0.81140  0.70460  Biso   1.000  N
  N40      1.0000 0.74980  0.83040  0.36330  Biso   1.000  N
  N41      1.0000 0.76120  0.79360  0.31270  Biso   1.000  N
  N42      1.0000 0.76160  0.90590  0.29400  Biso   1.000  N
  N43      1.0000 0.65120  0.96520  0.79530  Biso   1.000  N
  N44      1.0000 0.52300  0.93690  0.82230  Biso   1.000  N
  N45      1.0000 0.57790  0.91350  0.86240  Biso   1.000  N
  N46      1.0000 0.64850  0.54110  0.70250  Biso   1.000  N
  N47      1.0000 0.52470  0.58010  0.67780  Biso   1.000  N
  N48      1.0000 0.58090  0.59220  0.63410  Biso   1.000  N
  N49      1.0000 0.24120  0.41030  0.79480  Biso   1.000  N
  N50      1.0000 0.24620  0.29430  0.80860  Biso   1.000  N
  N51      1.0000 0.26170  0.32900  0.85950  Biso   1.000  N
  N52      1.0000 0.15890  0.30940  0.19950  Biso   1.000  N
  N53      1.0000 0.23390  0.30600  0.17440  Biso   1.000  N
  N54      1.0000 0.23190  0.40540  0.21700  Biso   1.000  N
  N55      1.0000 0.33760  0.46310  0.70290  Biso   1.000  N
  N56      1.0000 0.44910  0.40980  0.67890  Biso   1.000  N
  N57      1.0000 0.41340  0.42860  0.62730  Biso   1.000  N
  N58      1.0000 0.34000  0.04430  0.79830  Biso   1.000  N
  N59      1.0000 0.40970  0.08920  0.87600  Biso   1.000  N
  N60      1.0000 0.44320  0.11260  0.82340  Biso   1.000  N
  N61      1.0000 0.27270  0.91150  0.78190  Biso   1.000  N
  N62      1.0000 0.26550  0.80830  0.82010  Biso   1.000  N
  N63      1.0000 0.34090  0.81140  0.79540  Biso   1.000  N
  N64      1.0000 0.24980  0.83040  0.13670  Biso   1.000  N
  N65      1.0000 0.26120  0.79360  0.18730  Biso   1.000  N
  N66      1.0000 0.26160  0.90590  0.20600  Biso   1.000  N
  N67      1.0000 0.15120  0.96520  0.70470  Biso   1.000  N
  N68      1.0000 0.02300  0.93690  0.67770  Biso   1.000  N
  N69      1.0000 0.07790  0.91350  0.63760  Biso   1.000  N
  N70      1.0000 0.14850  0.54110  0.79750  Biso   1.000  N
  N71      1.0000 0.02470  0.58010  0.82220  Biso   1.000  N
  N72      1.0000 0.08090  0.59220  0.86590  Biso   1.000  N
  N73      1.0000 0.25880  0.58970  0.29480  Biso   1.000  N
  N74      1.0000 0.25380  0.70570  0.30860  Biso   1.000  N
  N75      1.0000 0.23830  0.67100  0.35950  Biso   1.000  N
  N76      1.0000 0.34110  0.69060  0.69950  Biso   1.000  N
  N77      1.0000 0.26610  0.69400  0.67440  Biso   1.000  N
  N78      1.0000 0.26810  0.59460  0.71700  Biso   1.000  N
  N79      1.0000 0.16240  0.53690  0.20290  Biso   1.000  N
  N80      1.0000 0.05090  0.59020  0.17890  Biso   1.000  N
  N81      1.0000 0.08660  0.57140  0.12730  Biso   1.000  N
  N82      1.0000 0.16000  0.95570  0.29830  Biso   1.000  N
  N83      1.0000 0.09030  0.91080  0.37600  Biso   1.000  N
  N84      1.0000 0.05680  0.88740  0.32340  Biso   1.000  N
  N85      1.0000 0.22730  0.08850  0.28190  Biso   1.000  N
  N86      1.0000 0.23450  0.19170  0.32010  Biso   1.000  N
  N87      1.0000 0.15910  0.18860  0.29540  Biso   1.000  N
  N88      1.0000 0.25020  0.16960  0.63670  Biso   1.000  N
  N89      1.0000 0.23880  0.20640  0.68730  Biso   1.000  N
  N90      1.0000 0.23840  0.09410  0.70600  Biso   1.000  N
  N91      1.0000 0.34880  0.03480  0.20470  Biso   1.000  N
  N92      1.0000 0.47700  0.06310  0.17770  Biso   1.000  N
  N93      1.0000 0.42210  0.08650  0.13760  Biso   1.000  N
  N94      1.0000 0.35150  0.45890  0.29750  Biso   1.000  N
  N95      1.0000 0.47530  0.41990  0.32220  Biso   1.000  N
  N96      1.0000 0.41910  0.40780  0.36590  Biso   1.000  N
