data_image0
_cell_length_a       10.3322
_cell_length_b       10.3322
_cell_length_c       18.981
_cell_angle_alpha    81.09
_cell_angle_beta     81.09
_cell_angle_gamma    82.4101

_symmetry_space_group_name_H-M    P 1
_symmetry_int_tables_number       1

loop_
  _symmetry_equiv_pos_as_xyz
  'x, y, z'

loop_
  _atom_site_label
  _atom_site_occupancy
  _atom_site_fract_x
  _atom_site_fract_y
  _atom_site_fract_z
  _atom_site_thermal_displace_type
  _atom_site_B_iso_or_equiv
  _atom_site_type_symbol
  Ca1      1.0000 0.07677  0.85235  0.06595  Biso   1.000  Ca
  Ca2      1.0000 0.14765  0.92323  0.43405  Biso   1.000  Ca
  Ca3      1.0000 0.92323  0.14765  0.93405  Biso   1.000  Ca
  Ca4      1.0000 0.85235  0.07677  0.56595  Biso   1.000  Ca
  Ca5      1.0000 0.19807  0.80193  0.25000  Biso   1.000  Ca
  Ca6      1.0000 0.80193  0.19807  0.75000  Biso   1.000  Ca
  H1       1.0000 0.63590  0.81890  0.22860  Biso   1.000  H
  H2       1.0000 0.55990  0.88390  0.43480  Biso   1.000  H
  H3       1.0000 0.38020  0.13160  0.15480  Biso   1.000  H
  H4       1.0000 0.52690  0.08050  0.12870  Biso   1.000  H
  H5       1.0000 0.44610  0.00010  0.19380  Biso   1.000  H
  H6       1.0000 0.91990  0.92730  0.32200  Biso   1.000  H
  H7       1.0000 0.50620  0.77960  0.13470  Biso   1.000  H
  H8       1.0000 0.59610  0.86310  0.07550  Biso   1.000  H
  H9       1.0000 0.50020  0.77620  0.05300  Biso   1.000  H
  H10      1.0000 0.28080  0.79900  0.94760  Biso   1.000  H
  H11      1.0000 0.21930  0.93150  0.92540  Biso   1.000  H
  H12      1.0000 0.18110  0.36410  0.27140  Biso   1.000  H
  H13      1.0000 0.11610  0.44010  0.06520  Biso   1.000  H
  H14      1.0000 0.86840  0.61980  0.34520  Biso   1.000  H
  H15      1.0000 0.91950  0.47310  0.37130  Biso   1.000  H
  H16      1.0000 0.99990  0.55390  0.30620  Biso   1.000  H
  H17      1.0000 0.07270  0.08010  0.17800  Biso   1.000  H
  H18      1.0000 0.22040  0.49380  0.36530  Biso   1.000  H
  H19      1.0000 0.13690  0.40390  0.42450  Biso   1.000  H
  H20      1.0000 0.22380  0.49980  0.44700  Biso   1.000  H
  H21      1.0000 0.20100  0.71920  0.55240  Biso   1.000  H
  H22      1.0000 0.06850  0.78070  0.57460  Biso   1.000  H
  H23      1.0000 0.36410  0.18110  0.77140  Biso   1.000  H
  H24      1.0000 0.44010  0.11610  0.56520  Biso   1.000  H
  H25      1.0000 0.61980  0.86840  0.84520  Biso   1.000  H
  H26      1.0000 0.47310  0.91950  0.87130  Biso   1.000  H
  H27      1.0000 0.55390  0.99990  0.80620  Biso   1.000  H
  H28      1.0000 0.08010  0.07270  0.67800  Biso   1.000  H
  H29      1.0000 0.49380  0.22040  0.86530  Biso   1.000  H
  H30      1.0000 0.40390  0.13690  0.92450  Biso   1.000  H
  H31      1.0000 0.49980  0.22380  0.94700  Biso   1.000  H
  H32      1.0000 0.71920  0.20100  0.05240  Biso   1.000  H
  H33      1.0000 0.78070  0.06850  0.07460  Biso   1.000  H
  H34      1.0000 0.81890  0.63590  0.72860  Biso   1.000  H
  H35      1.0000 0.88390  0.55990  0.93480  Biso   1.000  H
  H36      1.0000 0.13160  0.38020  0.65480  Biso   1.000  H
  H37      1.0000 0.08050  0.52690  0.62870  Biso   1.000  H
  H38      1.0000 0.00010  0.44610  0.69380  Biso   1.000  H
  H39      1.0000 0.92730  0.91990  0.82200  Biso   1.000  H
  H40      1.0000 0.77960  0.50620  0.63470  Biso   1.000  H
  H41      1.0000 0.86310  0.59610  0.57550  Biso   1.000  H
  H42      1.0000 0.77620  0.50020  0.55300  Biso   1.000  H
  H43      1.0000 0.79900  0.28080  0.44760  Biso   1.000  H
  H44      1.0000 0.93150  0.21930  0.42540  Biso   1.000  H
  C1       1.0000 0.88440  0.87100  0.19350  Biso   1.000  C
  C2       1.0000 0.66400  0.84240  0.26870  Biso   1.000  C
  C3       1.0000 0.43640  0.81420  0.33540  Biso   1.000  C
  C4       1.0000 0.74850  0.91010  0.38870  Biso   1.000  C
  C5       1.0000 0.57700  0.84400  0.33190  Biso   1.000  C
  C6       1.0000 0.79170  0.87450  0.26320  Biso   1.000  C
  C7       1.0000 0.61820  0.88000  0.39240  Biso   1.000  C
  C8       1.0000 0.44120  0.05460  0.14820  Biso   1.000  C
  C9       1.0000 0.83400  0.90720  0.32440  Biso   1.000  C
  C10      1.0000 0.79330  0.94890  0.45390  Biso   1.000  C
  C11      1.0000 0.51150  0.83070  0.08770  Biso   1.000  C
  C12      1.0000 0.12900  0.11560  0.30650  Biso   1.000  C
  C13      1.0000 0.15760  0.33600  0.23130  Biso   1.000  C
  C14      1.0000 0.18580  0.56360  0.16460  Biso   1.000  C
  C15      1.0000 0.08990  0.25150  0.11130  Biso   1.000  C
  C16      1.0000 0.15600  0.42300  0.16810  Biso   1.000  C
  C17      1.0000 0.12550  0.20830  0.23680  Biso   1.000  C
  C18      1.0000 0.12000  0.38180  0.10760  Biso   1.000  C
  C19      1.0000 0.94540  0.55880  0.35180  Biso   1.000  C
  C20      1.0000 0.09280  0.16600  0.17560  Biso   1.000  C
  C21      1.0000 0.05110  0.20670  0.04610  Biso   1.000  C
  C22      1.0000 0.16930  0.48850  0.41230  Biso   1.000  C
  C23      1.0000 0.11560  0.12900  0.80650  Biso   1.000  C
  C24      1.0000 0.33600  0.15760  0.73130  Biso   1.000  C
  C25      1.0000 0.56360  0.18580  0.66460  Biso   1.000  C
  C26      1.0000 0.25150  0.08990  0.61130  Biso   1.000  C
  C27      1.0000 0.42300  0.15600  0.66810  Biso   1.000  C
  C28      1.0000 0.20830  0.12550  0.73680  Biso   1.000  C
  C29      1.0000 0.38180  0.12000  0.60760  Biso   1.000  C
  C30      1.0000 0.55880  0.94540  0.85180  Biso   1.000  C
  C31      1.0000 0.16600  0.09280  0.67560  Biso   1.000  C
  C32      1.0000 0.20670  0.05110  0.54610  Biso   1.000  C
  C33      1.0000 0.48850  0.16930  0.91230  Biso   1.000  C
  C34      1.0000 0.87100  0.88440  0.69350  Biso   1.000  C
  C35      1.0000 0.84240  0.66400  0.76870  Biso   1.000  C
  C36      1.0000 0.81420  0.43640  0.83540  Biso   1.000  C
  C37      1.0000 0.91010  0.74850  0.88870  Biso   1.000  C
  C38      1.0000 0.84400  0.57700  0.83190  Biso   1.000  C
  C39      1.0000 0.87450  0.79170  0.76320  Biso   1.000  C
  C40      1.0000 0.88000  0.61820  0.89240  Biso   1.000  C
  C41      1.0000 0.05460  0.44120  0.64820  Biso   1.000  C
  C42      1.0000 0.90720  0.83400  0.82440  Biso   1.000  C
  C43      1.0000 0.94890  0.79330  0.95390  Biso   1.000  C
  C44      1.0000 0.83070  0.51150  0.58770  Biso   1.000  C
  S1       1.0000 0.38670  0.96456  0.08782  Biso   1.000  S
  S2       1.0000 0.03544  0.61330  0.41218  Biso   1.000  S
  S3       1.0000 0.61330  0.03544  0.91218  Biso   1.000  S
  S4       1.0000 0.96456  0.38670  0.58782  Biso   1.000  S
  O1       1.0000 0.00700  0.84940  0.19698  Biso   1.000  O
  O2       1.0000 0.91510  0.95290  0.45426  Biso   1.000  O
  O3       1.0000 0.26500  0.90460  0.12915  Biso   1.000  O
  O4       1.0000 0.35880  0.82340  0.39210  Biso   1.000  O
  O5       1.0000 0.70840  0.97780  0.50500  Biso   1.000  O
  O6       1.0000 0.84000  0.88740  0.13441  Biso   1.000  O
  O7       1.0000 0.40760  0.78260  0.27820  Biso   1.000  O
  O8       1.0000 0.24900  0.87740  0.96340  Biso   1.000  O
  O9       1.0000 0.15060  0.99300  0.30302  Biso   1.000  O
  O10      1.0000 0.04710  0.08490  0.04574  Biso   1.000  O
  O11      1.0000 0.09540  0.73500  0.37085  Biso   1.000  O
  O12      1.0000 0.17660  0.64120  0.10790  Biso   1.000  O
  O13      1.0000 0.02220  0.29160  0.99500  Biso   1.000  O
  O14      1.0000 0.11260  0.16000  0.36559  Biso   1.000  O
  O15      1.0000 0.21740  0.59240  0.22180  Biso   1.000  O
  O16      1.0000 0.12260  0.75100  0.53660  Biso   1.000  O
  O17      1.0000 0.99300  0.15060  0.80302  Biso   1.000  O
  O18      1.0000 0.08490  0.04710  0.54574  Biso   1.000  O
  O19      1.0000 0.73500  0.09540  0.87085  Biso   1.000  O
  O20      1.0000 0.64120  0.17660  0.60790  Biso   1.000  O
  O21      1.0000 0.29160  0.02220  0.49500  Biso   1.000  O
  O22      1.0000 0.16000  0.11260  0.86559  Biso   1.000  O
  O23      1.0000 0.59240  0.21740  0.72180  Biso   1.000  O
  O24      1.0000 0.75100  0.12260  0.03660  Biso   1.000  O
  O25      1.0000 0.84940  0.00700  0.69698  Biso   1.000  O
  O26      1.0000 0.95290  0.91510  0.95426  Biso   1.000  O
  O27      1.0000 0.90460  0.26500  0.62915  Biso   1.000  O
  O28      1.0000 0.82340  0.35880  0.89210  Biso   1.000  O
  O29      1.0000 0.97780  0.70840  0.00500  Biso   1.000  O
  O30      1.0000 0.88740  0.84000  0.63441  Biso   1.000  O
  O31      1.0000 0.78260  0.40760  0.77820  Biso   1.000  O
  O32      1.0000 0.87740  0.24900  0.46340  Biso   1.000  O
