data_image0
_cell_length_a       10.1841
_cell_length_b       12.0386
_cell_length_c       18.83
_cell_angle_alpha    90
_cell_angle_beta     99.159
_cell_angle_gamma    90

_symmetry_space_group_name_H-M    P 1
_symmetry_int_tables_number       1

loop_
  _symmetry_equiv_pos_as_xyz
  'x, y, z'

loop_
  _atom_site_label
  _atom_site_occupancy
  _atom_site_fract_x
  _atom_site_fract_y
  _atom_site_fract_z
  _atom_site_thermal_displace_type
  _atom_site_B_iso_or_equiv
  _atom_site_type_symbol
  Zn1      1.0000 0.87939  0.89921  0.67354  Biso   1.000  Zn
  Zn2      1.0000 0.62061  0.39921  0.82646  Biso   1.000  Zn
  Zn3      1.0000 0.12061  0.10079  0.32646  Biso   1.000  Zn
  Zn4      1.0000 0.37939  0.60079  0.17354  Biso   1.000  Zn
  H1       1.0000 0.29120  0.19660  0.73850  Biso   1.000  H
  H2       1.0000 0.06750  0.11550  0.55050  Biso   1.000  H
  H3       1.0000 0.37820  0.32180  0.55460  Biso   1.000  H
  H4       1.0000 0.63800  0.98100  0.91600  Biso   1.000  H
  H5       1.0000 0.52650  0.89010  0.90310  Biso   1.000  H
  H6       1.0000 0.59590  0.77520  0.66720  Biso   1.000  H
  H7       1.0000 0.48790  0.10190  0.96240  Biso   1.000  H
  H8       1.0000 0.37950  0.00840  0.95150  Biso   1.000  H
  H9       1.0000 0.39850  0.00890  0.81940  Biso   1.000  H
  H10      1.0000 0.51480  0.09580  0.83060  Biso   1.000  H
  H11      1.0000 0.43520  0.82550  0.74490  Biso   1.000  H
  H12      1.0000 0.84080  0.07910  0.76700  Biso   1.000  H
  H13      1.0000 0.75300  0.09970  0.82690  Biso   1.000  H
  H14      1.0000 0.71250  0.15250  0.75050  Biso   1.000  H
  H15      1.0000 0.20880  0.69660  0.76150  Biso   1.000  H
  H16      1.0000 0.43250  0.61550  0.94950  Biso   1.000  H
  H17      1.0000 0.12180  0.82180  0.94540  Biso   1.000  H
  H18      1.0000 0.86200  0.48100  0.58400  Biso   1.000  H
  H19      1.0000 0.97350  0.39010  0.59690  Biso   1.000  H
  H20      1.0000 0.90410  0.27520  0.83280  Biso   1.000  H
  H21      1.0000 0.01210  0.60190  0.53760  Biso   1.000  H
  H22      1.0000 0.12050  0.50840  0.54850  Biso   1.000  H
  H23      1.0000 0.10150  0.50890  0.68060  Biso   1.000  H
  H24      1.0000 0.98520  0.59580  0.66940  Biso   1.000  H
  H25      1.0000 0.06480  0.32550  0.75510  Biso   1.000  H
  H26      1.0000 0.65920  0.57910  0.73300  Biso   1.000  H
  H27      1.0000 0.74700  0.59970  0.67310  Biso   1.000  H
  H28      1.0000 0.78750  0.65250  0.74950  Biso   1.000  H
  H29      1.0000 0.70880  0.80340  0.26150  Biso   1.000  H
  H30      1.0000 0.93250  0.88450  0.44950  Biso   1.000  H
  H31      1.0000 0.62180  0.67820  0.44540  Biso   1.000  H
  H32      1.0000 0.36200  0.01900  0.08400  Biso   1.000  H
  H33      1.0000 0.47350  0.10990  0.09690  Biso   1.000  H
  H34      1.0000 0.40410  0.22480  0.33280  Biso   1.000  H
  H35      1.0000 0.51210  0.89810  0.03760  Biso   1.000  H
  H36      1.0000 0.62050  0.99160  0.04850  Biso   1.000  H
  H37      1.0000 0.60150  0.99110  0.18060  Biso   1.000  H
  H38      1.0000 0.48520  0.90420  0.16940  Biso   1.000  H
  H39      1.0000 0.56480  0.17450  0.25510  Biso   1.000  H
  H40      1.0000 0.15920  0.92090  0.23300  Biso   1.000  H
  H41      1.0000 0.24700  0.90030  0.17310  Biso   1.000  H
  H42      1.0000 0.28750  0.84750  0.24950  Biso   1.000  H
  H43      1.0000 0.79120  0.30340  0.23850  Biso   1.000  H
  H44      1.0000 0.56750  0.38450  0.05050  Biso   1.000  H
  H45      1.0000 0.87820  0.17820  0.05460  Biso   1.000  H
  H46      1.0000 0.13800  0.51900  0.41600  Biso   1.000  H
  H47      1.0000 0.02650  0.60990  0.40310  Biso   1.000  H
  H48      1.0000 0.09590  0.72480  0.16720  Biso   1.000  H
  H49      1.0000 0.98790  0.39810  0.46240  Biso   1.000  H
  H50      1.0000 0.87950  0.49160  0.45150  Biso   1.000  H
  H51      1.0000 0.89850  0.49110  0.31940  Biso   1.000  H
  H52      1.0000 0.01480  0.40420  0.33060  Biso   1.000  H
  H53      1.0000 0.93520  0.67450  0.24490  Biso   1.000  H
  H54      1.0000 0.34080  0.42090  0.26700  Biso   1.000  H
  H55      1.0000 0.25300  0.40030  0.32690  Biso   1.000  H
  H56      1.0000 0.21250  0.34750  0.25050  Biso   1.000  H
  C1       1.0000 0.07480  0.08010  0.69200  Biso   1.000  C
  C2       1.0000 0.47710  0.32360  0.69420  Biso   1.000  C
  C3       1.0000 0.27260  0.20330  0.68873  Biso   1.000  C
  C4       1.0000 0.13860  0.15430  0.57618  Biso   1.000  C
  C5       1.0000 0.22040  0.21800  0.53975  Biso   1.000  C
  C6       1.0000 0.16270  0.14840  0.65113  Biso   1.000  C
  C7       1.0000 0.35510  0.26790  0.65329  Biso   1.000  C
  C8       1.0000 0.67260  0.98940  0.75261  Biso   1.000  C
  C9       1.0000 0.32610  0.27640  0.57881  Biso   1.000  C
  C10      1.0000 0.54270  0.96950  0.90413  Biso   1.000  C
  C11      1.0000 0.70440  0.28090  0.95827  Biso   1.000  C
  C12      1.0000 0.60120  0.83690  0.69716  Biso   1.000  C
  C13      1.0000 0.47440  0.02210  0.96264  Biso   1.000  C
  C14      1.0000 0.49440  0.01710  0.83049  Biso   1.000  C
  C15      1.0000 0.51200  0.86450  0.73982  Biso   1.000  C
  C16      1.0000 0.75160  0.08880  0.77630  Biso   1.000  C
  C17      1.0000 0.42520  0.58010  0.80800  Biso   1.000  C
  C18      1.0000 0.02290  0.82360  0.80580  Biso   1.000  C
  C19      1.0000 0.22740  0.70330  0.81127  Biso   1.000  C
  C20      1.0000 0.36140  0.65430  0.92382  Biso   1.000  C
  C21      1.0000 0.27960  0.71800  0.96025  Biso   1.000  C
  C22      1.0000 0.33730  0.64840  0.84887  Biso   1.000  C
  C23      1.0000 0.14490  0.76790  0.84671  Biso   1.000  C
  C24      1.0000 0.82740  0.48940  0.74739  Biso   1.000  C
  C25      1.0000 0.17390  0.77640  0.92119  Biso   1.000  C
  C26      1.0000 0.95730  0.46950  0.59587  Biso   1.000  C
  C27      1.0000 0.79560  0.78090  0.54173  Biso   1.000  C
  C28      1.0000 0.89880  0.33690  0.80284  Biso   1.000  C
  C29      1.0000 0.02560  0.52210  0.53736  Biso   1.000  C
  C30      1.0000 0.00560  0.51710  0.66951  Biso   1.000  C
  C31      1.0000 0.98800  0.36450  0.76018  Biso   1.000  C
  C32      1.0000 0.74840  0.58880  0.72370  Biso   1.000  C
  C33      1.0000 0.92520  0.91990  0.30800  Biso   1.000  C
  C34      1.0000 0.52290  0.67640  0.30580  Biso   1.000  C
  C35      1.0000 0.72740  0.79670  0.31127  Biso   1.000  C
  C36      1.0000 0.86140  0.84570  0.42382  Biso   1.000  C
  C37      1.0000 0.77960  0.78200  0.46025  Biso   1.000  C
  C38      1.0000 0.83730  0.85160  0.34887  Biso   1.000  C
  C39      1.0000 0.64490  0.73210  0.34671  Biso   1.000  C
  C40      1.0000 0.32740  0.01060  0.24739  Biso   1.000  C
  C41      1.0000 0.67390  0.72360  0.42119  Biso   1.000  C
  C42      1.0000 0.45730  0.03050  0.09587  Biso   1.000  C
  C43      1.0000 0.29560  0.71910  0.04173  Biso   1.000  C
  C44      1.0000 0.39880  0.16310  0.30284  Biso   1.000  C
  C45      1.0000 0.52560  0.97790  0.03736  Biso   1.000  C
  C46      1.0000 0.50560  0.98290  0.16951  Biso   1.000  C
  C47      1.0000 0.48800  0.13550  0.26018  Biso   1.000  C
  C48      1.0000 0.24840  0.91120  0.22370  Biso   1.000  C
  C49      1.0000 0.57480  0.41990  0.19200  Biso   1.000  C
  C50      1.0000 0.97710  0.17640  0.19420  Biso   1.000  C
  C51      1.0000 0.77260  0.29670  0.18873  Biso   1.000  C
  C52      1.0000 0.63860  0.34570  0.07618  Biso   1.000  C
  C53      1.0000 0.72040  0.28200  0.03975  Biso   1.000  C
  C54      1.0000 0.66270  0.35160  0.15113  Biso   1.000  C
  C55      1.0000 0.85510  0.23210  0.15329  Biso   1.000  C
  C56      1.0000 0.17260  0.51060  0.25261  Biso   1.000  C
  C57      1.0000 0.82610  0.22360  0.07881  Biso   1.000  C
  C58      1.0000 0.04270  0.53050  0.40413  Biso   1.000  C
  C59      1.0000 0.20440  0.21910  0.45827  Biso   1.000  C
  C60      1.0000 0.10120  0.66310  0.19716  Biso   1.000  C
  C61      1.0000 0.97440  0.47790  0.46264  Biso   1.000  C
  C62      1.0000 0.99440  0.48290  0.33049  Biso   1.000  C
  C63      1.0000 0.01200  0.63550  0.23982  Biso   1.000  C
  C64      1.0000 0.25160  0.41120  0.27630  Biso   1.000  C
  N1       1.0000 0.70140  0.91477  0.70502  Biso   1.000  N
  N2       1.0000 0.55630  0.96144  0.77440  Biso   1.000  N
  N3       1.0000 0.79860  0.41477  0.79498  Biso   1.000  N
  N4       1.0000 0.94370  0.46144  0.72560  Biso   1.000  N
  N5       1.0000 0.29860  0.08523  0.29498  Biso   1.000  N
  N6       1.0000 0.44370  0.03856  0.22560  Biso   1.000  N
  N7       1.0000 0.20140  0.58523  0.20502  Biso   1.000  N
  N8       1.0000 0.05630  0.53856  0.27440  Biso   1.000  N
  O1       1.0000 0.97245  0.03771  0.65449  Biso   1.000  O
  O2       1.0000 0.49404  0.30815  0.76309  Biso   1.000  O
  O3       1.0000 0.62515  0.35353  0.92683  Biso   1.000  O
  O4       1.0000 0.10710  0.06895  0.75795  Biso   1.000  O
  O5       1.0000 0.76930  0.21570  0.92838  Biso   1.000  O
  O6       1.0000 0.05125  0.12293  0.16150  Biso   1.000  O
  O7       1.0000 0.52755  0.53771  0.84551  Biso   1.000  O
  O8       1.0000 0.00596  0.80815  0.73691  Biso   1.000  O
  O9       1.0000 0.87485  0.85353  0.57317  Biso   1.000  O
  O10      1.0000 0.39290  0.56895  0.74205  Biso   1.000  O
  O11      1.0000 0.73070  0.71570  0.57162  Biso   1.000  O
  O12      1.0000 0.44875  0.62293  0.33850  Biso   1.000  O
  O13      1.0000 0.02755  0.96229  0.34551  Biso   1.000  O
  O14      1.0000 0.50596  0.69185  0.23691  Biso   1.000  O
  O15      1.0000 0.37485  0.64647  0.07317  Biso   1.000  O
  O16      1.0000 0.89290  0.93105  0.24205  Biso   1.000  O
  O17      1.0000 0.23070  0.78430  0.07162  Biso   1.000  O
  O18      1.0000 0.94875  0.87707  0.83850  Biso   1.000  O
  O19      1.0000 0.47245  0.46229  0.15449  Biso   1.000  O
  O20      1.0000 0.99404  0.19185  0.26309  Biso   1.000  O
  O21      1.0000 0.12515  0.14647  0.42683  Biso   1.000  O
  O22      1.0000 0.60710  0.43105  0.25795  Biso   1.000  O
  O23      1.0000 0.26930  0.28430  0.42838  Biso   1.000  O
  O24      1.0000 0.55125  0.37707  0.66150  Biso   1.000  O
