data_image0
_cell_length_a       25.4866
_cell_length_b       25.4866
_cell_length_c       25.4866
_cell_angle_alpha    60
_cell_angle_beta     60
_cell_angle_gamma    60

_symmetry_space_group_name_H-M    P 1
_symmetry_int_tables_number       1

loop_
  _symmetry_equiv_pos_as_xyz
  'x, y, z'

loop_
  _atom_site_label
  _atom_site_occupancy
  _atom_site_fract_x
  _atom_site_fract_y
  _atom_site_fract_z
  _atom_site_thermal_displace_type
  _atom_site_B_iso_or_equiv
  _atom_site_type_symbol
  In1      1.0000 0.25000  0.25000  0.98604  Biso   1.000  In
  In2      1.0000 0.75000  0.75000  0.51396  Biso   1.000  In
  In3      1.0000 0.48604  0.51396  0.75000  Biso   1.000  In
  In4      1.0000 0.01396  0.98604  0.25000  Biso   1.000  In
  In5      1.0000 0.25000  0.98604  0.51396  Biso   1.000  In
  In6      1.0000 0.75000  0.51396  0.98604  Biso   1.000  In
  In7      1.0000 0.48604  0.75000  0.25000  Biso   1.000  In
  In8      1.0000 0.01396  0.25000  0.75000  Biso   1.000  In
  In9      1.0000 0.25000  0.51396  0.25000  Biso   1.000  In
  In10     1.0000 0.75000  0.98604  0.75000  Biso   1.000  In
  In11     1.0000 0.48604  0.25000  0.51396  Biso   1.000  In
  In12     1.0000 0.01396  0.75000  0.98604  Biso   1.000  In
  In13     1.0000 0.75000  0.75000  0.01396  Biso   1.000  In
  In14     1.0000 0.25000  0.25000  0.48604  Biso   1.000  In
  In15     1.0000 0.51396  0.48604  0.25000  Biso   1.000  In
  In16     1.0000 0.98604  0.01396  0.75000  Biso   1.000  In
  In17     1.0000 0.75000  0.01396  0.48604  Biso   1.000  In
  In18     1.0000 0.25000  0.48604  0.01396  Biso   1.000  In
  In19     1.0000 0.51396  0.25000  0.75000  Biso   1.000  In
  In20     1.0000 0.98604  0.75000  0.25000  Biso   1.000  In
  In21     1.0000 0.75000  0.48604  0.75000  Biso   1.000  In
  In22     1.0000 0.25000  0.01396  0.25000  Biso   1.000  In
  In23     1.0000 0.51396  0.75000  0.48604  Biso   1.000  In
  In24     1.0000 0.98604  0.25000  0.01396  Biso   1.000  In
  H1       1.0000 0.14280  0.25460  0.94540  Biso   1.000  H
  H2       1.0000 0.75460  0.64280  0.65720  Biso   1.000  H
  H3       1.0000 0.44540  0.65720  0.64280  Biso   1.000  H
  H4       1.0000 0.15720  0.94540  0.25460  Biso   1.000  H
  H5       1.0000 0.14280  0.94540  0.65720  Biso   1.000  H
  H6       1.0000 0.75460  0.65720  0.94540  Biso   1.000  H
  H7       1.0000 0.44540  0.64280  0.25460  Biso   1.000  H
  H8       1.0000 0.15720  0.25460  0.64280  Biso   1.000  H
  H9       1.0000 0.14280  0.65720  0.25460  Biso   1.000  H
  H10      1.0000 0.75460  0.94540  0.64280  Biso   1.000  H
  H11      1.0000 0.44540  0.25460  0.65720  Biso   1.000  H
  H12      1.0000 0.15720  0.64280  0.94540  Biso   1.000  H
  H13      1.0000 0.74540  0.85720  0.55460  Biso   1.000  H
  H14      1.0000 0.35720  0.24540  0.84280  Biso   1.000  H
  H15      1.0000 0.34280  0.55460  0.85720  Biso   1.000  H
  H16      1.0000 0.05460  0.84280  0.24540  Biso   1.000  H
  H17      1.0000 0.05460  0.85720  0.84280  Biso   1.000  H
  H18      1.0000 0.34280  0.24540  0.55460  Biso   1.000  H
  H19      1.0000 0.35720  0.55460  0.24540  Biso   1.000  H
  H20      1.0000 0.74540  0.84280  0.85720  Biso   1.000  H
  H21      1.0000 0.34280  0.85720  0.24540  Biso   1.000  H
  H22      1.0000 0.05460  0.24540  0.85720  Biso   1.000  H
  H23      1.0000 0.74540  0.55460  0.84280  Biso   1.000  H
  H24      1.0000 0.35720  0.84280  0.55460  Biso   1.000  H
  H25      1.0000 0.85720  0.74540  0.05460  Biso   1.000  H
  H26      1.0000 0.24540  0.35720  0.34280  Biso   1.000  H
  H27      1.0000 0.55460  0.34280  0.35720  Biso   1.000  H
  H28      1.0000 0.84280  0.05460  0.74540  Biso   1.000  H
  H29      1.0000 0.85720  0.05460  0.34280  Biso   1.000  H
  H30      1.0000 0.24540  0.34280  0.05460  Biso   1.000  H
  H31      1.0000 0.55460  0.35720  0.74540  Biso   1.000  H
  H32      1.0000 0.84280  0.74540  0.35720  Biso   1.000  H
  H33      1.0000 0.85720  0.34280  0.74540  Biso   1.000  H
  H34      1.0000 0.24540  0.05460  0.35720  Biso   1.000  H
  H35      1.0000 0.55460  0.74540  0.34280  Biso   1.000  H
  H36      1.0000 0.84280  0.35720  0.05460  Biso   1.000  H
  H37      1.0000 0.25460  0.14280  0.44540  Biso   1.000  H
  H38      1.0000 0.64280  0.75460  0.15720  Biso   1.000  H
  H39      1.0000 0.65720  0.44540  0.14280  Biso   1.000  H
  H40      1.0000 0.94540  0.15720  0.75460  Biso   1.000  H
  H41      1.0000 0.94540  0.14280  0.15720  Biso   1.000  H
  H42      1.0000 0.65720  0.75460  0.44540  Biso   1.000  H
  H43      1.0000 0.64280  0.44540  0.75460  Biso   1.000  H
  H44      1.0000 0.25460  0.15720  0.14280  Biso   1.000  H
  H45      1.0000 0.65720  0.14280  0.75460  Biso   1.000  H
  H46      1.0000 0.94540  0.75460  0.14280  Biso   1.000  H
  H47      1.0000 0.25460  0.44540  0.15720  Biso   1.000  H
  H48      1.0000 0.64280  0.15720  0.44540  Biso   1.000  H
  C1       1.0000 0.10000  0.27100  0.07320  Biso   1.000  C
  C2       1.0000 0.11520  0.27720  0.11940  Biso   1.000  C
  C3       1.0000 0.12120  0.26000  0.98540  Biso   1.000  C
  C4       1.0000 0.04610  0.26990  0.07470  Biso   1.000  C
  C5       1.0000 0.97830  0.27610  0.12230  Biso   1.000  C
  C6       1.0000 0.77100  0.60000  0.55580  Biso   1.000  C
  C7       1.0000 0.77720  0.61520  0.48820  Biso   1.000  C
  C8       1.0000 0.76000  0.62120  0.63340  Biso   1.000  C
  C9       1.0000 0.76990  0.54610  0.60930  Biso   1.000  C
  C10      1.0000 0.77610  0.47830  0.62330  Biso   1.000  C
  C11      1.0000 0.57320  0.55580  0.60000  Biso   1.000  C
  C12      1.0000 0.61940  0.48820  0.61520  Biso   1.000  C
  C13      1.0000 0.48540  0.63340  0.62120  Biso   1.000  C
  C14      1.0000 0.57470  0.60930  0.54610  Biso   1.000  C
  C15      1.0000 0.62230  0.62330  0.47830  Biso   1.000  C
  C16      1.0000 0.05580  0.07320  0.27100  Biso   1.000  C
  C17      1.0000 0.98820  0.11940  0.27720  Biso   1.000  C
  C18      1.0000 0.13340  0.98540  0.26000  Biso   1.000  C
  C19      1.0000 0.10930  0.07470  0.26990  Biso   1.000  C
  C20      1.0000 0.12330  0.12230  0.27610  Biso   1.000  C
  C21      1.0000 0.10000  0.07320  0.55580  Biso   1.000  C
  C22      1.0000 0.11520  0.11940  0.48820  Biso   1.000  C
  C23      1.0000 0.12120  0.98540  0.63340  Biso   1.000  C
  C24      1.0000 0.04610  0.07470  0.60930  Biso   1.000  C
  C25      1.0000 0.97830  0.12230  0.62330  Biso   1.000  C
  C26      1.0000 0.77100  0.55580  0.07320  Biso   1.000  C
  C27      1.0000 0.77720  0.48820  0.11940  Biso   1.000  C
  C28      1.0000 0.76000  0.63340  0.98540  Biso   1.000  C
  C29      1.0000 0.76990  0.60930  0.07470  Biso   1.000  C
  C30      1.0000 0.77610  0.62330  0.12230  Biso   1.000  C
  C31      1.0000 0.57320  0.60000  0.27100  Biso   1.000  C
  C32      1.0000 0.61940  0.61520  0.27720  Biso   1.000  C
  C33      1.0000 0.48540  0.62120  0.26000  Biso   1.000  C
  C34      1.0000 0.57470  0.54610  0.26990  Biso   1.000  C
  C35      1.0000 0.62230  0.47830  0.27610  Biso   1.000  C
  C36      1.0000 0.05580  0.27100  0.60000  Biso   1.000  C
  C37      1.0000 0.98820  0.27720  0.61520  Biso   1.000  C
  C38      1.0000 0.13340  0.26000  0.62120  Biso   1.000  C
  C39      1.0000 0.10930  0.26990  0.54610  Biso   1.000  C
  C40      1.0000 0.12330  0.27610  0.47830  Biso   1.000  C
  C41      1.0000 0.10000  0.55580  0.27100  Biso   1.000  C
  C42      1.0000 0.11520  0.48820  0.27720  Biso   1.000  C
  C43      1.0000 0.12120  0.63340  0.26000  Biso   1.000  C
  C44      1.0000 0.04610  0.60930  0.26990  Biso   1.000  C
  C45      1.0000 0.97830  0.62330  0.27610  Biso   1.000  C
  C46      1.0000 0.77100  0.07320  0.60000  Biso   1.000  C
  C47      1.0000 0.77720  0.11940  0.61520  Biso   1.000  C
  C48      1.0000 0.76000  0.98540  0.62120  Biso   1.000  C
  C49      1.0000 0.76990  0.07470  0.54610  Biso   1.000  C
  C50      1.0000 0.77610  0.12230  0.47830  Biso   1.000  C
  C51      1.0000 0.57320  0.27100  0.55580  Biso   1.000  C
  C52      1.0000 0.61940  0.27720  0.48820  Biso   1.000  C
  C53      1.0000 0.48540  0.26000  0.63340  Biso   1.000  C
  C54      1.0000 0.57470  0.26990  0.60930  Biso   1.000  C
  C55      1.0000 0.62230  0.27610  0.62330  Biso   1.000  C
  C56      1.0000 0.05580  0.60000  0.07320  Biso   1.000  C
  C57      1.0000 0.98820  0.61520  0.11940  Biso   1.000  C
  C58      1.0000 0.13340  0.62120  0.98540  Biso   1.000  C
  C59      1.0000 0.10930  0.54610  0.07470  Biso   1.000  C
  C60      1.0000 0.12330  0.47830  0.12230  Biso   1.000  C
  C61      1.0000 0.72900  0.90000  0.42680  Biso   1.000  C
  C62      1.0000 0.72280  0.88480  0.38060  Biso   1.000  C
  C63      1.0000 0.74000  0.87880  0.51460  Biso   1.000  C
  C64      1.0000 0.73010  0.95390  0.42530  Biso   1.000  C
  C65      1.0000 0.72390  0.02170  0.37770  Biso   1.000  C
  C66      1.0000 0.40000  0.22900  0.94420  Biso   1.000  C
  C67      1.0000 0.38480  0.22280  0.01180  Biso   1.000  C
  C68      1.0000 0.37880  0.24000  0.86660  Biso   1.000  C
  C69      1.0000 0.45390  0.23010  0.89070  Biso   1.000  C
  C70      1.0000 0.52170  0.22390  0.87670  Biso   1.000  C
  C71      1.0000 0.44420  0.42680  0.90000  Biso   1.000  C
  C72      1.0000 0.51180  0.38060  0.88480  Biso   1.000  C
  C73      1.0000 0.36660  0.51460  0.87880  Biso   1.000  C
  C74      1.0000 0.39070  0.42530  0.95390  Biso   1.000  C
  C75      1.0000 0.37670  0.37770  0.02170  Biso   1.000  C
  C76      1.0000 0.92680  0.94420  0.22900  Biso   1.000  C
  C77      1.0000 0.88060  0.01180  0.22280  Biso   1.000  C
  C78      1.0000 0.01460  0.86660  0.24000  Biso   1.000  C
  C79      1.0000 0.92530  0.89070  0.23010  Biso   1.000  C
  C80      1.0000 0.87770  0.87670  0.22390  Biso   1.000  C
  C81      1.0000 0.92680  0.90000  0.94420  Biso   1.000  C
  C82      1.0000 0.88060  0.88480  0.01180  Biso   1.000  C
  C83      1.0000 0.01460  0.87880  0.86660  Biso   1.000  C
  C84      1.0000 0.92530  0.95390  0.89070  Biso   1.000  C
  C85      1.0000 0.87770  0.02170  0.87670  Biso   1.000  C
  C86      1.0000 0.44420  0.22900  0.42680  Biso   1.000  C
  C87      1.0000 0.51180  0.22280  0.38060  Biso   1.000  C
  C88      1.0000 0.36660  0.24000  0.51460  Biso   1.000  C
  C89      1.0000 0.39070  0.23010  0.42530  Biso   1.000  C
  C90      1.0000 0.37670  0.22390  0.37770  Biso   1.000  C
  C91      1.0000 0.40000  0.42680  0.22900  Biso   1.000  C
  C92      1.0000 0.38480  0.38060  0.22280  Biso   1.000  C
  C93      1.0000 0.37880  0.51460  0.24000  Biso   1.000  C
  C94      1.0000 0.45390  0.42530  0.23010  Biso   1.000  C
  C95      1.0000 0.52170  0.37770  0.22390  Biso   1.000  C
  C96      1.0000 0.72900  0.94420  0.90000  Biso   1.000  C
  C97      1.0000 0.72280  0.01180  0.88480  Biso   1.000  C
  C98      1.0000 0.74000  0.86660  0.87880  Biso   1.000  C
  C99      1.0000 0.73010  0.89070  0.95390  Biso   1.000  C
  C100     1.0000 0.72390  0.87670  0.02170  Biso   1.000  C
  C101     1.0000 0.44420  0.90000  0.22900  Biso   1.000  C
  C102     1.0000 0.51180  0.88480  0.22280  Biso   1.000  C
  C103     1.0000 0.36660  0.87880  0.24000  Biso   1.000  C
  C104     1.0000 0.39070  0.95390  0.23010  Biso   1.000  C
  C105     1.0000 0.37670  0.02170  0.22390  Biso   1.000  C
  C106     1.0000 0.92680  0.22900  0.90000  Biso   1.000  C
  C107     1.0000 0.88060  0.22280  0.88480  Biso   1.000  C
  C108     1.0000 0.01460  0.24000  0.87880  Biso   1.000  C
  C109     1.0000 0.92530  0.23010  0.95390  Biso   1.000  C
  C110     1.0000 0.87770  0.22390  0.02170  Biso   1.000  C
  C111     1.0000 0.72900  0.42680  0.94420  Biso   1.000  C
  C112     1.0000 0.72280  0.38060  0.01180  Biso   1.000  C
  C113     1.0000 0.74000  0.51460  0.86660  Biso   1.000  C
  C114     1.0000 0.73010  0.42530  0.89070  Biso   1.000  C
  C115     1.0000 0.72390  0.37770  0.87670  Biso   1.000  C
  C116     1.0000 0.40000  0.94420  0.42680  Biso   1.000  C
  C117     1.0000 0.38480  0.01180  0.38060  Biso   1.000  C
  C118     1.0000 0.37880  0.86660  0.51460  Biso   1.000  C
  C119     1.0000 0.45390  0.89070  0.42530  Biso   1.000  C
  C120     1.0000 0.52170  0.87670  0.37770  Biso   1.000  C
  C121     1.0000 0.90000  0.72900  0.92680  Biso   1.000  C
  C122     1.0000 0.88480  0.72280  0.88060  Biso   1.000  C
  C123     1.0000 0.87880  0.74000  0.01460  Biso   1.000  C
  C124     1.0000 0.95390  0.73010  0.92530  Biso   1.000  C
  C125     1.0000 0.02170  0.72390  0.87770  Biso   1.000  C
  C126     1.0000 0.22900  0.40000  0.44420  Biso   1.000  C
  C127     1.0000 0.22280  0.38480  0.51180  Biso   1.000  C
  C128     1.0000 0.24000  0.37880  0.36660  Biso   1.000  C
  C129     1.0000 0.23010  0.45390  0.39070  Biso   1.000  C
  C130     1.0000 0.22390  0.52170  0.37670  Biso   1.000  C
  C131     1.0000 0.42680  0.44420  0.40000  Biso   1.000  C
  C132     1.0000 0.38060  0.51180  0.38480  Biso   1.000  C
  C133     1.0000 0.51460  0.36660  0.37880  Biso   1.000  C
  C134     1.0000 0.42530  0.39070  0.45390  Biso   1.000  C
  C135     1.0000 0.37770  0.37670  0.52170  Biso   1.000  C
  C136     1.0000 0.94420  0.92680  0.72900  Biso   1.000  C
  C137     1.0000 0.01180  0.88060  0.72280  Biso   1.000  C
  C138     1.0000 0.86660  0.01460  0.74000  Biso   1.000  C
  C139     1.0000 0.89070  0.92530  0.73010  Biso   1.000  C
  C140     1.0000 0.87670  0.87770  0.72390  Biso   1.000  C
  C141     1.0000 0.90000  0.92680  0.44420  Biso   1.000  C
  C142     1.0000 0.88480  0.88060  0.51180  Biso   1.000  C
  C143     1.0000 0.87880  0.01460  0.36660  Biso   1.000  C
  C144     1.0000 0.95390  0.92530  0.39070  Biso   1.000  C
  C145     1.0000 0.02170  0.87770  0.37670  Biso   1.000  C
  C146     1.0000 0.22900  0.44420  0.92680  Biso   1.000  C
  C147     1.0000 0.22280  0.51180  0.88060  Biso   1.000  C
  C148     1.0000 0.24000  0.36660  0.01460  Biso   1.000  C
  C149     1.0000 0.23010  0.39070  0.92530  Biso   1.000  C
  C150     1.0000 0.22390  0.37670  0.87770  Biso   1.000  C
  C151     1.0000 0.42680  0.40000  0.72900  Biso   1.000  C
  C152     1.0000 0.38060  0.38480  0.72280  Biso   1.000  C
  C153     1.0000 0.51460  0.37880  0.74000  Biso   1.000  C
  C154     1.0000 0.42530  0.45390  0.73010  Biso   1.000  C
  C155     1.0000 0.37770  0.52170  0.72390  Biso   1.000  C
  C156     1.0000 0.94420  0.72900  0.40000  Biso   1.000  C
  C157     1.0000 0.01180  0.72280  0.38480  Biso   1.000  C
  C158     1.0000 0.86660  0.74000  0.37880  Biso   1.000  C
  C159     1.0000 0.89070  0.73010  0.45390  Biso   1.000  C
  C160     1.0000 0.87670  0.72390  0.52170  Biso   1.000  C
  C161     1.0000 0.90000  0.44420  0.72900  Biso   1.000  C
  C162     1.0000 0.88480  0.51180  0.72280  Biso   1.000  C
  C163     1.0000 0.87880  0.36660  0.74000  Biso   1.000  C
  C164     1.0000 0.95390  0.39070  0.73010  Biso   1.000  C
  C165     1.0000 0.02170  0.37670  0.72390  Biso   1.000  C
  C166     1.0000 0.22900  0.92680  0.40000  Biso   1.000  C
  C167     1.0000 0.22280  0.88060  0.38480  Biso   1.000  C
  C168     1.0000 0.24000  0.01460  0.37880  Biso   1.000  C
  C169     1.0000 0.23010  0.92530  0.45390  Biso   1.000  C
  C170     1.0000 0.22390  0.87770  0.52170  Biso   1.000  C
  C171     1.0000 0.42680  0.72900  0.44420  Biso   1.000  C
  C172     1.0000 0.38060  0.72280  0.51180  Biso   1.000  C
  C173     1.0000 0.51460  0.74000  0.36660  Biso   1.000  C
  C174     1.0000 0.42530  0.73010  0.39070  Biso   1.000  C
  C175     1.0000 0.37770  0.72390  0.37670  Biso   1.000  C
  C176     1.0000 0.94420  0.40000  0.92680  Biso   1.000  C
  C177     1.0000 0.01180  0.38480  0.88060  Biso   1.000  C
  C178     1.0000 0.86660  0.37880  0.01460  Biso   1.000  C
  C179     1.0000 0.89070  0.45390  0.92530  Biso   1.000  C
  C180     1.0000 0.87670  0.52170  0.87770  Biso   1.000  C
  C181     1.0000 0.27100  0.10000  0.57320  Biso   1.000  C
  C182     1.0000 0.27720  0.11520  0.61940  Biso   1.000  C
  C183     1.0000 0.26000  0.12120  0.48540  Biso   1.000  C
  C184     1.0000 0.26990  0.04610  0.57470  Biso   1.000  C
  C185     1.0000 0.27610  0.97830  0.62230  Biso   1.000  C
  C186     1.0000 0.60000  0.77100  0.05580  Biso   1.000  C
  C187     1.0000 0.61520  0.77720  0.98820  Biso   1.000  C
  C188     1.0000 0.62120  0.76000  0.13340  Biso   1.000  C
  C189     1.0000 0.54610  0.76990  0.10930  Biso   1.000  C
  C190     1.0000 0.47830  0.77610  0.12330  Biso   1.000  C
  C191     1.0000 0.55580  0.57320  0.10000  Biso   1.000  C
  C192     1.0000 0.48820  0.61940  0.11520  Biso   1.000  C
  C193     1.0000 0.63340  0.48540  0.12120  Biso   1.000  C
  C194     1.0000 0.60930  0.57470  0.04610  Biso   1.000  C
  C195     1.0000 0.62330  0.62230  0.97830  Biso   1.000  C
  C196     1.0000 0.07320  0.05580  0.77100  Biso   1.000  C
  C197     1.0000 0.11940  0.98820  0.77720  Biso   1.000  C
  C198     1.0000 0.98540  0.13340  0.76000  Biso   1.000  C
  C199     1.0000 0.07470  0.10930  0.76990  Biso   1.000  C
  C200     1.0000 0.12230  0.12330  0.77610  Biso   1.000  C
  C201     1.0000 0.07320  0.10000  0.05580  Biso   1.000  C
  C202     1.0000 0.11940  0.11520  0.98820  Biso   1.000  C
  C203     1.0000 0.98540  0.12120  0.13340  Biso   1.000  C
  C204     1.0000 0.07470  0.04610  0.10930  Biso   1.000  C
  C205     1.0000 0.12230  0.97830  0.12330  Biso   1.000  C
  C206     1.0000 0.55580  0.77100  0.57320  Biso   1.000  C
  C207     1.0000 0.48820  0.77720  0.61940  Biso   1.000  C
  C208     1.0000 0.63340  0.76000  0.48540  Biso   1.000  C
  C209     1.0000 0.60930  0.76990  0.57470  Biso   1.000  C
  C210     1.0000 0.62330  0.77610  0.62230  Biso   1.000  C
  C211     1.0000 0.60000  0.57320  0.77100  Biso   1.000  C
  C212     1.0000 0.61520  0.61940  0.77720  Biso   1.000  C
  C213     1.0000 0.62120  0.48540  0.76000  Biso   1.000  C
  C214     1.0000 0.54610  0.57470  0.76990  Biso   1.000  C
  C215     1.0000 0.47830  0.62230  0.77610  Biso   1.000  C
  C216     1.0000 0.27100  0.05580  0.10000  Biso   1.000  C
  C217     1.0000 0.27720  0.98820  0.11520  Biso   1.000  C
  C218     1.0000 0.26000  0.13340  0.12120  Biso   1.000  C
  C219     1.0000 0.26990  0.10930  0.04610  Biso   1.000  C
  C220     1.0000 0.27610  0.12330  0.97830  Biso   1.000  C
  C221     1.0000 0.55580  0.10000  0.77100  Biso   1.000  C
  C222     1.0000 0.48820  0.11520  0.77720  Biso   1.000  C
  C223     1.0000 0.63340  0.12120  0.76000  Biso   1.000  C
  C224     1.0000 0.60930  0.04610  0.76990  Biso   1.000  C
  C225     1.0000 0.62330  0.97830  0.77610  Biso   1.000  C
  C226     1.0000 0.07320  0.77100  0.10000  Biso   1.000  C
  C227     1.0000 0.11940  0.77720  0.11520  Biso   1.000  C
  C228     1.0000 0.98540  0.76000  0.12120  Biso   1.000  C
  C229     1.0000 0.07470  0.76990  0.04610  Biso   1.000  C
  C230     1.0000 0.12230  0.77610  0.97830  Biso   1.000  C
  C231     1.0000 0.27100  0.57320  0.05580  Biso   1.000  C
  C232     1.0000 0.27720  0.61940  0.98820  Biso   1.000  C
  C233     1.0000 0.26000  0.48540  0.13340  Biso   1.000  C
  C234     1.0000 0.26990  0.57470  0.10930  Biso   1.000  C
  C235     1.0000 0.27610  0.62230  0.12330  Biso   1.000  C
  C236     1.0000 0.60000  0.05580  0.57320  Biso   1.000  C
  C237     1.0000 0.61520  0.98820  0.61940  Biso   1.000  C
  C238     1.0000 0.62120  0.13340  0.48540  Biso   1.000  C
  C239     1.0000 0.54610  0.10930  0.57470  Biso   1.000  C
  C240     1.0000 0.47830  0.12330  0.62230  Biso   1.000  C
  N1       1.0000 0.14760  0.26520  0.01600  Biso   1.000  N
  N2       1.0000 0.06050  0.26350  0.01950  Biso   1.000  N
  N3       1.0000 0.76520  0.64760  0.57120  Biso   1.000  N
  N4       1.0000 0.76350  0.56050  0.65650  Biso   1.000  N
  N5       1.0000 0.51600  0.57120  0.64760  Biso   1.000  N
  N6       1.0000 0.51950  0.65650  0.56050  Biso   1.000  N
  N7       1.0000 0.07120  0.01600  0.26520  Biso   1.000  N
  N8       1.0000 0.15650  0.01950  0.26350  Biso   1.000  N
  N9       1.0000 0.14760  0.01600  0.57120  Biso   1.000  N
  N10      1.0000 0.06050  0.01950  0.65650  Biso   1.000  N
  N11      1.0000 0.76520  0.57120  0.01600  Biso   1.000  N
  N12      1.0000 0.76350  0.65650  0.01950  Biso   1.000  N
  N13      1.0000 0.51600  0.64760  0.26520  Biso   1.000  N
  N14      1.0000 0.51950  0.56050  0.26350  Biso   1.000  N
  N15      1.0000 0.07120  0.26520  0.64760  Biso   1.000  N
  N16      1.0000 0.15650  0.26350  0.56050  Biso   1.000  N
  N17      1.0000 0.14760  0.57120  0.26520  Biso   1.000  N
  N18      1.0000 0.06050  0.65650  0.26350  Biso   1.000  N
  N19      1.0000 0.76520  0.01600  0.64760  Biso   1.000  N
  N20      1.0000 0.76350  0.01950  0.56050  Biso   1.000  N
  N21      1.0000 0.51600  0.26520  0.57120  Biso   1.000  N
  N22      1.0000 0.51950  0.26350  0.65650  Biso   1.000  N
  N23      1.0000 0.07120  0.64760  0.01600  Biso   1.000  N
  N24      1.0000 0.15650  0.56050  0.01950  Biso   1.000  N
  N25      1.0000 0.73480  0.85240  0.48400  Biso   1.000  N
  N26      1.0000 0.73650  0.93950  0.48050  Biso   1.000  N
  N27      1.0000 0.35240  0.23480  0.92880  Biso   1.000  N
  N28      1.0000 0.43950  0.23650  0.84350  Biso   1.000  N
  N29      1.0000 0.42880  0.48400  0.85240  Biso   1.000  N
  N30      1.0000 0.34350  0.48050  0.93950  Biso   1.000  N
  N31      1.0000 0.98400  0.92880  0.23480  Biso   1.000  N
  N32      1.0000 0.98050  0.84350  0.23650  Biso   1.000  N
  N33      1.0000 0.98400  0.85240  0.92880  Biso   1.000  N
  N34      1.0000 0.98050  0.93950  0.84350  Biso   1.000  N
  N35      1.0000 0.42880  0.23480  0.48400  Biso   1.000  N
  N36      1.0000 0.34350  0.23650  0.48050  Biso   1.000  N
  N37      1.0000 0.35240  0.48400  0.23480  Biso   1.000  N
  N38      1.0000 0.43950  0.48050  0.23650  Biso   1.000  N
  N39      1.0000 0.73480  0.92880  0.85240  Biso   1.000  N
  N40      1.0000 0.73650  0.84350  0.93950  Biso   1.000  N
  N41      1.0000 0.42880  0.85240  0.23480  Biso   1.000  N
  N42      1.0000 0.34350  0.93950  0.23650  Biso   1.000  N
  N43      1.0000 0.98400  0.23480  0.85240  Biso   1.000  N
  N44      1.0000 0.98050  0.23650  0.93950  Biso   1.000  N
  N45      1.0000 0.73480  0.48400  0.92880  Biso   1.000  N
  N46      1.0000 0.73650  0.48050  0.84350  Biso   1.000  N
  N47      1.0000 0.35240  0.92880  0.48400  Biso   1.000  N
  N48      1.0000 0.43950  0.84350  0.48050  Biso   1.000  N
  N49      1.0000 0.85240  0.73480  0.98400  Biso   1.000  N
  N50      1.0000 0.93950  0.73650  0.98050  Biso   1.000  N
  N51      1.0000 0.23480  0.35240  0.42880  Biso   1.000  N
  N52      1.0000 0.23650  0.43950  0.34350  Biso   1.000  N
  N53      1.0000 0.48400  0.42880  0.35240  Biso   1.000  N
  N54      1.0000 0.48050  0.34350  0.43950  Biso   1.000  N
  N55      1.0000 0.92880  0.98400  0.73480  Biso   1.000  N
  N56      1.0000 0.84350  0.98050  0.73650  Biso   1.000  N
  N57      1.0000 0.85240  0.98400  0.42880  Biso   1.000  N
  N58      1.0000 0.93950  0.98050  0.34350  Biso   1.000  N
  N59      1.0000 0.23480  0.42880  0.98400  Biso   1.000  N
  N60      1.0000 0.23650  0.34350  0.98050  Biso   1.000  N
  N61      1.0000 0.48400  0.35240  0.73480  Biso   1.000  N
  N62      1.0000 0.48050  0.43950  0.73650  Biso   1.000  N
  N63      1.0000 0.92880  0.73480  0.35240  Biso   1.000  N
  N64      1.0000 0.84350  0.73650  0.43950  Biso   1.000  N
  N65      1.0000 0.85240  0.42880  0.73480  Biso   1.000  N
  N66      1.0000 0.93950  0.34350  0.73650  Biso   1.000  N
  N67      1.0000 0.23480  0.98400  0.35240  Biso   1.000  N
  N68      1.0000 0.23650  0.98050  0.43950  Biso   1.000  N
  N69      1.0000 0.48400  0.73480  0.42880  Biso   1.000  N
  N70      1.0000 0.48050  0.73650  0.34350  Biso   1.000  N
  N71      1.0000 0.92880  0.35240  0.98400  Biso   1.000  N
  N72      1.0000 0.84350  0.43950  0.98050  Biso   1.000  N
  N73      1.0000 0.26520  0.14760  0.51600  Biso   1.000  N
  N74      1.0000 0.26350  0.06050  0.51950  Biso   1.000  N
  N75      1.0000 0.64760  0.76520  0.07120  Biso   1.000  N
  N76      1.0000 0.56050  0.76350  0.15650  Biso   1.000  N
  N77      1.0000 0.57120  0.51600  0.14760  Biso   1.000  N
  N78      1.0000 0.65650  0.51950  0.06050  Biso   1.000  N
  N79      1.0000 0.01600  0.07120  0.76520  Biso   1.000  N
  N80      1.0000 0.01950  0.15650  0.76350  Biso   1.000  N
  N81      1.0000 0.01600  0.14760  0.07120  Biso   1.000  N
  N82      1.0000 0.01950  0.06050  0.15650  Biso   1.000  N
  N83      1.0000 0.57120  0.76520  0.51600  Biso   1.000  N
  N84      1.0000 0.65650  0.76350  0.51950  Biso   1.000  N
  N85      1.0000 0.64760  0.51600  0.76520  Biso   1.000  N
  N86      1.0000 0.56050  0.51950  0.76350  Biso   1.000  N
  N87      1.0000 0.26520  0.07120  0.14760  Biso   1.000  N
  N88      1.0000 0.26350  0.15650  0.06050  Biso   1.000  N
  N89      1.0000 0.57120  0.14760  0.76520  Biso   1.000  N
  N90      1.0000 0.65650  0.06050  0.76350  Biso   1.000  N
  N91      1.0000 0.01600  0.76520  0.14760  Biso   1.000  N
  N92      1.0000 0.01950  0.76350  0.06050  Biso   1.000  N
  N93      1.0000 0.26520  0.51600  0.07120  Biso   1.000  N
  N94      1.0000 0.26350  0.51950  0.15650  Biso   1.000  N
  N95      1.0000 0.64760  0.07120  0.51600  Biso   1.000  N
  N96      1.0000 0.56050  0.15650  0.51950  Biso   1.000  N
  O1       1.0000 0.16880  0.27100  0.11020  Biso   1.000  O
  O2       1.0000 0.06340  0.29000  0.16920  Biso   1.000  O
  O3       1.0000 0.94310  0.26710  0.10970  Biso   1.000  O
  O4       1.0000 0.96630  0.28850  0.16850  Biso   1.000  O
  O5       1.0000 0.77100  0.66880  0.45000  Biso   1.000  O
  O6       1.0000 0.79000  0.56340  0.47740  Biso   1.000  O
  O7       1.0000 0.76710  0.44310  0.68010  Biso   1.000  O
  O8       1.0000 0.78850  0.46630  0.57670  Biso   1.000  O
  O9       1.0000 0.61020  0.45000  0.66880  Biso   1.000  O
  O10      1.0000 0.66920  0.47740  0.56340  Biso   1.000  O
  O11      1.0000 0.60970  0.68010  0.44310  Biso   1.000  O
  O12      1.0000 0.66850  0.57670  0.46630  Biso   1.000  O
  O13      1.0000 0.95000  0.11020  0.27100  Biso   1.000  O
  O14      1.0000 0.97740  0.16920  0.29000  Biso   1.000  O
  O15      1.0000 0.18010  0.10970  0.26710  Biso   1.000  O
  O16      1.0000 0.07670  0.16850  0.28850  Biso   1.000  O
  O17      1.0000 0.16880  0.11020  0.45000  Biso   1.000  O
  O18      1.0000 0.06340  0.16920  0.47740  Biso   1.000  O
  O19      1.0000 0.94310  0.10970  0.68010  Biso   1.000  O
  O20      1.0000 0.96630  0.16850  0.57670  Biso   1.000  O
  O21      1.0000 0.77100  0.45000  0.11020  Biso   1.000  O
  O22      1.0000 0.79000  0.47740  0.16920  Biso   1.000  O
  O23      1.0000 0.76710  0.68010  0.10970  Biso   1.000  O
  O24      1.0000 0.78850  0.57670  0.16850  Biso   1.000  O
  O25      1.0000 0.61020  0.66880  0.27100  Biso   1.000  O
  O26      1.0000 0.66920  0.56340  0.29000  Biso   1.000  O
  O27      1.0000 0.60970  0.44310  0.26710  Biso   1.000  O
  O28      1.0000 0.66850  0.46630  0.28850  Biso   1.000  O
  O29      1.0000 0.95000  0.27100  0.66880  Biso   1.000  O
  O30      1.0000 0.97740  0.29000  0.56340  Biso   1.000  O
  O31      1.0000 0.18010  0.26710  0.44310  Biso   1.000  O
  O32      1.0000 0.07670  0.28850  0.46630  Biso   1.000  O
  O33      1.0000 0.16880  0.45000  0.27100  Biso   1.000  O
  O34      1.0000 0.06340  0.47740  0.29000  Biso   1.000  O
  O35      1.0000 0.94310  0.68010  0.26710  Biso   1.000  O
  O36      1.0000 0.96630  0.57670  0.28850  Biso   1.000  O
  O37      1.0000 0.77100  0.11020  0.66880  Biso   1.000  O
  O38      1.0000 0.79000  0.16920  0.56340  Biso   1.000  O
  O39      1.0000 0.76710  0.10970  0.44310  Biso   1.000  O
  O40      1.0000 0.78850  0.16850  0.46630  Biso   1.000  O
  O41      1.0000 0.61020  0.27100  0.45000  Biso   1.000  O
  O42      1.0000 0.66920  0.29000  0.47740  Biso   1.000  O
  O43      1.0000 0.60970  0.26710  0.68010  Biso   1.000  O
  O44      1.0000 0.66850  0.28850  0.57670  Biso   1.000  O
  O45      1.0000 0.95000  0.66880  0.11020  Biso   1.000  O
  O46      1.0000 0.97740  0.56340  0.16920  Biso   1.000  O
  O47      1.0000 0.18010  0.44310  0.10970  Biso   1.000  O
  O48      1.0000 0.07670  0.46630  0.16850  Biso   1.000  O
  O49      1.0000 0.72900  0.83120  0.38980  Biso   1.000  O
  O50      1.0000 0.71000  0.93660  0.33080  Biso   1.000  O
  O51      1.0000 0.73290  0.05690  0.39030  Biso   1.000  O
  O52      1.0000 0.71150  0.03370  0.33150  Biso   1.000  O
  O53      1.0000 0.33120  0.22900  0.05000  Biso   1.000  O
  O54      1.0000 0.43660  0.21000  0.02260  Biso   1.000  O
  O55      1.0000 0.55690  0.23290  0.81990  Biso   1.000  O
  O56      1.0000 0.53370  0.21150  0.92330  Biso   1.000  O
  O57      1.0000 0.55000  0.38980  0.83120  Biso   1.000  O
  O58      1.0000 0.52260  0.33080  0.93660  Biso   1.000  O
  O59      1.0000 0.31990  0.39030  0.05690  Biso   1.000  O
  O60      1.0000 0.42330  0.33150  0.03370  Biso   1.000  O
  O61      1.0000 0.88980  0.05000  0.22900  Biso   1.000  O
  O62      1.0000 0.83080  0.02260  0.21000  Biso   1.000  O
  O63      1.0000 0.89030  0.81990  0.23290  Biso   1.000  O
  O64      1.0000 0.83150  0.92330  0.21150  Biso   1.000  O
  O65      1.0000 0.88980  0.83120  0.05000  Biso   1.000  O
  O66      1.0000 0.83080  0.93660  0.02260  Biso   1.000  O
  O67      1.0000 0.89030  0.05690  0.81990  Biso   1.000  O
  O68      1.0000 0.83150  0.03370  0.92330  Biso   1.000  O
  O69      1.0000 0.55000  0.22900  0.38980  Biso   1.000  O
  O70      1.0000 0.52260  0.21000  0.33080  Biso   1.000  O
  O71      1.0000 0.31990  0.23290  0.39030  Biso   1.000  O
  O72      1.0000 0.42330  0.21150  0.33150  Biso   1.000  O
  O73      1.0000 0.33120  0.38980  0.22900  Biso   1.000  O
  O74      1.0000 0.43660  0.33080  0.21000  Biso   1.000  O
  O75      1.0000 0.55690  0.39030  0.23290  Biso   1.000  O
  O76      1.0000 0.53370  0.33150  0.21150  Biso   1.000  O
  O77      1.0000 0.72900  0.05000  0.83120  Biso   1.000  O
  O78      1.0000 0.71000  0.02260  0.93660  Biso   1.000  O
  O79      1.0000 0.73290  0.81990  0.05690  Biso   1.000  O
  O80      1.0000 0.71150  0.92330  0.03370  Biso   1.000  O
  O81      1.0000 0.55000  0.83120  0.22900  Biso   1.000  O
  O82      1.0000 0.52260  0.93660  0.21000  Biso   1.000  O
  O83      1.0000 0.31990  0.05690  0.23290  Biso   1.000  O
  O84      1.0000 0.42330  0.03370  0.21150  Biso   1.000  O
  O85      1.0000 0.88980  0.22900  0.83120  Biso   1.000  O
  O86      1.0000 0.83080  0.21000  0.93660  Biso   1.000  O
  O87      1.0000 0.89030  0.23290  0.05690  Biso   1.000  O
  O88      1.0000 0.83150  0.21150  0.03370  Biso   1.000  O
  O89      1.0000 0.72900  0.38980  0.05000  Biso   1.000  O
  O90      1.0000 0.71000  0.33080  0.02260  Biso   1.000  O
  O91      1.0000 0.73290  0.39030  0.81990  Biso   1.000  O
  O92      1.0000 0.71150  0.33150  0.92330  Biso   1.000  O
  O93      1.0000 0.33120  0.05000  0.38980  Biso   1.000  O
  O94      1.0000 0.43660  0.02260  0.33080  Biso   1.000  O
  O95      1.0000 0.55690  0.81990  0.39030  Biso   1.000  O
  O96      1.0000 0.53370  0.92330  0.33150  Biso   1.000  O
  O97      1.0000 0.83120  0.72900  0.88980  Biso   1.000  O
  O98      1.0000 0.93660  0.71000  0.83080  Biso   1.000  O
  O99      1.0000 0.05690  0.73290  0.89030  Biso   1.000  O
  O100     1.0000 0.03370  0.71150  0.83150  Biso   1.000  O
  O101     1.0000 0.22900  0.33120  0.55000  Biso   1.000  O
  O102     1.0000 0.21000  0.43660  0.52260  Biso   1.000  O
  O103     1.0000 0.23290  0.55690  0.31990  Biso   1.000  O
  O104     1.0000 0.21150  0.53370  0.42330  Biso   1.000  O
  O105     1.0000 0.38980  0.55000  0.33120  Biso   1.000  O
  O106     1.0000 0.33080  0.52260  0.43660  Biso   1.000  O
  O107     1.0000 0.39030  0.31990  0.55690  Biso   1.000  O
  O108     1.0000 0.33150  0.42330  0.53370  Biso   1.000  O
  O109     1.0000 0.05000  0.88980  0.72900  Biso   1.000  O
  O110     1.0000 0.02260  0.83080  0.71000  Biso   1.000  O
  O111     1.0000 0.81990  0.89030  0.73290  Biso   1.000  O
  O112     1.0000 0.92330  0.83150  0.71150  Biso   1.000  O
  O113     1.0000 0.83120  0.88980  0.55000  Biso   1.000  O
  O114     1.0000 0.93660  0.83080  0.52260  Biso   1.000  O
  O115     1.0000 0.05690  0.89030  0.31990  Biso   1.000  O
  O116     1.0000 0.03370  0.83150  0.42330  Biso   1.000  O
  O117     1.0000 0.22900  0.55000  0.88980  Biso   1.000  O
  O118     1.0000 0.21000  0.52260  0.83080  Biso   1.000  O
  O119     1.0000 0.23290  0.31990  0.89030  Biso   1.000  O
  O120     1.0000 0.21150  0.42330  0.83150  Biso   1.000  O
  O121     1.0000 0.38980  0.33120  0.72900  Biso   1.000  O
  O122     1.0000 0.33080  0.43660  0.71000  Biso   1.000  O
  O123     1.0000 0.39030  0.55690  0.73290  Biso   1.000  O
  O124     1.0000 0.33150  0.53370  0.71150  Biso   1.000  O
  O125     1.0000 0.05000  0.72900  0.33120  Biso   1.000  O
  O126     1.0000 0.02260  0.71000  0.43660  Biso   1.000  O
  O127     1.0000 0.81990  0.73290  0.55690  Biso   1.000  O
  O128     1.0000 0.92330  0.71150  0.53370  Biso   1.000  O
  O129     1.0000 0.83120  0.55000  0.72900  Biso   1.000  O
  O130     1.0000 0.93660  0.52260  0.71000  Biso   1.000  O
  O131     1.0000 0.05690  0.31990  0.73290  Biso   1.000  O
  O132     1.0000 0.03370  0.42330  0.71150  Biso   1.000  O
  O133     1.0000 0.22900  0.88980  0.33120  Biso   1.000  O
  O134     1.0000 0.21000  0.83080  0.43660  Biso   1.000  O
  O135     1.0000 0.23290  0.89030  0.55690  Biso   1.000  O
  O136     1.0000 0.21150  0.83150  0.53370  Biso   1.000  O
  O137     1.0000 0.38980  0.72900  0.55000  Biso   1.000  O
  O138     1.0000 0.33080  0.71000  0.52260  Biso   1.000  O
  O139     1.0000 0.39030  0.73290  0.31990  Biso   1.000  O
  O140     1.0000 0.33150  0.71150  0.42330  Biso   1.000  O
  O141     1.0000 0.05000  0.33120  0.88980  Biso   1.000  O
  O142     1.0000 0.02260  0.43660  0.83080  Biso   1.000  O
  O143     1.0000 0.81990  0.55690  0.89030  Biso   1.000  O
  O144     1.0000 0.92330  0.53370  0.83150  Biso   1.000  O
  O145     1.0000 0.27100  0.16880  0.61020  Biso   1.000  O
  O146     1.0000 0.29000  0.06340  0.66920  Biso   1.000  O
  O147     1.0000 0.26710  0.94310  0.60970  Biso   1.000  O
  O148     1.0000 0.28850  0.96630  0.66850  Biso   1.000  O
  O149     1.0000 0.66880  0.77100  0.95000  Biso   1.000  O
  O150     1.0000 0.56340  0.79000  0.97740  Biso   1.000  O
  O151     1.0000 0.44310  0.76710  0.18010  Biso   1.000  O
  O152     1.0000 0.46630  0.78850  0.07670  Biso   1.000  O
  O153     1.0000 0.45000  0.61020  0.16880  Biso   1.000  O
  O154     1.0000 0.47740  0.66920  0.06340  Biso   1.000  O
  O155     1.0000 0.68010  0.60970  0.94310  Biso   1.000  O
  O156     1.0000 0.57670  0.66850  0.96630  Biso   1.000  O
  O157     1.0000 0.11020  0.95000  0.77100  Biso   1.000  O
  O158     1.0000 0.16920  0.97740  0.79000  Biso   1.000  O
  O159     1.0000 0.10970  0.18010  0.76710  Biso   1.000  O
  O160     1.0000 0.16850  0.07670  0.78850  Biso   1.000  O
  O161     1.0000 0.11020  0.16880  0.95000  Biso   1.000  O
  O162     1.0000 0.16920  0.06340  0.97740  Biso   1.000  O
  O163     1.0000 0.10970  0.94310  0.18010  Biso   1.000  O
  O164     1.0000 0.16850  0.96630  0.07670  Biso   1.000  O
  O165     1.0000 0.45000  0.77100  0.61020  Biso   1.000  O
  O166     1.0000 0.47740  0.79000  0.66920  Biso   1.000  O
  O167     1.0000 0.68010  0.76710  0.60970  Biso   1.000  O
  O168     1.0000 0.57670  0.78850  0.66850  Biso   1.000  O
  O169     1.0000 0.66880  0.61020  0.77100  Biso   1.000  O
  O170     1.0000 0.56340  0.66920  0.79000  Biso   1.000  O
  O171     1.0000 0.44310  0.60970  0.76710  Biso   1.000  O
  O172     1.0000 0.46630  0.66850  0.78850  Biso   1.000  O
  O173     1.0000 0.27100  0.95000  0.16880  Biso   1.000  O
  O174     1.0000 0.29000  0.97740  0.06340  Biso   1.000  O
  O175     1.0000 0.26710  0.18010  0.94310  Biso   1.000  O
  O176     1.0000 0.28850  0.07670  0.96630  Biso   1.000  O
  O177     1.0000 0.45000  0.16880  0.77100  Biso   1.000  O
  O178     1.0000 0.47740  0.06340  0.79000  Biso   1.000  O
  O179     1.0000 0.68010  0.94310  0.76710  Biso   1.000  O
  O180     1.0000 0.57670  0.96630  0.78850  Biso   1.000  O
  O181     1.0000 0.11020  0.77100  0.16880  Biso   1.000  O
  O182     1.0000 0.16920  0.79000  0.06340  Biso   1.000  O
  O183     1.0000 0.10970  0.76710  0.94310  Biso   1.000  O
  O184     1.0000 0.16850  0.78850  0.96630  Biso   1.000  O
  O185     1.0000 0.27100  0.61020  0.95000  Biso   1.000  O
  O186     1.0000 0.29000  0.66920  0.97740  Biso   1.000  O
  O187     1.0000 0.26710  0.60970  0.18010  Biso   1.000  O
  O188     1.0000 0.28850  0.66850  0.07670  Biso   1.000  O
  O189     1.0000 0.66880  0.95000  0.61020  Biso   1.000  O
  O190     1.0000 0.56340  0.97740  0.66920  Biso   1.000  O
  O191     1.0000 0.44310  0.18010  0.60970  Biso   1.000  O
  O192     1.0000 0.46630  0.07670  0.66850  Biso   1.000  O
