data_image0
_cell_length_a       26.9007
_cell_length_b       26.9007
_cell_length_c       26.9007
_cell_angle_alpha    109.471
_cell_angle_beta     109.471
_cell_angle_gamma    109.471

_symmetry_space_group_name_H-M    P 1
_symmetry_int_tables_number       1

loop_
  _symmetry_equiv_pos_as_xyz
  'x, y, z'

loop_
  _atom_site_label
  _atom_site_occupancy
  _atom_site_fract_x
  _atom_site_fract_y
  _atom_site_fract_z
  _atom_site_thermal_displace_type
  _atom_site_B_iso_or_equiv
  _atom_site_type_symbol
  In1      1.0000 0.35442  0.85442  0.70884  Biso   1.000  In
  In2      1.0000 0.14558  0.64558  0.29116  Biso   1.000  In
  In3      1.0000 0.85442  0.14558  0.50000  Biso   1.000  In
  In4      1.0000 0.64558  0.35442  0.50000  Biso   1.000  In
  In5      1.0000 0.50000  0.85442  0.14558  Biso   1.000  In
  In6      1.0000 0.50000  0.64558  0.35442  Biso   1.000  In
  In7      1.0000 0.70884  0.35442  0.85442  Biso   1.000  In
  In8      1.0000 0.29116  0.14558  0.64558  Biso   1.000  In
  In9      1.0000 0.64558  0.29116  0.14558  Biso   1.000  In
  In10     1.0000 0.85442  0.70884  0.35442  Biso   1.000  In
  In11     1.0000 0.35442  0.50000  0.64558  Biso   1.000  In
  In12     1.0000 0.14558  0.50000  0.85442  Biso   1.000  In
  In13     1.0000 0.64558  0.14558  0.29116  Biso   1.000  In
  In14     1.0000 0.85442  0.35442  0.70884  Biso   1.000  In
  In15     1.0000 0.14558  0.85442  0.50000  Biso   1.000  In
  In16     1.0000 0.35442  0.64558  0.50000  Biso   1.000  In
  In17     1.0000 0.50000  0.14558  0.85442  Biso   1.000  In
  In18     1.0000 0.50000  0.35442  0.64558  Biso   1.000  In
  In19     1.0000 0.29116  0.64558  0.14558  Biso   1.000  In
  In20     1.0000 0.70884  0.85442  0.35442  Biso   1.000  In
  In21     1.0000 0.35442  0.70884  0.85442  Biso   1.000  In
  In22     1.0000 0.14558  0.29116  0.64558  Biso   1.000  In
  In23     1.0000 0.64558  0.50000  0.35442  Biso   1.000  In
  In24     1.0000 0.85442  0.50000  0.14558  Biso   1.000  In
  H1       1.0000 0.37720  1.00000  0.78160  Biso   1.000  H
  H2       1.0000 0.21840  0.59560  0.21840  Biso   1.000  H
  H3       1.0000 0.78160  0.00000  0.37720  Biso   1.000  H
  H4       1.0000 0.62280  0.40440  0.62280  Biso   1.000  H
  H5       1.0000 0.37720  0.78160  0.00000  Biso   1.000  H
  H6       1.0000 0.62280  0.62280  0.40440  Biso   1.000  H
  H7       1.0000 0.78160  0.37720  0.00000  Biso   1.000  H
  H8       1.0000 0.21840  0.21840  0.59560  Biso   1.000  H
  H9       1.0000 0.59560  0.21840  0.21840  Biso   1.000  H
  H10      1.0000 0.00000  0.78160  0.37720  Biso   1.000  H
  H11      1.0000 0.40440  0.62280  0.62280  Biso   1.000  H
  H12      1.0000 0.00000  0.37720  0.78160  Biso   1.000  H
  H13      1.0000 0.00000  0.62280  0.21840  Biso   1.000  H
  H14      1.0000 0.40440  0.78160  0.78160  Biso   1.000  H
  H15      1.0000 0.00000  0.21840  0.62280  Biso   1.000  H
  H16      1.0000 0.59560  0.37720  0.37720  Biso   1.000  H
  H17      1.0000 0.21840  0.62280  0.00000  Biso   1.000  H
  H18      1.0000 0.37720  0.37720  0.59560  Biso   1.000  H
  H19      1.0000 0.62280  0.21840  0.00000  Biso   1.000  H
  H20      1.0000 0.78160  0.78160  0.40440  Biso   1.000  H
  H21      1.0000 0.78160  0.40440  0.78160  Biso   1.000  H
  H22      1.0000 0.21840  0.00000  0.62280  Biso   1.000  H
  H23      1.0000 0.37720  0.59560  0.37720  Biso   1.000  H
  H24      1.0000 0.62280  0.00000  0.21840  Biso   1.000  H
  H25      1.0000 0.18270  0.62640  0.55630  Biso   1.000  H
  H26      1.0000 0.41080  0.78100  0.62980  Biso   1.000  H
  H27      1.0000 0.07010  0.62640  0.44370  Biso   1.000  H
  H28      1.0000 0.15120  0.78100  0.37020  Biso   1.000  H
  H29      1.0000 0.92990  0.37360  0.55630  Biso   1.000  H
  H30      1.0000 0.84880  0.21900  0.62980  Biso   1.000  H
  H31      1.0000 0.81730  0.37360  0.44370  Biso   1.000  H
  H32      1.0000 0.58920  0.21900  0.37020  Biso   1.000  H
  H33      1.0000 0.55630  0.92990  0.37360  Biso   1.000  H
  H34      1.0000 0.62980  0.84880  0.21900  Biso   1.000  H
  H35      1.0000 0.44370  0.81730  0.37360  Biso   1.000  H
  H36      1.0000 0.37020  0.58920  0.21900  Biso   1.000  H
  H37      1.0000 0.55630  0.18270  0.62640  Biso   1.000  H
  H38      1.0000 0.62980  0.41080  0.78100  Biso   1.000  H
  H39      1.0000 0.44370  0.07010  0.62640  Biso   1.000  H
  H40      1.0000 0.37020  0.15120  0.78100  Biso   1.000  H
  H41      1.0000 0.62640  0.44370  0.07010  Biso   1.000  H
  H42      1.0000 0.78100  0.37020  0.15120  Biso   1.000  H
  H43      1.0000 0.62640  0.55630  0.18270  Biso   1.000  H
  H44      1.0000 0.78100  0.62980  0.41080  Biso   1.000  H
  H45      1.0000 0.37360  0.44370  0.81730  Biso   1.000  H
  H46      1.0000 0.21900  0.37020  0.58920  Biso   1.000  H
  H47      1.0000 0.37360  0.55630  0.92990  Biso   1.000  H
  H48      1.0000 0.21900  0.62980  0.84880  Biso   1.000  H
  H49      1.0000 0.37360  0.81730  0.44370  Biso   1.000  H
  H50      1.0000 0.21900  0.58920  0.37020  Biso   1.000  H
  H51      1.0000 0.37360  0.92990  0.55630  Biso   1.000  H
  H52      1.0000 0.21900  0.84880  0.62980  Biso   1.000  H
  H53      1.0000 0.62640  0.07010  0.44370  Biso   1.000  H
  H54      1.0000 0.78100  0.15120  0.37020  Biso   1.000  H
  H55      1.0000 0.62640  0.18270  0.55630  Biso   1.000  H
  H56      1.0000 0.78100  0.41080  0.62980  Biso   1.000  H
  H57      1.0000 0.07010  0.44370  0.62640  Biso   1.000  H
  H58      1.0000 0.15120  0.37020  0.78100  Biso   1.000  H
  H59      1.0000 0.18270  0.55630  0.62640  Biso   1.000  H
  H60      1.0000 0.41080  0.62980  0.78100  Biso   1.000  H
  H61      1.0000 0.81730  0.44370  0.37360  Biso   1.000  H
  H62      1.0000 0.58920  0.37020  0.21900  Biso   1.000  H
  H63      1.0000 0.92990  0.55630  0.37360  Biso   1.000  H
  H64      1.0000 0.84880  0.62980  0.21900  Biso   1.000  H
  H65      1.0000 0.55630  0.37360  0.92990  Biso   1.000  H
  H66      1.0000 0.62980  0.21900  0.84880  Biso   1.000  H
  H67      1.0000 0.44370  0.37360  0.81730  Biso   1.000  H
  H68      1.0000 0.37020  0.21900  0.58920  Biso   1.000  H
  H69      1.0000 0.55630  0.62640  0.18270  Biso   1.000  H
  H70      1.0000 0.62980  0.78100  0.41080  Biso   1.000  H
  H71      1.0000 0.44370  0.62640  0.07010  Biso   1.000  H
  H72      1.0000 0.37020  0.78100  0.15120  Biso   1.000  H
  C1       1.0000 0.49570  0.91890  0.78680  Biso   1.000  C
  C2       1.0000 0.47550  0.96660  0.79890  Biso   1.000  C
  C3       1.0000 0.23510  0.72170  0.62380  Biso   1.000  C
  C4       1.0000 0.28300  0.71830  0.60750  Biso   1.000  C
  C5       1.0000 0.13210  0.70890  0.21320  Biso   1.000  C
  C6       1.0000 0.16770  0.67660  0.20110  Biso   1.000  C
  C7       1.0000 0.09790  0.61130  0.37620  Biso   1.000  C
  C8       1.0000 0.11080  0.67550  0.39250  Biso   1.000  C
  C9       1.0000 0.86790  0.08110  0.57680  Biso   1.000  C
  C10      1.0000 0.83230  0.03340  0.50890  Biso   1.000  C
  C11      1.0000 0.90210  0.27830  0.51340  Biso   1.000  C
  C12      1.0000 0.88920  0.28170  0.56470  Biso   1.000  C
  C13      1.0000 0.50430  0.29110  0.42320  Biso   1.000  C
  C14      1.0000 0.52450  0.32340  0.49110  Biso   1.000  C
  C15      1.0000 0.76490  0.38870  0.48660  Biso   1.000  C
  C16      1.0000 0.71700  0.32450  0.43530  Biso   1.000  C
  C17      1.0000 0.57680  0.86790  0.08110  Biso   1.000  C
  C18      1.0000 0.50890  0.83230  0.03340  Biso   1.000  C
  C19      1.0000 0.51340  0.90210  0.27830  Biso   1.000  C
  C20      1.0000 0.56470  0.88920  0.28170  Biso   1.000  C
  C21      1.0000 0.42320  0.50430  0.29110  Biso   1.000  C
  C22      1.0000 0.49110  0.52450  0.32340  Biso   1.000  C
  C23      1.0000 0.48660  0.76490  0.38870  Biso   1.000  C
  C24      1.0000 0.43530  0.71700  0.32450  Biso   1.000  C
  C25      1.0000 0.78680  0.49570  0.91890  Biso   1.000  C
  C26      1.0000 0.79890  0.47550  0.96660  Biso   1.000  C
  C27      1.0000 0.62380  0.23510  0.72170  Biso   1.000  C
  C28      1.0000 0.60750  0.28300  0.71830  Biso   1.000  C
  C29      1.0000 0.21320  0.13210  0.70890  Biso   1.000  C
  C30      1.0000 0.20110  0.16770  0.67660  Biso   1.000  C
  C31      1.0000 0.37620  0.09790  0.61130  Biso   1.000  C
  C32      1.0000 0.39250  0.11080  0.67550  Biso   1.000  C
  C33      1.0000 0.70890  0.21320  0.13210  Biso   1.000  C
  C34      1.0000 0.67660  0.20110  0.16770  Biso   1.000  C
  C35      1.0000 0.61130  0.37620  0.09790  Biso   1.000  C
  C36      1.0000 0.67550  0.39250  0.11080  Biso   1.000  C
  C37      1.0000 0.91890  0.78680  0.49570  Biso   1.000  C
  C38      1.0000 0.96660  0.79890  0.47550  Biso   1.000  C
  C39      1.0000 0.72170  0.62380  0.23510  Biso   1.000  C
  C40      1.0000 0.71830  0.60750  0.28300  Biso   1.000  C
  C41      1.0000 0.29110  0.42320  0.50430  Biso   1.000  C
  C42      1.0000 0.32340  0.49110  0.52450  Biso   1.000  C
  C43      1.0000 0.38870  0.48660  0.76490  Biso   1.000  C
  C44      1.0000 0.32450  0.43530  0.71700  Biso   1.000  C
  C45      1.0000 0.08110  0.57680  0.86790  Biso   1.000  C
  C46      1.0000 0.03340  0.50890  0.83230  Biso   1.000  C
  C47      1.0000 0.27830  0.51340  0.90210  Biso   1.000  C
  C48      1.0000 0.28170  0.56470  0.88920  Biso   1.000  C
  C49      1.0000 0.08110  0.50430  0.21320  Biso   1.000  C
  C50      1.0000 0.03340  0.52450  0.20110  Biso   1.000  C
  C51      1.0000 0.27830  0.76490  0.37620  Biso   1.000  C
  C52      1.0000 0.28170  0.71700  0.39250  Biso   1.000  C
  C53      1.0000 0.29110  0.86790  0.78680  Biso   1.000  C
  C54      1.0000 0.32340  0.83230  0.79890  Biso   1.000  C
  C55      1.0000 0.38870  0.90210  0.62380  Biso   1.000  C
  C56      1.0000 0.32450  0.88920  0.60750  Biso   1.000  C
  C57      1.0000 0.91890  0.13210  0.42320  Biso   1.000  C
  C58      1.0000 0.96660  0.16770  0.49110  Biso   1.000  C
  C59      1.0000 0.72170  0.09790  0.48660  Biso   1.000  C
  C60      1.0000 0.71830  0.11080  0.43530  Biso   1.000  C
  C61      1.0000 0.70890  0.49570  0.57680  Biso   1.000  C
  C62      1.0000 0.67660  0.47550  0.50890  Biso   1.000  C
  C63      1.0000 0.61130  0.23510  0.51340  Biso   1.000  C
  C64      1.0000 0.67550  0.28300  0.56470  Biso   1.000  C
  C65      1.0000 0.13210  0.42320  0.91890  Biso   1.000  C
  C66      1.0000 0.16770  0.49110  0.96660  Biso   1.000  C
  C67      1.0000 0.09790  0.48660  0.72170  Biso   1.000  C
  C68      1.0000 0.11080  0.43530  0.71830  Biso   1.000  C
  C69      1.0000 0.49570  0.57680  0.70890  Biso   1.000  C
  C70      1.0000 0.47550  0.50890  0.67660  Biso   1.000  C
  C71      1.0000 0.23510  0.51340  0.61130  Biso   1.000  C
  C72      1.0000 0.28300  0.56470  0.67550  Biso   1.000  C
  C73      1.0000 0.50430  0.21320  0.08110  Biso   1.000  C
  C74      1.0000 0.52450  0.20110  0.03340  Biso   1.000  C
  C75      1.0000 0.76490  0.37620  0.27830  Biso   1.000  C
  C76      1.0000 0.71700  0.39250  0.28170  Biso   1.000  C
  C77      1.0000 0.86790  0.78680  0.29110  Biso   1.000  C
  C78      1.0000 0.83230  0.79890  0.32340  Biso   1.000  C
  C79      1.0000 0.90210  0.62380  0.38870  Biso   1.000  C
  C80      1.0000 0.88920  0.60750  0.32450  Biso   1.000  C
  C81      1.0000 0.78680  0.29110  0.86790  Biso   1.000  C
  C82      1.0000 0.79890  0.32340  0.83230  Biso   1.000  C
  C83      1.0000 0.62380  0.38870  0.90210  Biso   1.000  C
  C84      1.0000 0.60750  0.32450  0.88920  Biso   1.000  C
  C85      1.0000 0.21320  0.08110  0.50430  Biso   1.000  C
  C86      1.0000 0.20110  0.03340  0.52450  Biso   1.000  C
  C87      1.0000 0.37620  0.27830  0.76490  Biso   1.000  C
  C88      1.0000 0.39250  0.28170  0.71700  Biso   1.000  C
  C89      1.0000 0.57680  0.70890  0.49570  Biso   1.000  C
  C90      1.0000 0.50890  0.67660  0.47550  Biso   1.000  C
  C91      1.0000 0.51340  0.61130  0.23510  Biso   1.000  C
  C92      1.0000 0.56470  0.67550  0.28300  Biso   1.000  C
  C93      1.0000 0.42320  0.91890  0.13210  Biso   1.000  C
  C94      1.0000 0.49110  0.96660  0.16770  Biso   1.000  C
  C95      1.0000 0.48660  0.72170  0.09790  Biso   1.000  C
  C96      1.0000 0.43530  0.71830  0.11080  Biso   1.000  C
  C97      1.0000 0.50430  0.08110  0.21320  Biso   1.000  C
  C98      1.0000 0.52450  0.03340  0.20110  Biso   1.000  C
  C99      1.0000 0.76490  0.27830  0.37620  Biso   1.000  C
  C100     1.0000 0.71700  0.28170  0.39250  Biso   1.000  C
  C101     1.0000 0.86790  0.29110  0.78680  Biso   1.000  C
  C102     1.0000 0.83230  0.32340  0.79890  Biso   1.000  C
  C103     1.0000 0.90210  0.38870  0.62380  Biso   1.000  C
  C104     1.0000 0.88920  0.32450  0.60750  Biso   1.000  C
  C105     1.0000 0.13210  0.91890  0.42320  Biso   1.000  C
  C106     1.0000 0.16770  0.96660  0.49110  Biso   1.000  C
  C107     1.0000 0.09790  0.72170  0.48660  Biso   1.000  C
  C108     1.0000 0.11080  0.71830  0.43530  Biso   1.000  C
  C109     1.0000 0.49570  0.70890  0.57680  Biso   1.000  C
  C110     1.0000 0.47550  0.67660  0.50890  Biso   1.000  C
  C111     1.0000 0.23510  0.61130  0.51340  Biso   1.000  C
  C112     1.0000 0.28300  0.67550  0.56470  Biso   1.000  C
  C113     1.0000 0.42320  0.13210  0.91890  Biso   1.000  C
  C114     1.0000 0.49110  0.16770  0.96660  Biso   1.000  C
  C115     1.0000 0.48660  0.09790  0.72170  Biso   1.000  C
  C116     1.0000 0.43530  0.11080  0.71830  Biso   1.000  C
  C117     1.0000 0.57680  0.49570  0.70890  Biso   1.000  C
  C118     1.0000 0.50890  0.47550  0.67660  Biso   1.000  C
  C119     1.0000 0.51340  0.23510  0.61130  Biso   1.000  C
  C120     1.0000 0.56470  0.28300  0.67550  Biso   1.000  C
  C121     1.0000 0.21320  0.50430  0.08110  Biso   1.000  C
  C122     1.0000 0.20110  0.52450  0.03340  Biso   1.000  C
  C123     1.0000 0.37620  0.76490  0.27830  Biso   1.000  C
  C124     1.0000 0.39250  0.71700  0.28170  Biso   1.000  C
  C125     1.0000 0.78680  0.86790  0.29110  Biso   1.000  C
  C126     1.0000 0.79890  0.83230  0.32340  Biso   1.000  C
  C127     1.0000 0.62380  0.90210  0.38870  Biso   1.000  C
  C128     1.0000 0.60750  0.88920  0.32450  Biso   1.000  C
  C129     1.0000 0.29110  0.78680  0.86790  Biso   1.000  C
  C130     1.0000 0.32340  0.79890  0.83230  Biso   1.000  C
  C131     1.0000 0.38870  0.62380  0.90210  Biso   1.000  C
  C132     1.0000 0.32450  0.60750  0.88920  Biso   1.000  C
  C133     1.0000 0.08110  0.21320  0.50430  Biso   1.000  C
  C134     1.0000 0.03340  0.20110  0.52450  Biso   1.000  C
  C135     1.0000 0.27830  0.37620  0.76490  Biso   1.000  C
  C136     1.0000 0.28170  0.39250  0.71700  Biso   1.000  C
  C137     1.0000 0.70890  0.57680  0.49570  Biso   1.000  C
  C138     1.0000 0.67660  0.50890  0.47550  Biso   1.000  C
  C139     1.0000 0.61130  0.51340  0.23510  Biso   1.000  C
  C140     1.0000 0.67550  0.56470  0.28300  Biso   1.000  C
  C141     1.0000 0.91890  0.42320  0.13210  Biso   1.000  C
  C142     1.0000 0.96660  0.49110  0.16770  Biso   1.000  C
  C143     1.0000 0.72170  0.48660  0.09790  Biso   1.000  C
  C144     1.0000 0.71830  0.43530  0.11080  Biso   1.000  C
  C145     1.0000 0.91890  0.49570  0.78680  Biso   1.000  C
  C146     1.0000 0.96660  0.47550  0.79890  Biso   1.000  C
  C147     1.0000 0.72170  0.23510  0.62380  Biso   1.000  C
  C148     1.0000 0.71830  0.28300  0.60750  Biso   1.000  C
  C149     1.0000 0.70890  0.13210  0.21320  Biso   1.000  C
  C150     1.0000 0.67660  0.16770  0.20110  Biso   1.000  C
  C151     1.0000 0.61130  0.09790  0.37620  Biso   1.000  C
  C152     1.0000 0.67550  0.11080  0.39250  Biso   1.000  C
  C153     1.0000 0.08110  0.86790  0.57680  Biso   1.000  C
  C154     1.0000 0.03340  0.83230  0.50890  Biso   1.000  C
  C155     1.0000 0.27830  0.90210  0.51340  Biso   1.000  C
  C156     1.0000 0.28170  0.88920  0.56470  Biso   1.000  C
  C157     1.0000 0.29110  0.50430  0.42320  Biso   1.000  C
  C158     1.0000 0.32340  0.52450  0.49110  Biso   1.000  C
  C159     1.0000 0.38870  0.76490  0.48660  Biso   1.000  C
  C160     1.0000 0.32450  0.71700  0.43530  Biso   1.000  C
  C161     1.0000 0.86790  0.57680  0.08110  Biso   1.000  C
  C162     1.0000 0.83230  0.50890  0.03340  Biso   1.000  C
  C163     1.0000 0.90210  0.51340  0.27830  Biso   1.000  C
  C164     1.0000 0.88920  0.56470  0.28170  Biso   1.000  C
  C165     1.0000 0.50430  0.42320  0.29110  Biso   1.000  C
  C166     1.0000 0.52450  0.49110  0.32340  Biso   1.000  C
  C167     1.0000 0.76490  0.48660  0.38870  Biso   1.000  C
  C168     1.0000 0.71700  0.43530  0.32450  Biso   1.000  C
  C169     1.0000 0.49570  0.78680  0.91890  Biso   1.000  C
  C170     1.0000 0.47550  0.79890  0.96660  Biso   1.000  C
  C171     1.0000 0.23510  0.62380  0.72170  Biso   1.000  C
  C172     1.0000 0.28300  0.60750  0.71830  Biso   1.000  C
  C173     1.0000 0.13210  0.21320  0.70890  Biso   1.000  C
  C174     1.0000 0.16770  0.20110  0.67660  Biso   1.000  C
  C175     1.0000 0.09790  0.37620  0.61130  Biso   1.000  C
  C176     1.0000 0.11080  0.39250  0.67550  Biso   1.000  C
  C177     1.0000 0.21320  0.70890  0.13210  Biso   1.000  C
  C178     1.0000 0.20110  0.67660  0.16770  Biso   1.000  C
  C179     1.0000 0.37620  0.61130  0.09790  Biso   1.000  C
  C180     1.0000 0.39250  0.67550  0.11080  Biso   1.000  C
  C181     1.0000 0.78680  0.91890  0.49570  Biso   1.000  C
  C182     1.0000 0.79890  0.96660  0.47550  Biso   1.000  C
  C183     1.0000 0.62380  0.72170  0.23510  Biso   1.000  C
  C184     1.0000 0.60750  0.71830  0.28300  Biso   1.000  C
  C185     1.0000 0.42320  0.29110  0.50430  Biso   1.000  C
  C186     1.0000 0.49110  0.32340  0.52450  Biso   1.000  C
  C187     1.0000 0.48660  0.38870  0.76490  Biso   1.000  C
  C188     1.0000 0.43530  0.32450  0.71700  Biso   1.000  C
  C189     1.0000 0.57680  0.08110  0.86790  Biso   1.000  C
  C190     1.0000 0.50890  0.03340  0.83230  Biso   1.000  C
  C191     1.0000 0.51340  0.27830  0.90210  Biso   1.000  C
  C192     1.0000 0.56470  0.28170  0.88920  Biso   1.000  C
  C193     1.0000 0.41470  0.00000  0.79230  Biso   1.000  C
  C194     1.0000 0.20770  0.62240  0.20770  Biso   1.000  C
  C195     1.0000 0.79230  0.00000  0.41470  Biso   1.000  C
  C196     1.0000 0.58530  0.37760  0.58530  Biso   1.000  C
  C197     1.0000 0.41470  0.79230  0.00000  Biso   1.000  C
  C198     1.0000 0.58530  0.58530  0.37760  Biso   1.000  C
  C199     1.0000 0.79230  0.41470  1.00000  Biso   1.000  C
  C200     1.0000 0.20770  0.20770  0.62240  Biso   1.000  C
  C201     1.0000 0.62240  0.20770  0.20770  Biso   1.000  C
  C202     1.0000 0.00000  0.79230  0.41470  Biso   1.000  C
  C203     1.0000 0.37760  0.58530  0.58530  Biso   1.000  C
  C204     1.0000 0.00000  0.41470  0.79230  Biso   1.000  C
  C205     1.0000 0.00000  0.58530  0.20770  Biso   1.000  C
  C206     1.0000 0.37760  0.79230  0.79230  Biso   1.000  C
  C207     1.0000 0.00000  0.20770  0.58530  Biso   1.000  C
  C208     1.0000 0.62240  0.41470  0.41470  Biso   1.000  C
  C209     1.0000 0.20770  0.58530  0.00000  Biso   1.000  C
  C210     1.0000 0.41470  0.41470  0.62240  Biso   1.000  C
  C211     1.0000 0.58530  0.20770  0.00000  Biso   1.000  C
  C212     1.0000 0.79230  0.79230  0.37760  Biso   1.000  C
  C213     1.0000 0.79230  0.37760  0.79230  Biso   1.000  C
  C214     1.0000 0.20770  0.00000  0.58530  Biso   1.000  C
  C215     1.0000 0.41470  0.62240  0.41470  Biso   1.000  C
  C216     1.0000 0.58530  1.00000  0.20770  Biso   1.000  C
  C217     1.0000 0.36960  0.75390  0.61570  Biso   1.000  C
  C218     1.0000 0.13820  0.75390  0.38430  Biso   1.000  C
  C219     1.0000 0.86180  0.24610  0.61570  Biso   1.000  C
  C220     1.0000 0.63040  0.24610  0.38430  Biso   1.000  C
  C221     1.0000 0.61570  0.86180  0.24610  Biso   1.000  C
  C222     1.0000 0.38430  0.63040  0.24610  Biso   1.000  C
  C223     1.0000 0.61570  0.36960  0.75390  Biso   1.000  C
  C224     1.0000 0.38430  0.13820  0.75390  Biso   1.000  C
  C225     1.0000 0.75390  0.38430  0.13820  Biso   1.000  C
  C226     1.0000 0.75390  0.61570  0.36960  Biso   1.000  C
  C227     1.0000 0.24610  0.38430  0.63040  Biso   1.000  C
  C228     1.0000 0.24610  0.61570  0.86180  Biso   1.000  C
  C229     1.0000 0.24610  0.63040  0.38430  Biso   1.000  C
  C230     1.0000 0.24610  0.86180  0.61570  Biso   1.000  C
  C231     1.0000 0.75390  0.13820  0.38430  Biso   1.000  C
  C232     1.0000 0.75390  0.36960  0.61570  Biso   1.000  C
  C233     1.0000 0.13820  0.38430  0.75390  Biso   1.000  C
  C234     1.0000 0.36960  0.61570  0.75390  Biso   1.000  C
  C235     1.0000 0.63040  0.38430  0.24610  Biso   1.000  C
  C236     1.0000 0.86180  0.61570  0.24610  Biso   1.000  C
  C237     1.0000 0.61570  0.24610  0.86180  Biso   1.000  C
  C238     1.0000 0.38430  0.24610  0.63040  Biso   1.000  C
  C239     1.0000 0.61570  0.75390  0.36960  Biso   1.000  C
  C240     1.0000 0.38430  0.75390  0.13820  Biso   1.000  C
  N1       1.0000 0.41500  0.94880  0.77420  Biso   1.000  N
  N2       1.0000 0.33940  0.77040  0.64180  Biso   1.000  N
  N3       1.0000 0.17460  0.64080  0.22580  Biso   1.000  N
  N4       1.0000 0.12860  0.69760  0.35820  Biso   1.000  N
  N5       1.0000 0.82540  0.05120  0.46620  Biso   1.000  N
  N6       1.0000 0.87140  0.22960  0.56900  Biso   1.000  N
  N7       1.0000 0.58500  0.35920  0.53380  Biso   1.000  N
  N8       1.0000 0.66060  0.30240  0.43100  Biso   1.000  N
  N9       1.0000 0.46620  0.82540  0.05120  Biso   1.000  N
  N10      1.0000 0.56900  0.87140  0.22960  Biso   1.000  N
  N11      1.0000 0.53380  0.58500  0.35920  Biso   1.000  N
  N12      1.0000 0.43100  0.66060  0.30240  Biso   1.000  N
  N13      1.0000 0.77420  0.41500  0.94880  Biso   1.000  N
  N14      1.0000 0.64180  0.33940  0.77040  Biso   1.000  N
  N15      1.0000 0.22580  0.17460  0.64080  Biso   1.000  N
  N16      1.0000 0.35820  0.12860  0.69760  Biso   1.000  N
  N17      1.0000 0.64080  0.22580  0.17460  Biso   1.000  N
  N18      1.0000 0.69760  0.35820  0.12860  Biso   1.000  N
  N19      1.0000 0.94880  0.77420  0.41500  Biso   1.000  N
  N20      1.0000 0.77040  0.64180  0.33940  Biso   1.000  N
  N21      1.0000 0.35920  0.53380  0.58500  Biso   1.000  N
  N22      1.0000 0.30240  0.43100  0.66060  Biso   1.000  N
  N23      1.0000 0.05120  0.46620  0.82540  Biso   1.000  N
  N24      1.0000 0.22960  0.56900  0.87140  Biso   1.000  N
  N25      1.0000 0.05120  0.58500  0.22580  Biso   1.000  N
  N26      1.0000 0.22960  0.66060  0.35820  Biso   1.000  N
  N27      1.0000 0.35920  0.82540  0.77420  Biso   1.000  N
  N28      1.0000 0.30240  0.87140  0.64180  Biso   1.000  N
  N29      1.0000 0.94880  0.17460  0.53380  Biso   1.000  N
  N30      1.0000 0.77040  0.12860  0.43100  Biso   1.000  N
  N31      1.0000 0.64080  0.41500  0.46620  Biso   1.000  N
  N32      1.0000 0.69760  0.33940  0.56900  Biso   1.000  N
  N33      1.0000 0.17460  0.53380  0.94880  Biso   1.000  N
  N34      1.0000 0.12860  0.43100  0.77040  Biso   1.000  N
  N35      1.0000 0.41500  0.46620  0.64080  Biso   1.000  N
  N36      1.0000 0.33940  0.56900  0.69760  Biso   1.000  N
  N37      1.0000 0.58500  0.22580  0.05120  Biso   1.000  N
  N38      1.0000 0.66060  0.35820  0.22960  Biso   1.000  N
  N39      1.0000 0.82540  0.77420  0.35920  Biso   1.000  N
  N40      1.0000 0.87140  0.64180  0.30240  Biso   1.000  N
  N41      1.0000 0.77420  0.35920  0.82540  Biso   1.000  N
  N42      1.0000 0.64180  0.30240  0.87140  Biso   1.000  N
  N43      1.0000 0.22580  0.05120  0.58500  Biso   1.000  N
  N44      1.0000 0.35820  0.22960  0.66060  Biso   1.000  N
  N45      1.0000 0.46620  0.64080  0.41500  Biso   1.000  N
  N46      1.0000 0.56900  0.69760  0.33940  Biso   1.000  N
  N47      1.0000 0.53380  0.94880  0.17460  Biso   1.000  N
  N48      1.0000 0.43100  0.77040  0.12860  Biso   1.000  N
  N49      1.0000 0.58500  0.05120  0.22580  Biso   1.000  N
  N50      1.0000 0.66060  0.22960  0.35820  Biso   1.000  N
  N51      1.0000 0.82540  0.35920  0.77420  Biso   1.000  N
  N52      1.0000 0.87140  0.30240  0.64180  Biso   1.000  N
  N53      1.0000 0.17460  0.94880  0.53380  Biso   1.000  N
  N54      1.0000 0.12860  0.77040  0.43100  Biso   1.000  N
  N55      1.0000 0.41500  0.64080  0.46620  Biso   1.000  N
  N56      1.0000 0.33940  0.69760  0.56900  Biso   1.000  N
  N57      1.0000 0.53380  0.17460  0.94880  Biso   1.000  N
  N58      1.0000 0.43100  0.12860  0.77040  Biso   1.000  N
  N59      1.0000 0.46620  0.41500  0.64080  Biso   1.000  N
  N60      1.0000 0.56900  0.33940  0.69760  Biso   1.000  N
  N61      1.0000 0.22580  0.58500  0.05120  Biso   1.000  N
  N62      1.0000 0.35820  0.66060  0.22960  Biso   1.000  N
  N63      1.0000 0.77420  0.82540  0.35920  Biso   1.000  N
  N64      1.0000 0.64180  0.87140  0.30240  Biso   1.000  N
  N65      1.0000 0.35920  0.77420  0.82540  Biso   1.000  N
  N66      1.0000 0.30240  0.64180  0.87140  Biso   1.000  N
  N67      1.0000 0.05120  0.22580  0.58500  Biso   1.000  N
  N68      1.0000 0.22960  0.35820  0.66060  Biso   1.000  N
  N69      1.0000 0.64080  0.46620  0.41500  Biso   1.000  N
  N70      1.0000 0.69760  0.56900  0.33940  Biso   1.000  N
  N71      1.0000 0.94880  0.53380  0.17460  Biso   1.000  N
  N72      1.0000 0.77040  0.43100  0.12860  Biso   1.000  N
  N73      1.0000 0.94880  0.41500  0.77420  Biso   1.000  N
  N74      1.0000 0.77040  0.33940  0.64180  Biso   1.000  N
  N75      1.0000 0.64080  0.17460  0.22580  Biso   1.000  N
  N76      1.0000 0.69760  0.12860  0.35820  Biso   1.000  N
  N77      1.0000 0.05120  0.82540  0.46620  Biso   1.000  N
  N78      1.0000 0.22960  0.87140  0.56900  Biso   1.000  N
  N79      1.0000 0.35920  0.58500  0.53380  Biso   1.000  N
  N80      1.0000 0.30240  0.66060  0.43100  Biso   1.000  N
  N81      1.0000 0.82540  0.46620  0.05120  Biso   1.000  N
  N82      1.0000 0.87140  0.56900  0.22960  Biso   1.000  N
  N83      1.0000 0.58500  0.53380  0.35920  Biso   1.000  N
  N84      1.0000 0.66060  0.43100  0.30240  Biso   1.000  N
  N85      1.0000 0.41500  0.77420  0.94880  Biso   1.000  N
  N86      1.0000 0.33940  0.64180  0.77040  Biso   1.000  N
  N87      1.0000 0.17460  0.22580  0.64080  Biso   1.000  N
  N88      1.0000 0.12860  0.35820  0.69760  Biso   1.000  N
  N89      1.0000 0.22580  0.64080  0.17460  Biso   1.000  N
  N90      1.0000 0.35820  0.69760  0.12860  Biso   1.000  N
  N91      1.0000 0.77420  0.94880  0.41500  Biso   1.000  N
  N92      1.0000 0.64180  0.77040  0.33940  Biso   1.000  N
  N93      1.0000 0.53380  0.35920  0.58500  Biso   1.000  N
  N94      1.0000 0.43100  0.30240  0.66060  Biso   1.000  N
  N95      1.0000 0.46620  0.05120  0.82540  Biso   1.000  N
  N96      1.0000 0.56900  0.22960  0.87140  Biso   1.000  N
  O1       1.0000 0.45870  0.86699  0.75529  Biso   1.000  O
  O2       1.0000 0.55650  0.94222  0.81332  Biso   1.000  O
  O3       1.0000 0.24593  0.76918  0.66155  Biso   1.000  O
  O4       1.0000 0.18277  0.67067  0.59210  Biso   1.000  O
  O5       1.0000 0.11170  0.70341  0.24471  Biso   1.000  O
  O6       1.0000 0.12890  0.74318  0.18668  Biso   1.000  O
  O7       1.0000 0.10763  0.58438  0.33845  Biso   1.000  O
  O8       1.0000 0.07857  0.59067  0.40790  Biso   1.000  O
  O9       1.0000 0.88830  0.13301  0.59171  Biso   1.000  O
  O10      1.0000 0.87110  0.05778  0.61428  Biso   1.000  O
  O11      1.0000 0.89237  0.23082  0.47675  Biso   1.000  O
  O12      1.0000 0.92143  0.32933  0.51210  Biso   1.000  O
  O13      1.0000 0.54130  0.29659  0.40829  Biso   1.000  O
  O14      1.0000 0.44350  0.25682  0.38572  Biso   1.000  O
  O15      1.0000 0.75407  0.41562  0.52325  Biso   1.000  O
  O16      1.0000 0.81723  0.40933  0.48790  Biso   1.000  O
  O17      1.0000 0.59171  0.88830  0.13301  Biso   1.000  O
  O18      1.0000 0.61428  0.87110  0.05778  Biso   1.000  O
  O19      1.0000 0.47675  0.89237  0.23082  Biso   1.000  O
  O20      1.0000 0.51210  0.92143  0.32933  Biso   1.000  O
  O21      1.0000 0.40829  0.54130  0.29659  Biso   1.000  O
  O22      1.0000 0.38572  0.44350  0.25682  Biso   1.000  O
  O23      1.0000 0.52325  0.75407  0.41562  Biso   1.000  O
  O24      1.0000 0.48790  0.81723  0.40933  Biso   1.000  O
  O25      1.0000 0.75529  0.45870  0.86699  Biso   1.000  O
  O26      1.0000 0.81332  0.55650  0.94222  Biso   1.000  O
  O27      1.0000 0.66155  0.24593  0.76918  Biso   1.000  O
  O28      1.0000 0.59210  0.18277  0.67067  Biso   1.000  O
  O29      1.0000 0.24471  0.11170  0.70341  Biso   1.000  O
  O30      1.0000 0.18668  0.12890  0.74318  Biso   1.000  O
  O31      1.0000 0.33845  0.10763  0.58438  Biso   1.000  O
  O32      1.0000 0.40790  0.07857  0.59067  Biso   1.000  O
  O33      1.0000 0.70341  0.24471  0.11170  Biso   1.000  O
  O34      1.0000 0.74318  0.18668  0.12890  Biso   1.000  O
  O35      1.0000 0.58438  0.33845  0.10763  Biso   1.000  O
  O36      1.0000 0.59067  0.40790  0.07857  Biso   1.000  O
  O37      1.0000 0.86699  0.75529  0.45870  Biso   1.000  O
  O38      1.0000 0.94222  0.81332  0.55650  Biso   1.000  O
  O39      1.0000 0.76918  0.66155  0.24593  Biso   1.000  O
  O40      1.0000 0.67067  0.59210  0.18277  Biso   1.000  O
  O41      1.0000 0.29659  0.40829  0.54130  Biso   1.000  O
  O42      1.0000 0.25682  0.38572  0.44350  Biso   1.000  O
  O43      1.0000 0.41562  0.52325  0.75407  Biso   1.000  O
  O44      1.0000 0.40933  0.48790  0.81723  Biso   1.000  O
  O45      1.0000 0.13301  0.59171  0.88830  Biso   1.000  O
  O46      1.0000 0.05778  0.61428  0.87110  Biso   1.000  O
  O47      1.0000 0.23082  0.47675  0.89237  Biso   1.000  O
  O48      1.0000 0.32933  0.51210  0.92143  Biso   1.000  O
  O49      1.0000 0.13301  0.54130  0.24471  Biso   1.000  O
  O50      1.0000 0.05778  0.44350  0.18668  Biso   1.000  O
  O51      1.0000 0.23082  0.75407  0.33845  Biso   1.000  O
  O52      1.0000 0.32933  0.81723  0.40790  Biso   1.000  O
  O53      1.0000 0.29659  0.88830  0.75529  Biso   1.000  O
  O54      1.0000 0.25682  0.87110  0.81332  Biso   1.000  O
  O55      1.0000 0.41562  0.89237  0.66155  Biso   1.000  O
  O56      1.0000 0.40933  0.92143  0.59210  Biso   1.000  O
  O57      1.0000 0.86699  0.11170  0.40829  Biso   1.000  O
  O58      1.0000 0.94222  0.12890  0.38572  Biso   1.000  O
  O59      1.0000 0.76918  0.10763  0.52325  Biso   1.000  O
  O60      1.0000 0.67067  0.07857  0.48790  Biso   1.000  O
  O61      1.0000 0.70341  0.45870  0.59171  Biso   1.000  O
  O62      1.0000 0.74318  0.55650  0.61428  Biso   1.000  O
  O63      1.0000 0.58438  0.24593  0.47675  Biso   1.000  O
  O64      1.0000 0.59067  0.18277  0.51210  Biso   1.000  O
  O65      1.0000 0.11170  0.40829  0.86699  Biso   1.000  O
  O66      1.0000 0.12890  0.38572  0.94222  Biso   1.000  O
  O67      1.0000 0.10763  0.52325  0.76918  Biso   1.000  O
  O68      1.0000 0.07857  0.48790  0.67067  Biso   1.000  O
  O69      1.0000 0.45870  0.59171  0.70341  Biso   1.000  O
  O70      1.0000 0.55650  0.61428  0.74318  Biso   1.000  O
  O71      1.0000 0.24593  0.47675  0.58438  Biso   1.000  O
  O72      1.0000 0.18277  0.51210  0.59067  Biso   1.000  O
  O73      1.0000 0.54130  0.24471  0.13301  Biso   1.000  O
  O74      1.0000 0.44350  0.18668  0.05778  Biso   1.000  O
  O75      1.0000 0.75407  0.33845  0.23082  Biso   1.000  O
  O76      1.0000 0.81723  0.40790  0.32933  Biso   1.000  O
  O77      1.0000 0.88830  0.75529  0.29659  Biso   1.000  O
  O78      1.0000 0.87110  0.81332  0.25682  Biso   1.000  O
  O79      1.0000 0.89237  0.66155  0.41562  Biso   1.000  O
  O80      1.0000 0.92143  0.59210  0.40933  Biso   1.000  O
  O81      1.0000 0.75529  0.29659  0.88830  Biso   1.000  O
  O82      1.0000 0.81332  0.25682  0.87110  Biso   1.000  O
  O83      1.0000 0.66155  0.41562  0.89237  Biso   1.000  O
  O84      1.0000 0.59210  0.40933  0.92143  Biso   1.000  O
  O85      1.0000 0.24471  0.13301  0.54130  Biso   1.000  O
  O86      1.0000 0.18668  0.05778  0.44350  Biso   1.000  O
  O87      1.0000 0.33845  0.23082  0.75407  Biso   1.000  O
  O88      1.0000 0.40790  0.32933  0.81723  Biso   1.000  O
  O89      1.0000 0.59171  0.70341  0.45870  Biso   1.000  O
  O90      1.0000 0.61428  0.74318  0.55650  Biso   1.000  O
  O91      1.0000 0.47675  0.58438  0.24593  Biso   1.000  O
  O92      1.0000 0.51210  0.59067  0.18277  Biso   1.000  O
  O93      1.0000 0.40829  0.86699  0.11170  Biso   1.000  O
  O94      1.0000 0.38572  0.94222  0.12890  Biso   1.000  O
  O95      1.0000 0.52325  0.76918  0.10763  Biso   1.000  O
  O96      1.0000 0.48790  0.67067  0.07857  Biso   1.000  O
  O97      1.0000 0.54130  0.13301  0.24471  Biso   1.000  O
  O98      1.0000 0.44350  0.05778  0.18668  Biso   1.000  O
  O99      1.0000 0.75407  0.23082  0.33845  Biso   1.000  O
  O100     1.0000 0.81723  0.32933  0.40790  Biso   1.000  O
  O101     1.0000 0.88830  0.29659  0.75529  Biso   1.000  O
  O102     1.0000 0.87110  0.25682  0.81332  Biso   1.000  O
  O103     1.0000 0.89237  0.41562  0.66155  Biso   1.000  O
  O104     1.0000 0.92143  0.40933  0.59210  Biso   1.000  O
  O105     1.0000 0.11170  0.86699  0.40829  Biso   1.000  O
  O106     1.0000 0.12890  0.94222  0.38572  Biso   1.000  O
  O107     1.0000 0.10763  0.76918  0.52325  Biso   1.000  O
  O108     1.0000 0.07857  0.67067  0.48790  Biso   1.000  O
  O109     1.0000 0.45870  0.70341  0.59171  Biso   1.000  O
  O110     1.0000 0.55650  0.74318  0.61428  Biso   1.000  O
  O111     1.0000 0.24593  0.58438  0.47675  Biso   1.000  O
  O112     1.0000 0.18277  0.59067  0.51210  Biso   1.000  O
  O113     1.0000 0.40829  0.11170  0.86699  Biso   1.000  O
  O114     1.0000 0.38572  0.12890  0.94222  Biso   1.000  O
  O115     1.0000 0.52325  0.10763  0.76918  Biso   1.000  O
  O116     1.0000 0.48790  0.07857  0.67067  Biso   1.000  O
  O117     1.0000 0.59171  0.45870  0.70341  Biso   1.000  O
  O118     1.0000 0.61428  0.55650  0.74318  Biso   1.000  O
  O119     1.0000 0.47675  0.24593  0.58438  Biso   1.000  O
  O120     1.0000 0.51210  0.18277  0.59067  Biso   1.000  O
  O121     1.0000 0.24471  0.54130  0.13301  Biso   1.000  O
  O122     1.0000 0.18668  0.44350  0.05778  Biso   1.000  O
  O123     1.0000 0.33845  0.75407  0.23082  Biso   1.000  O
  O124     1.0000 0.40790  0.81723  0.32933  Biso   1.000  O
  O125     1.0000 0.75529  0.88830  0.29659  Biso   1.000  O
  O126     1.0000 0.81332  0.87110  0.25682  Biso   1.000  O
  O127     1.0000 0.66155  0.89237  0.41562  Biso   1.000  O
  O128     1.0000 0.59210  0.92143  0.40933  Biso   1.000  O
  O129     1.0000 0.29659  0.75529  0.88830  Biso   1.000  O
  O130     1.0000 0.25682  0.81332  0.87110  Biso   1.000  O
  O131     1.0000 0.41562  0.66155  0.89237  Biso   1.000  O
  O132     1.0000 0.40933  0.59210  0.92143  Biso   1.000  O
  O133     1.0000 0.13301  0.24471  0.54130  Biso   1.000  O
  O134     1.0000 0.05778  0.18668  0.44350  Biso   1.000  O
  O135     1.0000 0.23082  0.33845  0.75407  Biso   1.000  O
  O136     1.0000 0.32933  0.40790  0.81723  Biso   1.000  O
  O137     1.0000 0.70341  0.59171  0.45870  Biso   1.000  O
  O138     1.0000 0.74318  0.61428  0.55650  Biso   1.000  O
  O139     1.0000 0.58438  0.47675  0.24593  Biso   1.000  O
  O140     1.0000 0.59067  0.51210  0.18277  Biso   1.000  O
  O141     1.0000 0.86699  0.40829  0.11170  Biso   1.000  O
  O142     1.0000 0.94222  0.38572  0.12890  Biso   1.000  O
  O143     1.0000 0.76918  0.52325  0.10763  Biso   1.000  O
  O144     1.0000 0.67067  0.48790  0.07857  Biso   1.000  O
  O145     1.0000 0.86699  0.45870  0.75529  Biso   1.000  O
  O146     1.0000 0.94222  0.55650  0.81332  Biso   1.000  O
  O147     1.0000 0.76918  0.24593  0.66155  Biso   1.000  O
  O148     1.0000 0.67067  0.18277  0.59210  Biso   1.000  O
  O149     1.0000 0.70341  0.11170  0.24471  Biso   1.000  O
  O150     1.0000 0.74318  0.12890  0.18668  Biso   1.000  O
  O151     1.0000 0.58438  0.10763  0.33845  Biso   1.000  O
  O152     1.0000 0.59067  0.07857  0.40790  Biso   1.000  O
  O153     1.0000 0.13301  0.88830  0.59171  Biso   1.000  O
  O154     1.0000 0.05778  0.87110  0.61428  Biso   1.000  O
  O155     1.0000 0.23082  0.89237  0.47675  Biso   1.000  O
  O156     1.0000 0.32933  0.92143  0.51210  Biso   1.000  O
  O157     1.0000 0.29659  0.54130  0.40829  Biso   1.000  O
  O158     1.0000 0.25682  0.44350  0.38572  Biso   1.000  O
  O159     1.0000 0.41562  0.75407  0.52325  Biso   1.000  O
  O160     1.0000 0.40933  0.81723  0.48790  Biso   1.000  O
  O161     1.0000 0.88830  0.59171  0.13301  Biso   1.000  O
  O162     1.0000 0.87110  0.61428  0.05778  Biso   1.000  O
  O163     1.0000 0.89237  0.47675  0.23082  Biso   1.000  O
  O164     1.0000 0.92143  0.51210  0.32933  Biso   1.000  O
  O165     1.0000 0.54130  0.40829  0.29659  Biso   1.000  O
  O166     1.0000 0.44350  0.38572  0.25682  Biso   1.000  O
  O167     1.0000 0.75407  0.52325  0.41562  Biso   1.000  O
  O168     1.0000 0.81723  0.48790  0.40933  Biso   1.000  O
  O169     1.0000 0.45870  0.75529  0.86699  Biso   1.000  O
  O170     1.0000 0.55650  0.81332  0.94222  Biso   1.000  O
  O171     1.0000 0.24593  0.66155  0.76918  Biso   1.000  O
  O172     1.0000 0.18277  0.59210  0.67067  Biso   1.000  O
  O173     1.0000 0.11170  0.24471  0.70341  Biso   1.000  O
  O174     1.0000 0.12890  0.18668  0.74318  Biso   1.000  O
  O175     1.0000 0.10763  0.33845  0.58438  Biso   1.000  O
  O176     1.0000 0.07857  0.40790  0.59067  Biso   1.000  O
  O177     1.0000 0.24471  0.70341  0.11170  Biso   1.000  O
  O178     1.0000 0.18668  0.74318  0.12890  Biso   1.000  O
  O179     1.0000 0.33845  0.58438  0.10763  Biso   1.000  O
  O180     1.0000 0.40790  0.59067  0.07857  Biso   1.000  O
  O181     1.0000 0.75529  0.86699  0.45870  Biso   1.000  O
  O182     1.0000 0.81332  0.94222  0.55650  Biso   1.000  O
  O183     1.0000 0.66155  0.76918  0.24593  Biso   1.000  O
  O184     1.0000 0.59210  0.67067  0.18277  Biso   1.000  O
  O185     1.0000 0.40829  0.29659  0.54130  Biso   1.000  O
  O186     1.0000 0.38572  0.25682  0.44350  Biso   1.000  O
  O187     1.0000 0.52325  0.41562  0.75407  Biso   1.000  O
  O188     1.0000 0.48790  0.40933  0.81723  Biso   1.000  O
  O189     1.0000 0.59171  0.13301  0.88830  Biso   1.000  O
  O190     1.0000 0.61428  0.05778  0.87110  Biso   1.000  O
  O191     1.0000 0.47675  0.23082  0.89237  Biso   1.000  O
  O192     1.0000 0.51210  0.32933  0.92143  Biso   1.000  O
