data_image0
_cell_length_a       10.2288
_cell_length_b       11.2962
_cell_length_c       22.2689
_cell_angle_alpha    90
_cell_angle_beta     97.0662
_cell_angle_gamma    90

_symmetry_space_group_name_H-M    P 1
_symmetry_int_tables_number       1

loop_
  _symmetry_equiv_pos_as_xyz
  'x, y, z'

loop_
  _atom_site_label
  _atom_site_occupancy
  _atom_site_fract_x
  _atom_site_fract_y
  _atom_site_fract_z
  _atom_site_thermal_displace_type
  _atom_site_B_iso_or_equiv
  _atom_site_type_symbol
  Gd1      1.0000 0.61119  0.68532  0.22515  Biso   1.000  Gd
  Gd2      1.0000 0.24163  0.90914  0.43580  Biso   1.000  Gd
  Gd3      1.0000 0.88881  0.18532  0.27485  Biso   1.000  Gd
  Gd4      1.0000 0.25837  0.40914  0.06420  Biso   1.000  Gd
  Gd5      1.0000 0.38881  0.31468  0.77485  Biso   1.000  Gd
  Gd6      1.0000 0.75837  0.09086  0.56420  Biso   1.000  Gd
  Gd7      1.0000 0.11119  0.81468  0.72515  Biso   1.000  Gd
  Gd8      1.0000 0.74163  0.59086  0.93580  Biso   1.000  Gd
  H1       1.0000 0.15730  0.96630  0.16460  Biso   1.000  H
  H2       1.0000 0.11930  0.61860  0.16210  Biso   1.000  H
  H3       1.0000 0.24990  0.89090  0.07440  Biso   1.000  H
  H4       1.0000 0.31030  0.76430  0.08630  Biso   1.000  H
  H5       1.0000 0.40300  0.87500  0.08740  Biso   1.000  H
  H6       1.0000 0.11940  0.64110  0.27200  Biso   1.000  H
  H7       1.0000 0.98950  0.59130  0.29320  Biso   1.000  H
  H8       1.0000 0.00900  0.72830  0.28730  Biso   1.000  H
  H9       1.0000 0.34270  0.46630  0.33540  Biso   1.000  H
  H10      1.0000 0.38070  0.11860  0.33790  Biso   1.000  H
  H11      1.0000 0.25010  0.39090  0.42560  Biso   1.000  H
  H12      1.0000 0.18970  0.26430  0.41370  Biso   1.000  H
  H13      1.0000 0.09700  0.37500  0.41260  Biso   1.000  H
  H14      1.0000 0.38060  0.14110  0.22800  Biso   1.000  H
  H15      1.0000 0.51050  0.09130  0.20680  Biso   1.000  H
  H16      1.0000 0.49100  0.22830  0.21270  Biso   1.000  H
  H17      1.0000 0.84270  0.03370  0.83540  Biso   1.000  H
  H18      1.0000 0.88070  0.38140  0.83790  Biso   1.000  H
  H19      1.0000 0.75010  0.10910  0.92560  Biso   1.000  H
  H20      1.0000 0.68970  0.23570  0.91370  Biso   1.000  H
  H21      1.0000 0.59700  0.12500  0.91260  Biso   1.000  H
  H22      1.0000 0.88060  0.35890  0.72800  Biso   1.000  H
  H23      1.0000 0.01050  0.40870  0.70680  Biso   1.000  H
  H24      1.0000 0.99100  0.27170  0.71270  Biso   1.000  H
  H25      1.0000 0.65730  0.53370  0.66460  Biso   1.000  H
  H26      1.0000 0.61930  0.88140  0.66210  Biso   1.000  H
  H27      1.0000 0.74990  0.60910  0.57440  Biso   1.000  H
  H28      1.0000 0.81030  0.73570  0.58630  Biso   1.000  H
  H29      1.0000 0.90300  0.62500  0.58740  Biso   1.000  H
  H30      1.0000 0.61940  0.85890  0.77200  Biso   1.000  H
  H31      1.0000 0.48950  0.90870  0.79320  Biso   1.000  H
  H32      1.0000 0.50900  0.77170  0.78730  Biso   1.000  H
  C1       1.0000 0.31220  0.86110  0.16330  Biso   1.000  C
  C2       1.0000 0.34847  0.85150  0.26187  Biso   1.000  C
  C3       1.0000 0.24112  0.92490  0.24872  Biso   1.000  C
  C4       1.0000 0.31960  0.84650  0.09690  Biso   1.000  C
  C5       1.0000 0.42103  0.81040  0.32033  Biso   1.000  C
  C6       1.0000 0.15880  0.00210  0.28400  Biso   1.000  C
  C7       1.0000 0.96417  0.64760  0.20607  Biso   1.000  C
  C8       1.0000 0.82636  0.64890  0.12336  Biso   1.000  C
  C9       1.0000 0.95000  0.63000  0.10580  Biso   1.000  C
  C10      1.0000 0.02610  0.65250  0.27040  Biso   1.000  C
  C11      1.0000 0.69329  0.65340  0.08759  Biso   1.000  C
  C12      1.0000 0.00918  0.61500  0.04818  Biso   1.000  C
  C13      1.0000 0.79626  0.90720  0.27836  Biso   1.000  C
  C14      1.0000 0.73842  0.95350  0.21502  Biso   1.000  C
  C15      1.0000 0.18780  0.36110  0.33670  Biso   1.000  C
  C16      1.0000 0.15153  0.35150  0.23813  Biso   1.000  C
  C17      1.0000 0.25888  0.42490  0.25128  Biso   1.000  C
  C18      1.0000 0.18040  0.34650  0.40310  Biso   1.000  C
  C19      1.0000 0.07897  0.31040  0.17967  Biso   1.000  C
  C20      1.0000 0.34120  0.50210  0.21600  Biso   1.000  C
  C21      1.0000 0.53583  0.14760  0.29393  Biso   1.000  C
  C22      1.0000 0.67364  0.14890  0.37664  Biso   1.000  C
  C23      1.0000 0.55000  0.13000  0.39420  Biso   1.000  C
  C24      1.0000 0.47390  0.15250  0.22960  Biso   1.000  C
  C25      1.0000 0.80671  0.15340  0.41241  Biso   1.000  C
  C26      1.0000 0.49082  0.11500  0.45182  Biso   1.000  C
  C27      1.0000 0.70374  0.40720  0.22164  Biso   1.000  C
  C28      1.0000 0.76158  0.45350  0.28498  Biso   1.000  C
  C29      1.0000 0.68780  0.13890  0.83670  Biso   1.000  C
  C30      1.0000 0.65153  0.14850  0.73813  Biso   1.000  C
  C31      1.0000 0.75888  0.07510  0.75128  Biso   1.000  C
  C32      1.0000 0.68040  0.15350  0.90310  Biso   1.000  C
  C33      1.0000 0.57897  0.18960  0.67967  Biso   1.000  C
  C34      1.0000 0.84120  0.99790  0.71600  Biso   1.000  C
  C35      1.0000 0.03583  0.35240  0.79393  Biso   1.000  C
  C36      1.0000 0.17364  0.35110  0.87664  Biso   1.000  C
  C37      1.0000 0.05000  0.37000  0.89420  Biso   1.000  C
  C38      1.0000 0.97390  0.34750  0.72960  Biso   1.000  C
  C39      1.0000 0.30671  0.34660  0.91241  Biso   1.000  C
  C40      1.0000 0.99082  0.38500  0.95182  Biso   1.000  C
  C41      1.0000 0.20374  0.09280  0.72164  Biso   1.000  C
  C42      1.0000 0.26158  0.04650  0.78498  Biso   1.000  C
  C43      1.0000 0.81220  0.63890  0.66330  Biso   1.000  C
  C44      1.0000 0.84847  0.64850  0.76187  Biso   1.000  C
  C45      1.0000 0.74112  0.57510  0.74872  Biso   1.000  C
  C46      1.0000 0.81960  0.65350  0.59690  Biso   1.000  C
  C47      1.0000 0.92103  0.68960  0.82033  Biso   1.000  C
  C48      1.0000 0.65880  0.49790  0.78400  Biso   1.000  C
  C49      1.0000 0.46417  0.85240  0.70607  Biso   1.000  C
  C50      1.0000 0.32636  0.85110  0.62336  Biso   1.000  C
  C51      1.0000 0.45000  0.87000  0.60580  Biso   1.000  C
  C52      1.0000 0.52610  0.84750  0.77040  Biso   1.000  C
  C53      1.0000 0.19329  0.84660  0.58759  Biso   1.000  C
  C54      1.0000 0.50918  0.88500  0.54818  Biso   1.000  C
  C55      1.0000 0.29626  0.59280  0.77836  Biso   1.000  C
  C56      1.0000 0.23842  0.54650  0.71502  Biso   1.000  C
  N1       1.0000 0.39344  0.81210  0.20884  Biso   1.000  N
  N2       1.0000 0.21948  0.92810  0.18578  Biso   1.000  N
  N3       1.0000 0.83664  0.65950  0.18554  Biso   1.000  N
  N4       1.0000 0.03555  0.62910  0.15915  Biso   1.000  N
  N5       1.0000 0.10656  0.31210  0.29116  Biso   1.000  N
  N6       1.0000 0.28052  0.42810  0.31422  Biso   1.000  N
  N7       1.0000 0.66336  0.15950  0.31446  Biso   1.000  N
  N8       1.0000 0.46445  0.12910  0.34085  Biso   1.000  N
  N9       1.0000 0.60656  0.18790  0.79116  Biso   1.000  N
  N10      1.0000 0.78052  0.07190  0.81422  Biso   1.000  N
  N11      1.0000 0.16336  0.34050  0.81446  Biso   1.000  N
  N12      1.0000 0.96445  0.37090  0.84085  Biso   1.000  N
  N13      1.0000 0.89344  0.68790  0.70884  Biso   1.000  N
  N14      1.0000 0.71948  0.57190  0.68578  Biso   1.000  N
  N15      1.0000 0.33664  0.84050  0.68554  Biso   1.000  N
  N16      1.0000 0.53555  0.87090  0.65915  Biso   1.000  N
  O1       1.0000 0.52506  0.75190  0.31736  Biso   1.000  O
  O2       1.0000 0.37825  0.83450  0.36925  Biso   1.000  O
  O3       1.0000 0.18536  0.01050  0.34026  Biso   1.000  O
  O4       1.0000 0.06953  0.05910  0.25183  Biso   1.000  O
  O5       1.0000 0.59637  0.67600  0.11607  Biso   1.000  O
  O6       1.0000 0.68024  0.63300  0.03164  Biso   1.000  O
  O7       1.0000 0.94225  0.63680  0.99825  Biso   1.000  O
  O8       1.0000 0.12897  0.58400  0.05407  Biso   1.000  O
  O9       1.0000 0.86671  0.97780  0.31171  Biso   1.000  O
  O10      1.0000 0.76936  0.80200  0.29126  Biso   1.000  O
  O11      1.0000 0.77183  0.05520  0.20023  Biso   1.000  O
  O12      1.0000 0.65979  0.88460  0.18369  Biso   1.000  O
  O13      1.0000 0.23590  0.68850  0.44200  Biso   1.000  O
  O14      1.0000 0.01863  0.84980  0.40003  Biso   1.000  O
  O15      1.0000 0.10385  0.07180  0.46545  Biso   1.000  O
  O16      1.0000 0.97494  0.25190  0.18264  Biso   1.000  O
  O17      1.0000 0.12175  0.33450  0.13075  Biso   1.000  O
  O18      1.0000 0.31464  0.51050  0.15974  Biso   1.000  O
  O19      1.0000 0.43047  0.55910  0.24817  Biso   1.000  O
  O20      1.0000 0.90363  0.17600  0.38393  Biso   1.000  O
  O21      1.0000 0.81976  0.13300  0.46836  Biso   1.000  O
  O22      1.0000 0.55775  0.13680  0.50175  Biso   1.000  O
  O23      1.0000 0.37103  0.08400  0.44593  Biso   1.000  O
  O24      1.0000 0.63329  0.47780  0.18829  Biso   1.000  O
  O25      1.0000 0.73064  0.30200  0.20874  Biso   1.000  O
  O26      1.0000 0.72817  0.55520  0.29977  Biso   1.000  O
  O27      1.0000 0.84021  0.38460  0.31631  Biso   1.000  O
  O28      1.0000 0.26410  0.18850  0.05800  Biso   1.000  O
  O29      1.0000 0.48137  0.34980  0.09997  Biso   1.000  O
  O30      1.0000 0.39615  0.57180  0.03455  Biso   1.000  O
  O31      1.0000 0.47494  0.24810  0.68264  Biso   1.000  O
  O32      1.0000 0.62175  0.16550  0.63075  Biso   1.000  O
  O33      1.0000 0.81464  0.98950  0.65974  Biso   1.000  O
  O34      1.0000 0.93047  0.94090  0.74817  Biso   1.000  O
  O35      1.0000 0.40363  0.32400  0.88393  Biso   1.000  O
  O36      1.0000 0.31976  0.36700  0.96836  Biso   1.000  O
  O37      1.0000 0.05775  0.36320  0.00175  Biso   1.000  O
  O38      1.0000 0.87103  0.41600  0.94593  Biso   1.000  O
  O39      1.0000 0.13329  0.02220  0.68829  Biso   1.000  O
  O40      1.0000 0.23064  0.19800  0.70874  Biso   1.000  O
  O41      1.0000 0.22817  0.94480  0.79977  Biso   1.000  O
  O42      1.0000 0.34021  0.11540  0.81631  Biso   1.000  O
  O43      1.0000 0.76410  0.31150  0.55800  Biso   1.000  O
  O44      1.0000 0.98137  0.15020  0.59997  Biso   1.000  O
  O45      1.0000 0.89615  0.92820  0.53455  Biso   1.000  O
  O46      1.0000 0.02506  0.74810  0.81736  Biso   1.000  O
  O47      1.0000 0.87825  0.66550  0.86925  Biso   1.000  O
  O48      1.0000 0.68536  0.48950  0.84026  Biso   1.000  O
  O49      1.0000 0.56953  0.44090  0.75183  Biso   1.000  O
  O50      1.0000 0.09637  0.82400  0.61607  Biso   1.000  O
  O51      1.0000 0.18024  0.86700  0.53164  Biso   1.000  O
  O52      1.0000 0.44225  0.86320  0.49825  Biso   1.000  O
  O53      1.0000 0.62897  0.91600  0.55407  Biso   1.000  O
  O54      1.0000 0.36671  0.52220  0.81171  Biso   1.000  O
  O55      1.0000 0.26936  0.69800  0.79126  Biso   1.000  O
  O56      1.0000 0.27183  0.44480  0.70023  Biso   1.000  O
  O57      1.0000 0.15979  0.61540  0.68369  Biso   1.000  O
  O58      1.0000 0.73590  0.81150  0.94200  Biso   1.000  O
  O59      1.0000 0.51863  0.65020  0.90003  Biso   1.000  O
  O60      1.0000 0.60385  0.42820  0.96545  Biso   1.000  O
