data_image0
_cell_length_a       10.2064
_cell_length_b       11.2487
_cell_length_c       22.1913
_cell_angle_alpha    90
_cell_angle_beta     97.201
_cell_angle_gamma    90

_symmetry_space_group_name_H-M    P 1
_symmetry_int_tables_number       1

loop_
  _symmetry_equiv_pos_as_xyz
  'x, y, z'

loop_
  _atom_site_label
  _atom_site_occupancy
  _atom_site_fract_x
  _atom_site_fract_y
  _atom_site_fract_z
  _atom_site_thermal_displace_type
  _atom_site_B_iso_or_equiv
  _atom_site_type_symbol
  Eu1      1.0000 0.61084  0.81362  0.72508  Biso   1.000  Eu
  Eu2      1.0000 0.74111  0.91030  0.43562  Biso   1.000  Eu
  Eu3      1.0000 0.88916  0.31362  0.77492  Biso   1.000  Eu
  Eu4      1.0000 0.75889  0.41030  0.06438  Biso   1.000  Eu
  Eu5      1.0000 0.38916  0.18638  0.27492  Biso   1.000  Eu
  Eu6      1.0000 0.25889  0.08970  0.56438  Biso   1.000  Eu
  Eu7      1.0000 0.11084  0.68638  0.22508  Biso   1.000  Eu
  Eu8      1.0000 0.24111  0.58970  0.93562  Biso   1.000  Eu
  H1       1.0000 0.13100  0.90500  0.66400  Biso   1.000  H
  H2       1.0000 0.24860  0.60790  0.57470  Biso   1.000  H
  H3       1.0000 0.40230  0.62290  0.58750  Biso   1.000  H
  H4       1.0000 0.31030  0.73470  0.58630  Biso   1.000  H
  H5       1.0000 0.11990  0.85680  0.77190  Biso   1.000  H
  H6       1.0000 0.00880  0.76940  0.78700  Biso   1.000  H
  H7       1.0000 0.99000  0.90700  0.79320  Biso   1.000  H
  H8       1.0000 0.36900  0.40500  0.83600  Biso   1.000  H
  H9       1.0000 0.25140  0.10790  0.92530  Biso   1.000  H
  H10      1.0000 0.09770  0.12290  0.91250  Biso   1.000  H
  H11      1.0000 0.18970  0.23470  0.91370  Biso   1.000  H
  H12      1.0000 0.38010  0.35680  0.72810  Biso   1.000  H
  H13      1.0000 0.49120  0.26940  0.71300  Biso   1.000  H
  H14      1.0000 0.51000  0.40700  0.70680  Biso   1.000  H
  H15      1.0000 0.86900  0.09500  0.33600  Biso   1.000  H
  H16      1.0000 0.75140  0.39210  0.42530  Biso   1.000  H
  H17      1.0000 0.59770  0.37710  0.41250  Biso   1.000  H
  H18      1.0000 0.68970  0.26530  0.41370  Biso   1.000  H
  H19      1.0000 0.88010  0.14320  0.22810  Biso   1.000  H
  H20      1.0000 0.99120  0.23060  0.21300  Biso   1.000  H
  H21      1.0000 0.01000  0.09300  0.20680  Biso   1.000  H
  H22      1.0000 0.63100  0.59500  0.16400  Biso   1.000  H
  H23      1.0000 0.74860  0.89210  0.07470  Biso   1.000  H
  H24      1.0000 0.90230  0.87710  0.08750  Biso   1.000  H
  H25      1.0000 0.81030  0.76530  0.08630  Biso   1.000  H
  H26      1.0000 0.61990  0.64320  0.27190  Biso   1.000  H
  H27      1.0000 0.50880  0.73060  0.28700  Biso   1.000  H
  H28      1.0000 0.49000  0.59300  0.29320  Biso   1.000  H
  C1       1.0000 0.31260  0.63810  0.66380  Biso   1.000  C
  C2       1.0000 0.24130  0.57360  0.74860  Biso   1.000  C
  C3       1.0000 0.34810  0.64730  0.76140  Biso   1.000  C
  C4       1.0000 0.31910  0.65220  0.59710  Biso   1.000  C
  C5       1.0000 0.15900  0.49700  0.78370  Biso   1.000  C
  C6       1.0000 0.42070  0.68760  0.82010  Biso   1.000  C
  C7       1.0000 0.96420  0.85120  0.70590  Biso   1.000  C
  C8       1.0000 0.95100  0.87010  0.60570  Biso   1.000  C
  C9       1.0000 0.82720  0.85060  0.62300  Biso   1.000  C
  C10      1.0000 0.02620  0.84560  0.77020  Biso   1.000  C
  C11      1.0000 0.00770  0.88510  0.54780  Biso   1.000  C
  C12      1.0000 0.69430  0.84580  0.58680  Biso   1.000  C
  C13      1.0000 0.76300  0.04560  0.78510  Biso   1.000  C
  C14      1.0000 0.70390  0.09170  0.72190  Biso   1.000  C
  C15      1.0000 0.18740  0.13810  0.83620  Biso   1.000  C
  C16      1.0000 0.25870  0.07360  0.75140  Biso   1.000  C
  C17      1.0000 0.15190  0.14730  0.73860  Biso   1.000  C
  C18      1.0000 0.18090  0.15220  0.90290  Biso   1.000  C
  C19      1.0000 0.34100  0.99700  0.71630  Biso   1.000  C
  C20      1.0000 0.07930  0.18760  0.67990  Biso   1.000  C
  C21      1.0000 0.53580  0.35120  0.79410  Biso   1.000  C
  C22      1.0000 0.54900  0.37010  0.89430  Biso   1.000  C
  C23      1.0000 0.67280  0.35060  0.87700  Biso   1.000  C
  C24      1.0000 0.47380  0.34560  0.72980  Biso   1.000  C
  C25      1.0000 0.49230  0.38510  0.95220  Biso   1.000  C
  C26      1.0000 0.80570  0.34580  0.91320  Biso   1.000  C
  C27      1.0000 0.73700  0.54560  0.71490  Biso   1.000  C
  C28      1.0000 0.79610  0.59170  0.77810  Biso   1.000  C
  C29      1.0000 0.68740  0.36190  0.33620  Biso   1.000  C
  C30      1.0000 0.75870  0.42640  0.25140  Biso   1.000  C
  C31      1.0000 0.65190  0.35270  0.23860  Biso   1.000  C
  C32      1.0000 0.68090  0.34780  0.40290  Biso   1.000  C
  C33      1.0000 0.84100  0.50300  0.21630  Biso   1.000  C
  C34      1.0000 0.57930  0.31240  0.17990  Biso   1.000  C
  C35      1.0000 0.03580  0.14880  0.29410  Biso   1.000  C
  C36      1.0000 0.04900  0.12990  0.39430  Biso   1.000  C
  C37      1.0000 0.17280  0.14940  0.37700  Biso   1.000  C
  C38      1.0000 0.97380  0.15440  0.22980  Biso   1.000  C
  C39      1.0000 0.99230  0.11490  0.45220  Biso   1.000  C
  C40      1.0000 0.30570  0.15420  0.41320  Biso   1.000  C
  C41      1.0000 0.23700  0.95440  0.21490  Biso   1.000  C
  C42      1.0000 0.29610  0.90830  0.27810  Biso   1.000  C
  C43      1.0000 0.81260  0.86190  0.16380  Biso   1.000  C
  C44      1.0000 0.74130  0.92640  0.24860  Biso   1.000  C
  C45      1.0000 0.84810  0.85270  0.26140  Biso   1.000  C
  C46      1.0000 0.81910  0.84780  0.09710  Biso   1.000  C
  C47      1.0000 0.65900  0.00300  0.28370  Biso   1.000  C
  C48      1.0000 0.92070  0.81240  0.32010  Biso   1.000  C
  C49      1.0000 0.46420  0.64880  0.20590  Biso   1.000  C
  C50      1.0000 0.45100  0.62990  0.10570  Biso   1.000  C
  C51      1.0000 0.32720  0.64940  0.12300  Biso   1.000  C
  C52      1.0000 0.52620  0.65440  0.27020  Biso   1.000  C
  C53      1.0000 0.50770  0.61490  0.04780  Biso   1.000  C
  C54      1.0000 0.19430  0.65420  0.08680  Biso   1.000  C
  C55      1.0000 0.26300  0.45440  0.28510  Biso   1.000  C
  C56      1.0000 0.20390  0.40830  0.22190  Biso   1.000  C
  N1       1.0000 0.21874  0.57000  0.68554  Biso   1.000  N
  N2       1.0000 0.39278  0.68640  0.70868  Biso   1.000  N
  N3       1.0000 0.03565  0.87030  0.65915  Biso   1.000  N
  N4       1.0000 0.83766  0.83970  0.68546  Biso   1.000  N
  N5       1.0000 0.28126  0.07000  0.81446  Biso   1.000  N
  N6       1.0000 0.10722  0.18640  0.79132  Biso   1.000  N
  N7       1.0000 0.46435  0.37030  0.84085  Biso   1.000  N
  N8       1.0000 0.66234  0.33970  0.81454  Biso   1.000  N
  N9       1.0000 0.78126  0.43000  0.31446  Biso   1.000  N
  N10      1.0000 0.60722  0.31360  0.29132  Biso   1.000  N
  N11      1.0000 0.96435  0.12970  0.34085  Biso   1.000  N
  N12      1.0000 0.16234  0.16030  0.31454  Biso   1.000  N
  N13      1.0000 0.71874  0.93000  0.18554  Biso   1.000  N
  N14      1.0000 0.89278  0.81360  0.20868  Biso   1.000  N
  N15      1.0000 0.53565  0.62970  0.15915  Biso   1.000  N
  N16      1.0000 0.33766  0.66030  0.18546  Biso   1.000  N
  O1       1.0000 0.07020  0.44010  0.75140  Biso   1.000  O
  O2       1.0000 0.18539  0.48900  0.83989  Biso   1.000  O
  O3       1.0000 0.37807  0.66440  0.86897  Biso   1.000  O
  O4       1.0000 0.52466  0.74630  0.81716  Biso   1.000  O
  O5       1.0000 0.12887  0.91450  0.55427  Biso   1.000  O
  O6       1.0000 0.94183  0.86380  0.49823  Biso   1.000  O
  O7       1.0000 0.68023  0.86800  0.53143  Biso   1.000  O
  O8       1.0000 0.59749  0.82290  0.61569  Biso   1.000  O
  O9       1.0000 0.84127  0.11390  0.81647  Biso   1.000  O
  O10      1.0000 0.72932  0.94380  0.80032  Biso   1.000  O
  O11      1.0000 0.73028  0.19630  0.70878  Biso   1.000  O
  O12      1.0000 0.63331  0.02120  0.68861  Biso   1.000  O
  O13      1.0000 0.73460  0.68960  0.44120  Biso   1.000  O
  O14      1.0000 0.51650  0.85090  0.40000  Biso   1.000  O
  O15      1.0000 0.60406  0.07400  0.46606  Biso   1.000  O
  O16      1.0000 0.42980  0.94010  0.74860  Biso   1.000  O
  O17      1.0000 0.31461  0.98900  0.66011  Biso   1.000  O
  O18      1.0000 0.12193  0.16440  0.63103  Biso   1.000  O
  O19      1.0000 0.97534  0.24630  0.68284  Biso   1.000  O
  O20      1.0000 0.37113  0.41450  0.94573  Biso   1.000  O
  O21      1.0000 0.55817  0.36380  0.00177  Biso   1.000  O
  O22      1.0000 0.81977  0.36800  0.96857  Biso   1.000  O
  O23      1.0000 0.90251  0.32290  0.88431  Biso   1.000  O
  O24      1.0000 0.65873  0.61390  0.68353  Biso   1.000  O
  O25      1.0000 0.77068  0.44380  0.69968  Biso   1.000  O
  O26      1.0000 0.76972  0.69630  0.79122  Biso   1.000  O
  O27      1.0000 0.86669  0.52120  0.81139  Biso   1.000  O
  O28      1.0000 0.76540  0.18960  0.05880  Biso   1.000  O
  O29      1.0000 0.98350  0.35090  0.10000  Biso   1.000  O
  O30      1.0000 0.89594  0.57400  0.03394  Biso   1.000  O
  O31      1.0000 0.92980  0.55990  0.24860  Biso   1.000  O
  O32      1.0000 0.81461  0.51100  0.16011  Biso   1.000  O
  O33      1.0000 0.62193  0.33560  0.13103  Biso   1.000  O
  O34      1.0000 0.47534  0.25370  0.18284  Biso   1.000  O
  O35      1.0000 0.87113  0.08550  0.44573  Biso   1.000  O
  O36      1.0000 0.05817  0.13620  0.50177  Biso   1.000  O
  O37      1.0000 0.31977  0.13200  0.46857  Biso   1.000  O
  O38      1.0000 0.40251  0.17710  0.38431  Biso   1.000  O
  O39      1.0000 0.15873  0.88610  0.18353  Biso   1.000  O
  O40      1.0000 0.27068  0.05620  0.19968  Biso   1.000  O
  O41      1.0000 0.26972  0.80370  0.29122  Biso   1.000  O
  O42      1.0000 0.36669  0.97880  0.31139  Biso   1.000  O
  O43      1.0000 0.26540  0.31040  0.55880  Biso   1.000  O
  O44      1.0000 0.48350  0.14910  0.60000  Biso   1.000  O
  O45      1.0000 0.39594  0.92600  0.53394  Biso   1.000  O
  O46      1.0000 0.57020  0.05990  0.25140  Biso   1.000  O
  O47      1.0000 0.68539  0.01100  0.33989  Biso   1.000  O
  O48      1.0000 0.87807  0.83560  0.36897  Biso   1.000  O
  O49      1.0000 0.02466  0.75370  0.31716  Biso   1.000  O
  O50      1.0000 0.62887  0.58550  0.05427  Biso   1.000  O
  O51      1.0000 0.44183  0.63620  0.99823  Biso   1.000  O
  O52      1.0000 0.18023  0.63200  0.03143  Biso   1.000  O
  O53      1.0000 0.09749  0.67710  0.11569  Biso   1.000  O
  O54      1.0000 0.34127  0.38610  0.31647  Biso   1.000  O
  O55      1.0000 0.22932  0.55620  0.30032  Biso   1.000  O
  O56      1.0000 0.23028  0.30370  0.20878  Biso   1.000  O
  O57      1.0000 0.13331  0.47880  0.18861  Biso   1.000  O
  O58      1.0000 0.23460  0.81040  0.94120  Biso   1.000  O
  O59      1.0000 0.01650  0.64910  0.90000  Biso   1.000  O
  O60      1.0000 0.10406  0.42600  0.96606  Biso   1.000  O
