data_image0
_cell_length_a       10.2815
_cell_length_b       11.2928
_cell_length_c       22.248
_cell_angle_alpha    90
_cell_angle_beta     97.462
_cell_angle_gamma    90

_symmetry_space_group_name_H-M    P 1
_symmetry_int_tables_number       1

loop_
  _symmetry_equiv_pos_as_xyz
  'x, y, z'

loop_
  _atom_site_label
  _atom_site_occupancy
  _atom_site_fract_x
  _atom_site_fract_y
  _atom_site_fract_z
  _atom_site_thermal_displace_type
  _atom_site_B_iso_or_equiv
  _atom_site_type_symbol
  Sm1      1.0000 0.60982  0.31369  0.22582  Biso   1.000  Sm
  Sm2      1.0000 0.73958  0.41173  0.93571  Biso   1.000  Sm
  Sm3      1.0000 0.89018  0.81369  0.27418  Biso   1.000  Sm
  Sm4      1.0000 0.76042  0.91173  0.56429  Biso   1.000  Sm
  Sm5      1.0000 0.39018  0.68631  0.77418  Biso   1.000  Sm
  Sm6      1.0000 0.26042  0.58827  0.06429  Biso   1.000  Sm
  Sm7      1.0000 0.10982  0.18631  0.72582  Biso   1.000  Sm
  Sm8      1.0000 0.23958  0.08827  0.43571  Biso   1.000  Sm
  H1       1.0000 0.15720  0.03270  0.16390  Biso   1.000  H
  H2       1.0000 0.11820  0.38090  0.16360  Biso   1.000  H
  H3       1.0000 0.24700  0.10800  0.07480  Biso   1.000  H
  H4       1.0000 0.39950  0.12390  0.08810  Biso   1.000  H
  H5       1.0000 0.30720  0.23470  0.08640  Biso   1.000  H
  H6       1.0000 0.11890  0.35760  0.27290  Biso   1.000  H
  H7       1.0000 0.00950  0.26960  0.28770  Biso   1.000  H
  H8       1.0000 0.98980  0.40640  0.29430  Biso   1.000  H
  H9       1.0000 0.34280  0.53270  0.33610  Biso   1.000  H
  H10      1.0000 0.38180  0.88090  0.33640  Biso   1.000  H
  H11      1.0000 0.25300  0.60800  0.42520  Biso   1.000  H
  H12      1.0000 0.10050  0.62390  0.41190  Biso   1.000  H
  H13      1.0000 0.19280  0.73470  0.41360  Biso   1.000  H
  H14      1.0000 0.38110  0.85760  0.22710  Biso   1.000  H
  H15      1.0000 0.49050  0.76960  0.21230  Biso   1.000  H
  H16      1.0000 0.51020  0.90640  0.20570  Biso   1.000  H
  H17      1.0000 0.84280  0.96730  0.83610  Biso   1.000  H
  H18      1.0000 0.88180  0.61910  0.83640  Biso   1.000  H
  H19      1.0000 0.75300  0.89200  0.92520  Biso   1.000  H
  H20      1.0000 0.60050  0.87610  0.91190  Biso   1.000  H
  H21      1.0000 0.69280  0.76530  0.91360  Biso   1.000  H
  H22      1.0000 0.88110  0.64240  0.72710  Biso   1.000  H
  H23      1.0000 0.99050  0.73040  0.71230  Biso   1.000  H
  H24      1.0000 0.01020  0.59360  0.70570  Biso   1.000  H
  H25      1.0000 0.65720  0.46730  0.66390  Biso   1.000  H
  H26      1.0000 0.61820  0.11910  0.66360  Biso   1.000  H
  H27      1.0000 0.74700  0.39200  0.57480  Biso   1.000  H
  H28      1.0000 0.89950  0.37610  0.58810  Biso   1.000  H
  H29      1.0000 0.80720  0.26530  0.58640  Biso   1.000  H
  H30      1.0000 0.61890  0.14240  0.77290  Biso   1.000  H
  H31      1.0000 0.50950  0.23040  0.78770  Biso   1.000  H
  H32      1.0000 0.48980  0.09360  0.79430  Biso   1.000  H
  C1       1.0000 0.30950  0.13880  0.16370  Biso   1.000  C
  C2       1.0000 0.23990  0.07480  0.24870  Biso   1.000  C
  C3       1.0000 0.34650  0.14870  0.26190  Biso   1.000  C
  C4       1.0000 0.31640  0.15260  0.09730  Biso   1.000  C
  C5       1.0000 0.15840  0.99730  0.28310  Biso   1.000  C
  C6       1.0000 0.41900  0.18890  0.32040  Biso   1.000  C
  C7       1.0000 0.96400  0.35200  0.20720  Biso   1.000  C
  C8       1.0000 0.94970  0.37070  0.10670  Biso   1.000  C
  C9       1.0000 0.82730  0.35190  0.12390  Biso   1.000  C
  C10      1.0000 0.02600  0.34580  0.27120  Biso   1.000  C
  C11      1.0000 0.00710  0.38550  0.04920  Biso   1.000  C
  C12      1.0000 0.69430  0.34870  0.08820  Biso   1.000  C
  C13      1.0000 0.73500  0.04590  0.21450  Biso   1.000  C
  C14      1.0000 0.79590  0.09170  0.27820  Biso   1.000  C
  C15      1.0000 0.19050  0.63880  0.33630  Biso   1.000  C
  C16      1.0000 0.26010  0.57480  0.25130  Biso   1.000  C
  C17      1.0000 0.15350  0.64870  0.23810  Biso   1.000  C
  C18      1.0000 0.18360  0.65260  0.40270  Biso   1.000  C
  C19      1.0000 0.34160  0.49730  0.21690  Biso   1.000  C
  C20      1.0000 0.08100  0.68890  0.17960  Biso   1.000  C
  C21      1.0000 0.53600  0.85200  0.29280  Biso   1.000  C
  C22      1.0000 0.55030  0.87070  0.39330  Biso   1.000  C
  C23      1.0000 0.67270  0.85190  0.37610  Biso   1.000  C
  C24      1.0000 0.47400  0.84580  0.22880  Biso   1.000  C
  C25      1.0000 0.49290  0.88550  0.45080  Biso   1.000  C
  C26      1.0000 0.80570  0.84870  0.41180  Biso   1.000  C
  C27      1.0000 0.76500  0.54590  0.28550  Biso   1.000  C
  C28      1.0000 0.70410  0.59170  0.22180  Biso   1.000  C
  C29      1.0000 0.69050  0.86120  0.83630  Biso   1.000  C
  C30      1.0000 0.76010  0.92520  0.75130  Biso   1.000  C
  C31      1.0000 0.65350  0.85130  0.73810  Biso   1.000  C
  C32      1.0000 0.68360  0.84740  0.90270  Biso   1.000  C
  C33      1.0000 0.84160  0.00270  0.71690  Biso   1.000  C
  C34      1.0000 0.58100  0.81110  0.67960  Biso   1.000  C
  C35      1.0000 0.03600  0.64800  0.79280  Biso   1.000  C
  C36      1.0000 0.05030  0.62930  0.89330  Biso   1.000  C
  C37      1.0000 0.17270  0.64810  0.87610  Biso   1.000  C
  C38      1.0000 0.97400  0.65420  0.72880  Biso   1.000  C
  C39      1.0000 0.99290  0.61450  0.95080  Biso   1.000  C
  C40      1.0000 0.30570  0.65130  0.91180  Biso   1.000  C
  C41      1.0000 0.26500  0.95410  0.78550  Biso   1.000  C
  C42      1.0000 0.20410  0.90830  0.72180  Biso   1.000  C
  C43      1.0000 0.80950  0.36120  0.66370  Biso   1.000  C
  C44      1.0000 0.73990  0.42520  0.74870  Biso   1.000  C
  C45      1.0000 0.84650  0.35130  0.76190  Biso   1.000  C
  C46      1.0000 0.81640  0.34740  0.59730  Biso   1.000  C
  C47      1.0000 0.65840  0.50270  0.78310  Biso   1.000  C
  C48      1.0000 0.91900  0.31110  0.82040  Biso   1.000  C
  C49      1.0000 0.46400  0.14800  0.70720  Biso   1.000  C
  C50      1.0000 0.44970  0.12930  0.60670  Biso   1.000  C
  C51      1.0000 0.32730  0.14810  0.62390  Biso   1.000  C
  C52      1.0000 0.52600  0.15420  0.77120  Biso   1.000  C
  C53      1.0000 0.50710  0.11450  0.54920  Biso   1.000  C
  C54      1.0000 0.19430  0.15130  0.58820  Biso   1.000  C
  C55      1.0000 0.23500  0.45410  0.71450  Biso   1.000  C
  C56      1.0000 0.29590  0.40830  0.77820  Biso   1.000  C
  N1       1.0000 0.21855  0.07150  0.18545  Biso   1.000  N
  N2       1.0000 0.39048  0.18760  0.20888  Biso   1.000  N
  N3       1.0000 0.03469  0.37070  0.16039  Biso   1.000  N
  N4       1.0000 0.83661  0.34040  0.18651  Biso   1.000  N
  N5       1.0000 0.28145  0.57150  0.31455  Biso   1.000  N
  N6       1.0000 0.10952  0.68760  0.29112  Biso   1.000  N
  N7       1.0000 0.46531  0.87070  0.33961  Biso   1.000  N
  N8       1.0000 0.66339  0.84040  0.31349  Biso   1.000  N
  N9       1.0000 0.78145  0.92850  0.81455  Biso   1.000  N
  N10      1.0000 0.60952  0.81240  0.79112  Biso   1.000  N
  N11      1.0000 0.96531  0.62930  0.83961  Biso   1.000  N
  N12      1.0000 0.16339  0.65960  0.81349  Biso   1.000  N
  N13      1.0000 0.71855  0.42850  0.68545  Biso   1.000  N
  N14      1.0000 0.89048  0.31240  0.70888  Biso   1.000  N
  N15      1.0000 0.53469  0.12930  0.66039  Biso   1.000  N
  N16      1.0000 0.33661  0.15960  0.68651  Biso   1.000  N
  O1       1.0000 0.07034  0.94070  0.25064  Biso   1.000  O
  O2       1.0000 0.18459  0.98880  0.33939  Biso   1.000  O
  O3       1.0000 0.37453  0.16710  0.36893  Biso   1.000  O
  O4       1.0000 0.52346  0.24390  0.31806  Biso   1.000  O
  O5       1.0000 0.12536  0.41560  0.05476  Biso   1.000  O
  O6       1.0000 0.93960  0.36270  0.99930  Biso   1.000  O
  O7       1.0000 0.68006  0.37320  0.03256  Biso   1.000  O
  O8       1.0000 0.59818  0.32340  0.11608  Biso   1.000  O
  O9       1.0000 0.76954  0.94480  0.19904  Biso   1.000  O
  O10      1.0000 0.65620  0.11340  0.18410  Biso   1.000  O
  O11      1.0000 0.86736  0.02140  0.31086  Biso   1.000  O
  O12      1.0000 0.76893  0.19620  0.29163  Biso   1.000  O
  O13      1.0000 0.72600  0.19170  0.94290  Biso   1.000  O
  O14      1.0000 0.51360  0.35410  0.90200  Biso   1.000  O
  O15      1.0000 0.60629  0.57940  0.96609  Biso   1.000  O
  O16      1.0000 0.42966  0.44070  0.24936  Biso   1.000  O
  O17      1.0000 0.31541  0.48880  0.16061  Biso   1.000  O
  O18      1.0000 0.12547  0.66710  0.13107  Biso   1.000  O
  O19      1.0000 0.97654  0.74390  0.18194  Biso   1.000  O
  O20      1.0000 0.37464  0.91560  0.44524  Biso   1.000  O
  O21      1.0000 0.56040  0.86270  0.50070  Biso   1.000  O
  O22      1.0000 0.81994  0.87320  0.46744  Biso   1.000  O
  O23      1.0000 0.90182  0.82340  0.38392  Biso   1.000  O
  O24      1.0000 0.73046  0.44480  0.30096  Biso   1.000  O
  O25      1.0000 0.84380  0.61340  0.31590  Biso   1.000  O
  O26      1.0000 0.63264  0.52140  0.18914  Biso   1.000  O
  O27      1.0000 0.73107  0.69620  0.20837  Biso   1.000  O
  O28      1.0000 0.77400  0.69170  0.55710  Biso   1.000  O
  O29      1.0000 0.98640  0.85410  0.59800  Biso   1.000  O
  O30      1.0000 0.89371  0.07940  0.53391  Biso   1.000  O
  O31      1.0000 0.92966  0.05930  0.74936  Biso   1.000  O
  O32      1.0000 0.81541  0.01120  0.66061  Biso   1.000  O
  O33      1.0000 0.62547  0.83290  0.63107  Biso   1.000  O
  O34      1.0000 0.47654  0.75610  0.68194  Biso   1.000  O
  O35      1.0000 0.87464  0.58440  0.94524  Biso   1.000  O
  O36      1.0000 0.06040  0.63730  0.00070  Biso   1.000  O
  O37      1.0000 0.31994  0.62680  0.96744  Biso   1.000  O
  O38      1.0000 0.40182  0.67660  0.88392  Biso   1.000  O
  O39      1.0000 0.23046  0.05520  0.80096  Biso   1.000  O
  O40      1.0000 0.34380  0.88660  0.81590  Biso   1.000  O
  O41      1.0000 0.13264  0.97860  0.68914  Biso   1.000  O
  O42      1.0000 0.23107  0.80380  0.70837  Biso   1.000  O
  O43      1.0000 0.27400  0.80830  0.05710  Biso   1.000  O
  O44      1.0000 0.48640  0.64590  0.09800  Biso   1.000  O
  O45      1.0000 0.39371  0.42060  0.03391  Biso   1.000  O
  O46      1.0000 0.57034  0.55930  0.75064  Biso   1.000  O
  O47      1.0000 0.68459  0.51120  0.83939  Biso   1.000  O
  O48      1.0000 0.87453  0.33290  0.86893  Biso   1.000  O
  O49      1.0000 0.02346  0.25610  0.81806  Biso   1.000  O
  O50      1.0000 0.62536  0.08440  0.55476  Biso   1.000  O
  O51      1.0000 0.43960  0.13730  0.49930  Biso   1.000  O
  O52      1.0000 0.18006  0.12680  0.53256  Biso   1.000  O
  O53      1.0000 0.09818  0.17660  0.61608  Biso   1.000  O
  O54      1.0000 0.26954  0.55520  0.69904  Biso   1.000  O
  O55      1.0000 0.15620  0.38660  0.68410  Biso   1.000  O
  O56      1.0000 0.36736  0.47860  0.81086  Biso   1.000  O
  O57      1.0000 0.26893  0.30380  0.79163  Biso   1.000  O
  O58      1.0000 0.22600  0.30830  0.44290  Biso   1.000  O
  O59      1.0000 0.01360  0.14590  0.40200  Biso   1.000  O
  O60      1.0000 0.10629  0.92060  0.46609  Biso   1.000  O
