data_image0
_cell_length_a       22.7345
_cell_length_b       22.7345
_cell_length_c       25.1354
_cell_angle_alpha    63.1124
_cell_angle_beta     63.1124
_cell_angle_gamma    60

_symmetry_space_group_name_H-M    P 1
_symmetry_int_tables_number       1

loop_
  _symmetry_equiv_pos_as_xyz
  'x, y, z'

loop_
  _atom_site_label
  _atom_site_occupancy
  _atom_site_fract_x
  _atom_site_fract_y
  _atom_site_fract_z
  _atom_site_thermal_displace_type
  _atom_site_B_iso_or_equiv
  _atom_site_type_symbol
  Zn1      1.0000 0.18028  0.02726  0.73714  Biso   1.000  Zn
  Zn2      1.0000 0.02726  0.05532  0.73714  Biso   1.000  Zn
  Zn3      1.0000 0.05532  0.18028  0.73714  Biso   1.000  Zn
  Zn4      1.0000 0.68028  0.55532  0.23714  Biso   1.000  Zn
  Zn5      1.0000 0.52726  0.68028  0.23714  Biso   1.000  Zn
  Zn6      1.0000 0.55532  0.52726  0.23714  Biso   1.000  Zn
  Zn7      1.0000 0.04853  0.04853  0.85441  Biso   1.000  Zn
  Zn8      1.0000 0.54853  0.54853  0.35441  Biso   1.000  Zn
  H1       1.0000 0.32310  0.87860  0.84970  Biso   1.000  H
  H2       1.0000 0.14140  0.88240  0.98770  Biso   1.000  H
  H3       1.0000 0.43730  0.75280  0.94180  Biso   1.000  H
  H4       1.0000 0.43150  0.83210  0.91300  Biso   1.000  H
  H5       1.0000 0.43520  0.79360  0.87250  Biso   1.000  H
  H6       1.0000 0.14040  0.83630  0.09510  Biso   1.000  H
  H7       1.0000 0.21170  0.79670  0.11250  Biso   1.000  H
  H8       1.0000 0.18510  0.75630  0.09690  Biso   1.000  H
  H9       1.0000 0.39610  0.79460  0.12540  Biso   1.000  H
  H10      1.0000 0.42460  0.60520  0.12570  Biso   1.000  H
  H11      1.0000 0.34500  0.90020  0.00390  Biso   1.000  H
  H12      1.0000 0.27130  0.90060  0.05280  Biso   1.000  H
  H13      1.0000 0.32810  0.90160  0.07110  Biso   1.000  H
  H14      1.0000 0.39540  0.63250  0.00960  Biso   1.000  H
  H15      1.0000 0.35260  0.60330  0.07830  Biso   1.000  H
  H16      1.0000 0.31330  0.67260  0.03330  Biso   1.000  H
  H17      1.0000 0.87860  0.94860  0.84970  Biso   1.000  H
  H18      1.0000 0.88240  0.98850  0.98770  Biso   1.000  H
  H19      1.0000 0.75280  0.86810  0.94180  Biso   1.000  H
  H20      1.0000 0.83210  0.82340  0.91300  Biso   1.000  H
  H21      1.0000 0.79360  0.89870  0.87250  Biso   1.000  H
  H22      1.0000 0.83630  0.92820  0.09510  Biso   1.000  H
  H23      1.0000 0.79670  0.87910  0.11250  Biso   1.000  H
  H24      1.0000 0.75630  0.96170  0.09690  Biso   1.000  H
  H25      1.0000 0.79460  0.68390  0.12540  Biso   1.000  H
  H26      1.0000 0.60520  0.84450  0.12570  Biso   1.000  H
  H27      1.0000 0.90020  0.75090  0.00390  Biso   1.000  H
  H28      1.0000 0.90060  0.77530  0.05280  Biso   1.000  H
  H29      1.0000 0.90160  0.69920  0.07110  Biso   1.000  H
  H30      1.0000 0.63250  0.96250  0.00960  Biso   1.000  H
  H31      1.0000 0.60330  0.96580  0.07830  Biso   1.000  H
  H32      1.0000 0.67260  0.98080  0.03330  Biso   1.000  H
  H33      1.0000 0.94860  0.32310  0.84970  Biso   1.000  H
  H34      1.0000 0.98850  0.14140  0.98770  Biso   1.000  H
  H35      1.0000 0.86810  0.43730  0.94180  Biso   1.000  H
  H36      1.0000 0.82340  0.43150  0.91300  Biso   1.000  H
  H37      1.0000 0.89870  0.43520  0.87250  Biso   1.000  H
  H38      1.0000 0.92820  0.14040  0.09510  Biso   1.000  H
  H39      1.0000 0.87910  0.21170  0.11250  Biso   1.000  H
  H40      1.0000 0.96170  0.18510  0.09690  Biso   1.000  H
  H41      1.0000 0.68390  0.39610  0.12540  Biso   1.000  H
  H42      1.0000 0.84450  0.42460  0.12570  Biso   1.000  H
  H43      1.0000 0.75090  0.34500  0.00390  Biso   1.000  H
  H44      1.0000 0.77530  0.27130  0.05280  Biso   1.000  H
  H45      1.0000 0.69920  0.32810  0.07110  Biso   1.000  H
  H46      1.0000 0.96250  0.39540  0.00960  Biso   1.000  H
  H47      1.0000 0.96580  0.35260  0.07830  Biso   1.000  H
  H48      1.0000 0.98080  0.31330  0.03330  Biso   1.000  H
  H49      1.0000 0.82310  0.44860  0.34970  Biso   1.000  H
  H50      1.0000 0.64140  0.48850  0.48770  Biso   1.000  H
  H51      1.0000 0.93730  0.36810  0.44180  Biso   1.000  H
  H52      1.0000 0.93150  0.32340  0.41300  Biso   1.000  H
  H53      1.0000 0.93520  0.39870  0.37250  Biso   1.000  H
  H54      1.0000 0.64040  0.42820  0.59510  Biso   1.000  H
  H55      1.0000 0.71170  0.37910  0.61250  Biso   1.000  H
  H56      1.0000 0.68510  0.46170  0.59690  Biso   1.000  H
  H57      1.0000 0.89610  0.18390  0.62540  Biso   1.000  H
  H58      1.0000 0.92460  0.34450  0.62570  Biso   1.000  H
  H59      1.0000 0.84500  0.25090  0.50390  Biso   1.000  H
  H60      1.0000 0.77130  0.27530  0.55280  Biso   1.000  H
  H61      1.0000 0.82810  0.19920  0.57110  Biso   1.000  H
  H62      1.0000 0.89540  0.46250  0.50960  Biso   1.000  H
  H63      1.0000 0.85260  0.46580  0.57830  Biso   1.000  H
  H64      1.0000 0.81330  0.48080  0.53330  Biso   1.000  H
  H65      1.0000 0.37860  0.82310  0.34970  Biso   1.000  H
  H66      1.0000 0.38240  0.64140  0.48770  Biso   1.000  H
  H67      1.0000 0.25280  0.93730  0.44180  Biso   1.000  H
  H68      1.0000 0.33210  0.93150  0.41300  Biso   1.000  H
  H69      1.0000 0.29360  0.93520  0.37250  Biso   1.000  H
  H70      1.0000 0.33630  0.64040  0.59510  Biso   1.000  H
  H71      1.0000 0.29670  0.71170  0.61250  Biso   1.000  H
  H72      1.0000 0.25630  0.68510  0.59690  Biso   1.000  H
  H73      1.0000 0.29460  0.89610  0.62540  Biso   1.000  H
  H74      1.0000 0.10520  0.92460  0.62570  Biso   1.000  H
  H75      1.0000 0.40020  0.84500  0.50390  Biso   1.000  H
  H76      1.0000 0.40060  0.77130  0.55280  Biso   1.000  H
  H77      1.0000 0.40160  0.82810  0.57110  Biso   1.000  H
  H78      1.0000 0.13250  0.89540  0.50960  Biso   1.000  H
  H79      1.0000 0.10330  0.85260  0.57830  Biso   1.000  H
  H80      1.0000 0.17260  0.81330  0.53330  Biso   1.000  H
  H81      1.0000 0.44860  0.37860  0.34970  Biso   1.000  H
  H82      1.0000 0.48850  0.38240  0.48770  Biso   1.000  H
  H83      1.0000 0.36810  0.25280  0.44180  Biso   1.000  H
  H84      1.0000 0.32340  0.33210  0.41300  Biso   1.000  H
  H85      1.0000 0.39870  0.29360  0.37250  Biso   1.000  H
  H86      1.0000 0.42820  0.33630  0.59510  Biso   1.000  H
  H87      1.0000 0.37910  0.29670  0.61250  Biso   1.000  H
  H88      1.0000 0.46170  0.25630  0.59690  Biso   1.000  H
  H89      1.0000 0.18390  0.29460  0.62540  Biso   1.000  H
  H90      1.0000 0.34450  0.10520  0.62570  Biso   1.000  H
  H91      1.0000 0.25090  0.40020  0.50390  Biso   1.000  H
  H92      1.0000 0.27530  0.40060  0.55280  Biso   1.000  H
  H93      1.0000 0.19920  0.40160  0.57110  Biso   1.000  H
  H94      1.0000 0.46250  0.13250  0.50960  Biso   1.000  H
  H95      1.0000 0.46580  0.10330  0.57830  Biso   1.000  H
  H96      1.0000 0.48080  0.17260  0.53330  Biso   1.000  H
  C1       1.0000 0.18454  0.94074  0.86698  Biso   1.000  C
  C2       1.0000 0.22545  0.88905  0.91255  Biso   1.000  C
  C3       1.0000 0.29920  0.86580  0.89200  Biso   1.000  C
  C4       1.0000 0.33665  0.82295  0.93595  Biso   1.000  C
  C5       1.0000 0.30220  0.80280  0.99820  Biso   1.000  C
  C6       1.0000 0.22768  0.82388  0.01896  Biso   1.000  C
  C7       1.0000 0.19058  0.86748  0.97486  Biso   1.000  C
  C8       1.0000 0.41776  0.79796  0.91372  Biso   1.000  C
  C9       1.0000 0.18760  0.80120  0.08700  Biso   1.000  C
  C10      1.0000 0.45570  0.65770  0.18120  Biso   1.000  C
  C11      1.0000 0.41449  0.69569  0.13383  Biso   1.000  C
  C12      1.0000 0.38841  0.76831  0.11127  Biso   1.000  C
  C13      1.0000 0.35136  0.80286  0.06882  Biso   1.000  C
  C14      1.0000 0.34177  0.76477  0.04599  Biso   1.000  C
  C15      1.0000 0.36969  0.69029  0.06633  Biso   1.000  C
  C16      1.0000 0.40633  0.65453  0.11121  Biso   1.000  C
  C17      1.0000 0.32121  0.88381  0.04707  Biso   1.000  C
  C18      1.0000 0.35657  0.64547  0.04479  Biso   1.000  C
  C19      1.0000 0.94074  0.00774  0.86698  Biso   1.000  C
  C20      1.0000 0.88905  0.97295  0.91255  Biso   1.000  C
  C21      1.0000 0.86580  0.94300  0.89200  Biso   1.000  C
  C22      1.0000 0.82295  0.90445  0.93595  Biso   1.000  C
  C23      1.0000 0.80280  0.89680  0.99820  Biso   1.000  C
  C24      1.0000 0.82388  0.92948  0.01896  Biso   1.000  C
  C25      1.0000 0.86748  0.96708  0.97486  Biso   1.000  C
  C26      1.0000 0.79796  0.87056  0.91372  Biso   1.000  C
  C27      1.0000 0.80120  0.92420  0.08700  Biso   1.000  C
  C28      1.0000 0.65770  0.70540  0.18120  Biso   1.000  C
  C29      1.0000 0.69569  0.75599  0.13383  Biso   1.000  C
  C30      1.0000 0.76831  0.73201  0.11127  Biso   1.000  C
  C31      1.0000 0.80286  0.77696  0.06882  Biso   1.000  C
  C32      1.0000 0.76477  0.84747  0.04599  Biso   1.000  C
  C33      1.0000 0.69029  0.87369  0.06633  Biso   1.000  C
  C34      1.0000 0.65453  0.82793  0.11121  Biso   1.000  C
  C35      1.0000 0.88381  0.74791  0.04707  Biso   1.000  C
  C36      1.0000 0.64547  0.95317  0.04479  Biso   1.000  C
  C37      1.0000 0.00774  0.18454  0.86698  Biso   1.000  C
  C38      1.0000 0.97295  0.22545  0.91255  Biso   1.000  C
  C39      1.0000 0.94300  0.29920  0.89200  Biso   1.000  C
  C40      1.0000 0.90445  0.33665  0.93595  Biso   1.000  C
  C41      1.0000 0.89680  0.30220  0.99820  Biso   1.000  C
  C42      1.0000 0.92948  0.22768  0.01896  Biso   1.000  C
  C43      1.0000 0.96708  0.19058  0.97486  Biso   1.000  C
  C44      1.0000 0.87056  0.41776  0.91372  Biso   1.000  C
  C45      1.0000 0.92420  0.18760  0.08700  Biso   1.000  C
  C46      1.0000 0.70540  0.45570  0.18120  Biso   1.000  C
  C47      1.0000 0.75599  0.41449  0.13383  Biso   1.000  C
  C48      1.0000 0.73201  0.38841  0.11127  Biso   1.000  C
  C49      1.0000 0.77696  0.35136  0.06882  Biso   1.000  C
  C50      1.0000 0.84747  0.34177  0.04599  Biso   1.000  C
  C51      1.0000 0.87369  0.36969  0.06633  Biso   1.000  C
  C52      1.0000 0.82793  0.40633  0.11121  Biso   1.000  C
  C53      1.0000 0.74791  0.32121  0.04707  Biso   1.000  C
  C54      1.0000 0.95317  0.35657  0.04479  Biso   1.000  C
  C55      1.0000 0.68454  0.50774  0.36698  Biso   1.000  C
  C56      1.0000 0.72545  0.47295  0.41255  Biso   1.000  C
  C57      1.0000 0.79920  0.44300  0.39200  Biso   1.000  C
  C58      1.0000 0.83665  0.40445  0.43595  Biso   1.000  C
  C59      1.0000 0.80220  0.39680  0.49820  Biso   1.000  C
  C60      1.0000 0.72768  0.42948  0.51896  Biso   1.000  C
  C61      1.0000 0.69058  0.46708  0.47486  Biso   1.000  C
  C62      1.0000 0.91776  0.37056  0.41372  Biso   1.000  C
  C63      1.0000 0.68760  0.42420  0.58700  Biso   1.000  C
  C64      1.0000 0.95570  0.20540  0.68120  Biso   1.000  C
  C65      1.0000 0.91449  0.25599  0.63383  Biso   1.000  C
  C66      1.0000 0.88841  0.23201  0.61127  Biso   1.000  C
  C67      1.0000 0.85136  0.27696  0.56882  Biso   1.000  C
  C68      1.0000 0.84177  0.34747  0.54599  Biso   1.000  C
  C69      1.0000 0.86969  0.37369  0.56633  Biso   1.000  C
  C70      1.0000 0.90633  0.32793  0.61121  Biso   1.000  C
  C71      1.0000 0.82121  0.24791  0.54707  Biso   1.000  C
  C72      1.0000 0.85657  0.45317  0.54479  Biso   1.000  C
  C73      1.0000 0.44074  0.68454  0.36698  Biso   1.000  C
  C74      1.0000 0.38905  0.72545  0.41255  Biso   1.000  C
  C75      1.0000 0.36580  0.79920  0.39200  Biso   1.000  C
  C76      1.0000 0.32295  0.83665  0.43595  Biso   1.000  C
  C77      1.0000 0.30280  0.80220  0.49820  Biso   1.000  C
  C78      1.0000 0.32388  0.72768  0.51896  Biso   1.000  C
  C79      1.0000 0.36748  0.69058  0.47486  Biso   1.000  C
  C80      1.0000 0.29796  0.91776  0.41372  Biso   1.000  C
  C81      1.0000 0.30120  0.68760  0.58700  Biso   1.000  C
  C82      1.0000 0.15770  0.95570  0.68120  Biso   1.000  C
  C83      1.0000 0.19569  0.91449  0.63383  Biso   1.000  C
  C84      1.0000 0.26831  0.88841  0.61127  Biso   1.000  C
  C85      1.0000 0.30286  0.85136  0.56882  Biso   1.000  C
  C86      1.0000 0.26477  0.84177  0.54599  Biso   1.000  C
  C87      1.0000 0.19029  0.86969  0.56633  Biso   1.000  C
  C88      1.0000 0.15453  0.90633  0.61121  Biso   1.000  C
  C89      1.0000 0.38381  0.82121  0.54707  Biso   1.000  C
  C90      1.0000 0.14547  0.85657  0.54479  Biso   1.000  C
  C91      1.0000 0.50774  0.44074  0.36698  Biso   1.000  C
  C92      1.0000 0.47295  0.38905  0.41255  Biso   1.000  C
  C93      1.0000 0.44300  0.36580  0.39200  Biso   1.000  C
  C94      1.0000 0.40445  0.32295  0.43595  Biso   1.000  C
  C95      1.0000 0.39680  0.30280  0.49820  Biso   1.000  C
  C96      1.0000 0.42948  0.32388  0.51896  Biso   1.000  C
  C97      1.0000 0.46708  0.36748  0.47486  Biso   1.000  C
  C98      1.0000 0.37056  0.29796  0.41372  Biso   1.000  C
  C99      1.0000 0.42420  0.30120  0.58700  Biso   1.000  C
  C100     1.0000 0.20540  0.15770  0.68120  Biso   1.000  C
  C101     1.0000 0.25599  0.19569  0.63383  Biso   1.000  C
  C102     1.0000 0.23201  0.26831  0.61127  Biso   1.000  C
  C103     1.0000 0.27696  0.30286  0.56882  Biso   1.000  C
  C104     1.0000 0.34747  0.26477  0.54599  Biso   1.000  C
  C105     1.0000 0.37369  0.19029  0.56633  Biso   1.000  C
  C106     1.0000 0.32793  0.15453  0.61121  Biso   1.000  C
  C107     1.0000 0.24791  0.38381  0.54707  Biso   1.000  C
  C108     1.0000 0.45317  0.14547  0.54479  Biso   1.000  C
  O1       1.0000 0.21695  0.96281  0.81046  Biso   1.000  O
  O2       1.0000 0.11711  0.96109  0.88939  Biso   1.000  O
  O3       1.0000 0.48431  0.58951  0.19407  Biso   1.000  O
  O4       1.0000 0.46457  0.70037  0.19599  Biso   1.000  O
  O5       1.0000 0.96281  0.00978  0.81046  Biso   1.000  O
  O6       1.0000 0.96109  0.03241  0.88939  Biso   1.000  O
  O7       1.0000 0.58951  0.73211  0.19407  Biso   1.000  O
  O8       1.0000 0.70037  0.63907  0.19599  Biso   1.000  O
  O9       1.0000 0.00978  0.21695  0.81046  Biso   1.000  O
  O10      1.0000 0.03241  0.11711  0.88939  Biso   1.000  O
  O11      1.0000 0.73211  0.48431  0.19407  Biso   1.000  O
  O12      1.0000 0.63907  0.46457  0.19599  Biso   1.000  O
  O13      1.0000 0.71695  0.50978  0.31046  Biso   1.000  O
  O14      1.0000 0.61711  0.53241  0.38939  Biso   1.000  O
  O15      1.0000 0.98431  0.23211  0.69407  Biso   1.000  O
  O16      1.0000 0.96457  0.13907  0.69599  Biso   1.000  O
  O17      1.0000 0.46281  0.71695  0.31046  Biso   1.000  O
  O18      1.0000 0.46109  0.61711  0.38939  Biso   1.000  O
  O19      1.0000 0.08951  0.98431  0.69407  Biso   1.000  O
  O20      1.0000 0.20037  0.96457  0.69599  Biso   1.000  O
  O21      1.0000 0.50978  0.46281  0.31046  Biso   1.000  O
  O22      1.0000 0.53241  0.46109  0.38939  Biso   1.000  O
  O23      1.0000 0.23211  0.08951  0.69407  Biso   1.000  O
  O24      1.0000 0.13907  0.20037  0.69599  Biso   1.000  O
  O25      1.0000 0.07841  0.07841  0.76477  Biso   1.000  O
  O26      1.0000 0.57841  0.57841  0.26477  Biso   1.000  O
  Zn9      1.0000 0.31972  0.44468  0.76286  Biso   1.000  Zn
  Zn10     1.0000 0.47274  0.31972  0.76286  Biso   1.000  Zn
  Zn11     1.0000 0.44468  0.47274  0.76286  Biso   1.000  Zn
  Zn12     1.0000 0.81972  0.97274  0.26286  Biso   1.000  Zn
  Zn13     1.0000 0.97274  0.94468  0.26286  Biso   1.000  Zn
  Zn14     1.0000 0.94468  0.81972  0.26286  Biso   1.000  Zn
  Zn15     1.0000 0.45147  0.45147  0.64559  Biso   1.000  Zn
  Zn16     1.0000 0.95147  0.95147  0.14559  Biso   1.000  Zn
  H97      1.0000 0.17690  0.55140  0.65030  Biso   1.000  H
  H98      1.0000 0.35860  0.51150  0.51230  Biso   1.000  H
  H99      1.0000 0.06270  0.63190  0.55820  Biso   1.000  H
  H100     1.0000 0.06850  0.67660  0.58700  Biso   1.000  H
  H101     1.0000 0.06480  0.60130  0.62750  Biso   1.000  H
  H102     1.0000 0.35960  0.57180  0.40490  Biso   1.000  H
  H103     1.0000 0.28830  0.62090  0.38750  Biso   1.000  H
  H104     1.0000 0.31490  0.53830  0.40310  Biso   1.000  H
  H105     1.0000 0.10390  0.81610  0.37460  Biso   1.000  H
  H106     1.0000 0.07540  0.65550  0.37430  Biso   1.000  H
  H107     1.0000 0.15500  0.74910  0.49610  Biso   1.000  H
  H108     1.0000 0.22870  0.72470  0.44720  Biso   1.000  H
  H109     1.0000 0.17190  0.80080  0.42890  Biso   1.000  H
  H110     1.0000 0.10460  0.53750  0.49040  Biso   1.000  H
  H111     1.0000 0.14740  0.53420  0.42170  Biso   1.000  H
  H112     1.0000 0.18670  0.51920  0.46670  Biso   1.000  H
  H113     1.0000 0.62140  0.17690  0.65030  Biso   1.000  H
  H114     1.0000 0.61760  0.35860  0.51230  Biso   1.000  H
  H115     1.0000 0.74720  0.06270  0.55820  Biso   1.000  H
  H116     1.0000 0.66790  0.06850  0.58700  Biso   1.000  H
  H117     1.0000 0.70640  0.06480  0.62750  Biso   1.000  H
  H118     1.0000 0.66370  0.35960  0.40490  Biso   1.000  H
  H119     1.0000 0.70330  0.28830  0.38750  Biso   1.000  H
  H120     1.0000 0.74370  0.31490  0.40310  Biso   1.000  H
  H121     1.0000 0.70540  0.10390  0.37460  Biso   1.000  H
  H122     1.0000 0.89480  0.07540  0.37430  Biso   1.000  H
  H123     1.0000 0.59980  0.15500  0.49610  Biso   1.000  H
  H124     1.0000 0.59940  0.22870  0.44720  Biso   1.000  H
  H125     1.0000 0.59840  0.17190  0.42890  Biso   1.000  H
  H126     1.0000 0.86750  0.10460  0.49040  Biso   1.000  H
  H127     1.0000 0.89670  0.14740  0.42170  Biso   1.000  H
  H128     1.0000 0.82740  0.18670  0.46670  Biso   1.000  H
  H129     1.0000 0.55140  0.62140  0.65030  Biso   1.000  H
  H130     1.0000 0.51150  0.61760  0.51230  Biso   1.000  H
  H131     1.0000 0.63190  0.74720  0.55820  Biso   1.000  H
  H132     1.0000 0.67660  0.66790  0.58700  Biso   1.000  H
  H133     1.0000 0.60130  0.70640  0.62750  Biso   1.000  H
  H134     1.0000 0.57180  0.66370  0.40490  Biso   1.000  H
  H135     1.0000 0.62090  0.70330  0.38750  Biso   1.000  H
  H136     1.0000 0.53830  0.74370  0.40310  Biso   1.000  H
  H137     1.0000 0.81610  0.70540  0.37460  Biso   1.000  H
  H138     1.0000 0.65550  0.89480  0.37430  Biso   1.000  H
  H139     1.0000 0.74910  0.59980  0.49610  Biso   1.000  H
  H140     1.0000 0.72470  0.59940  0.44720  Biso   1.000  H
  H141     1.0000 0.80080  0.59840  0.42890  Biso   1.000  H
  H142     1.0000 0.53750  0.86750  0.49040  Biso   1.000  H
  H143     1.0000 0.53420  0.89670  0.42170  Biso   1.000  H
  H144     1.0000 0.51920  0.82740  0.46670  Biso   1.000  H
  H145     1.0000 0.67690  0.12140  0.15030  Biso   1.000  H
  H146     1.0000 0.85860  0.11760  0.01230  Biso   1.000  H
  H147     1.0000 0.56270  0.24720  0.05820  Biso   1.000  H
  H148     1.0000 0.56850  0.16790  0.08700  Biso   1.000  H
  H149     1.0000 0.56480  0.20640  0.12750  Biso   1.000  H
  H150     1.0000 0.85960  0.16370  0.90490  Biso   1.000  H
  H151     1.0000 0.78830  0.20330  0.88750  Biso   1.000  H
  H152     1.0000 0.81490  0.24370  0.90310  Biso   1.000  H
  H153     1.0000 0.60390  0.20540  0.87460  Biso   1.000  H
  H154     1.0000 0.57540  0.39480  0.87430  Biso   1.000  H
  H155     1.0000 0.65500  0.09980  0.99610  Biso   1.000  H
  H156     1.0000 0.72870  0.09940  0.94720  Biso   1.000  H
  H157     1.0000 0.67190  0.09840  0.92890  Biso   1.000  H
  H158     1.0000 0.60460  0.36750  0.99040  Biso   1.000  H
  H159     1.0000 0.64740  0.39670  0.92170  Biso   1.000  H
  H160     1.0000 0.68670  0.32740  0.96670  Biso   1.000  H
  H161     1.0000 0.12140  0.05140  0.15030  Biso   1.000  H
  H162     1.0000 0.11760  0.01150  0.01230  Biso   1.000  H
  H163     1.0000 0.24720  0.13190  0.05820  Biso   1.000  H
  H164     1.0000 0.16790  0.17660  0.08700  Biso   1.000  H
  H165     1.0000 0.20640  0.10130  0.12750  Biso   1.000  H
  H166     1.0000 0.16370  0.07180  0.90490  Biso   1.000  H
  H167     1.0000 0.20330  0.12090  0.88750  Biso   1.000  H
  H168     1.0000 0.24370  0.03830  0.90310  Biso   1.000  H
  H169     1.0000 0.20540  0.31610  0.87460  Biso   1.000  H
  H170     1.0000 0.39480  0.15550  0.87430  Biso   1.000  H
  H171     1.0000 0.09980  0.24910  0.99610  Biso   1.000  H
  H172     1.0000 0.09940  0.22470  0.94720  Biso   1.000  H
  H173     1.0000 0.09840  0.30080  0.92890  Biso   1.000  H
  H174     1.0000 0.36750  0.03750  0.99040  Biso   1.000  H
  H175     1.0000 0.39670  0.03420  0.92170  Biso   1.000  H
  H176     1.0000 0.32740  0.01920  0.96670  Biso   1.000  H
  H177     1.0000 0.05140  0.67690  0.15030  Biso   1.000  H
  H178     1.0000 0.01150  0.85860  0.01230  Biso   1.000  H
  H179     1.0000 0.13190  0.56270  0.05820  Biso   1.000  H
  H180     1.0000 0.17660  0.56850  0.08700  Biso   1.000  H
  H181     1.0000 0.10130  0.56480  0.12750  Biso   1.000  H
  H182     1.0000 0.07180  0.85960  0.90490  Biso   1.000  H
  H183     1.0000 0.12090  0.78830  0.88750  Biso   1.000  H
  H184     1.0000 0.03830  0.81490  0.90310  Biso   1.000  H
  H185     1.0000 0.31610  0.60390  0.87460  Biso   1.000  H
  H186     1.0000 0.15550  0.57540  0.87430  Biso   1.000  H
  H187     1.0000 0.24910  0.65500  0.99610  Biso   1.000  H
  H188     1.0000 0.22470  0.72870  0.94720  Biso   1.000  H
  H189     1.0000 0.30080  0.67190  0.92890  Biso   1.000  H
  H190     1.0000 0.03750  0.60460  0.99040  Biso   1.000  H
  H191     1.0000 0.03420  0.64740  0.92170  Biso   1.000  H
  H192     1.0000 0.01920  0.68670  0.96670  Biso   1.000  H
  C109     1.0000 0.31546  0.49226  0.63302  Biso   1.000  C
  C110     1.0000 0.27455  0.52705  0.58745  Biso   1.000  C
  C111     1.0000 0.20080  0.55700  0.60800  Biso   1.000  C
  C112     1.0000 0.16335  0.59555  0.56405  Biso   1.000  C
  C113     1.0000 0.19780  0.60320  0.50180  Biso   1.000  C
  C114     1.0000 0.27232  0.57052  0.48104  Biso   1.000  C
  C115     1.0000 0.30942  0.53292  0.52514  Biso   1.000  C
  C116     1.0000 0.08224  0.62944  0.58628  Biso   1.000  C
  C117     1.0000 0.31240  0.57580  0.41300  Biso   1.000  C
  C118     1.0000 0.04430  0.79460  0.31880  Biso   1.000  C
  C119     1.0000 0.08551  0.74401  0.36617  Biso   1.000  C
  C120     1.0000 0.11159  0.76799  0.38873  Biso   1.000  C
  C121     1.0000 0.14864  0.72304  0.43118  Biso   1.000  C
  C122     1.0000 0.15823  0.65253  0.45401  Biso   1.000  C
  C123     1.0000 0.13031  0.62631  0.43367  Biso   1.000  C
  C124     1.0000 0.09367  0.67207  0.38879  Biso   1.000  C
  C125     1.0000 0.17879  0.75209  0.45293  Biso   1.000  C
  C126     1.0000 0.14343  0.54683  0.45521  Biso   1.000  C
  C127     1.0000 0.55926  0.31546  0.63302  Biso   1.000  C
  C128     1.0000 0.61095  0.27455  0.58745  Biso   1.000  C
  C129     1.0000 0.63420  0.20080  0.60800  Biso   1.000  C
  C130     1.0000 0.67705  0.16335  0.56405  Biso   1.000  C
  C131     1.0000 0.69720  0.19780  0.50180  Biso   1.000  C
  C132     1.0000 0.67612  0.27232  0.48104  Biso   1.000  C
  C133     1.0000 0.63252  0.30942  0.52514  Biso   1.000  C
  C134     1.0000 0.70204  0.08224  0.58628  Biso   1.000  C
  C135     1.0000 0.69880  0.31240  0.41300  Biso   1.000  C
  C136     1.0000 0.84230  0.04430  0.31880  Biso   1.000  C
  C137     1.0000 0.80431  0.08551  0.36617  Biso   1.000  C
  C138     1.0000 0.73169  0.11159  0.38873  Biso   1.000  C
  C139     1.0000 0.69714  0.14864  0.43118  Biso   1.000  C
  C140     1.0000 0.73523  0.15823  0.45401  Biso   1.000  C
  C141     1.0000 0.80971  0.13031  0.43367  Biso   1.000  C
  C142     1.0000 0.84547  0.09367  0.38879  Biso   1.000  C
  C143     1.0000 0.61619  0.17879  0.45293  Biso   1.000  C
  C144     1.0000 0.85453  0.14343  0.45521  Biso   1.000  C
  C145     1.0000 0.49226  0.55926  0.63302  Biso   1.000  C
  C146     1.0000 0.52705  0.61095  0.58745  Biso   1.000  C
  C147     1.0000 0.55700  0.63420  0.60800  Biso   1.000  C
  C148     1.0000 0.59555  0.67705  0.56405  Biso   1.000  C
  C149     1.0000 0.60320  0.69720  0.50180  Biso   1.000  C
  C150     1.0000 0.57052  0.67612  0.48104  Biso   1.000  C
  C151     1.0000 0.53292  0.63252  0.52514  Biso   1.000  C
  C152     1.0000 0.62944  0.70204  0.58628  Biso   1.000  C
  C153     1.0000 0.57580  0.69880  0.41300  Biso   1.000  C
  C154     1.0000 0.79460  0.84230  0.31880  Biso   1.000  C
  C155     1.0000 0.74401  0.80431  0.36617  Biso   1.000  C
  C156     1.0000 0.76799  0.73169  0.38873  Biso   1.000  C
  C157     1.0000 0.72304  0.69714  0.43118  Biso   1.000  C
  C158     1.0000 0.65253  0.73523  0.45401  Biso   1.000  C
  C159     1.0000 0.62631  0.80971  0.43367  Biso   1.000  C
  C160     1.0000 0.67207  0.84547  0.38879  Biso   1.000  C
  C161     1.0000 0.75209  0.61619  0.45293  Biso   1.000  C
  C162     1.0000 0.54683  0.85453  0.45521  Biso   1.000  C
  C163     1.0000 0.81546  0.05926  0.13302  Biso   1.000  C
  C164     1.0000 0.77455  0.11095  0.08745  Biso   1.000  C
  C165     1.0000 0.70080  0.13420  0.10800  Biso   1.000  C
  C166     1.0000 0.66335  0.17705  0.06405  Biso   1.000  C
  C167     1.0000 0.69780  0.19720  0.00180  Biso   1.000  C
  C168     1.0000 0.77232  0.17612  0.98104  Biso   1.000  C
  C169     1.0000 0.80942  0.13252  0.02514  Biso   1.000  C
  C170     1.0000 0.58224  0.20204  0.08628  Biso   1.000  C
  C171     1.0000 0.81240  0.19880  0.91300  Biso   1.000  C
  C172     1.0000 0.54430  0.34230  0.81880  Biso   1.000  C
  C173     1.0000 0.58551  0.30431  0.86617  Biso   1.000  C
  C174     1.0000 0.61159  0.23169  0.88873  Biso   1.000  C
  C175     1.0000 0.64864  0.19714  0.93118  Biso   1.000  C
  C176     1.0000 0.65823  0.23523  0.95401  Biso   1.000  C
  C177     1.0000 0.63031  0.30971  0.93367  Biso   1.000  C
  C178     1.0000 0.59367  0.34547  0.88879  Biso   1.000  C
  C179     1.0000 0.67879  0.11619  0.95293  Biso   1.000  C
  C180     1.0000 0.64343  0.35453  0.95521  Biso   1.000  C
  C181     1.0000 0.05926  0.99226  0.13302  Biso   1.000  C
  C182     1.0000 0.11095  0.02705  0.08745  Biso   1.000  C
  C183     1.0000 0.13420  0.05700  0.10800  Biso   1.000  C
  C184     1.0000 0.17705  0.09555  0.06405  Biso   1.000  C
  C185     1.0000 0.19720  0.10320  0.00180  Biso   1.000  C
  C186     1.0000 0.17612  0.07052  0.98104  Biso   1.000  C
  C187     1.0000 0.13252  0.03292  0.02514  Biso   1.000  C
  C188     1.0000 0.20204  0.12944  0.08628  Biso   1.000  C
  C189     1.0000 0.19880  0.07580  0.91300  Biso   1.000  C
  C190     1.0000 0.34230  0.29460  0.81880  Biso   1.000  C
  C191     1.0000 0.30431  0.24401  0.86617  Biso   1.000  C
  C192     1.0000 0.23169  0.26799  0.88873  Biso   1.000  C
  C193     1.0000 0.19714  0.22304  0.93118  Biso   1.000  C
  C194     1.0000 0.23523  0.15253  0.95401  Biso   1.000  C
  C195     1.0000 0.30971  0.12631  0.93367  Biso   1.000  C
  C196     1.0000 0.34547  0.17207  0.88879  Biso   1.000  C
  C197     1.0000 0.11619  0.25209  0.95293  Biso   1.000  C
  C198     1.0000 0.35453  0.04683  0.95521  Biso   1.000  C
  C199     1.0000 0.99226  0.81546  0.13302  Biso   1.000  C
  C200     1.0000 0.02705  0.77455  0.08745  Biso   1.000  C
  C201     1.0000 0.05700  0.70080  0.10800  Biso   1.000  C
  C202     1.0000 0.09555  0.66335  0.06405  Biso   1.000  C
  C203     1.0000 0.10320  0.69780  0.00180  Biso   1.000  C
  C204     1.0000 0.07052  0.77232  0.98104  Biso   1.000  C
  C205     1.0000 0.03292  0.80942  0.02514  Biso   1.000  C
  C206     1.0000 0.12944  0.58224  0.08628  Biso   1.000  C
  C207     1.0000 0.07580  0.81240  0.91300  Biso   1.000  C
  C208     1.0000 0.29460  0.54430  0.81880  Biso   1.000  C
  C209     1.0000 0.24401  0.58551  0.86617  Biso   1.000  C
  C210     1.0000 0.26799  0.61159  0.88873  Biso   1.000  C
  C211     1.0000 0.22304  0.64864  0.93118  Biso   1.000  C
  C212     1.0000 0.15253  0.65823  0.95401  Biso   1.000  C
  C213     1.0000 0.12631  0.63031  0.93367  Biso   1.000  C
  C214     1.0000 0.17207  0.59367  0.88879  Biso   1.000  C
  C215     1.0000 0.25209  0.67879  0.95293  Biso   1.000  C
  C216     1.0000 0.04683  0.64343  0.95521  Biso   1.000  C
  O27      1.0000 0.28305  0.49022  0.68954  Biso   1.000  O
  O28      1.0000 0.38289  0.46759  0.61061  Biso   1.000  O
  O29      1.0000 0.01569  0.76789  0.30593  Biso   1.000  O
  O30      1.0000 0.03543  0.86093  0.30401  Biso   1.000  O
  O31      1.0000 0.53719  0.28305  0.68954  Biso   1.000  O
  O32      1.0000 0.53891  0.38289  0.61061  Biso   1.000  O
  O33      1.0000 0.91049  0.01569  0.30593  Biso   1.000  O
  O34      1.0000 0.79963  0.03543  0.30401  Biso   1.000  O
  O35      1.0000 0.49022  0.53719  0.68954  Biso   1.000  O
  O36      1.0000 0.46759  0.53891  0.61061  Biso   1.000  O
  O37      1.0000 0.76789  0.91049  0.30593  Biso   1.000  O
  O38      1.0000 0.86093  0.79963  0.30401  Biso   1.000  O
  O39      1.0000 0.78305  0.03719  0.18954  Biso   1.000  O
  O40      1.0000 0.88289  0.03891  0.11061  Biso   1.000  O
  O41      1.0000 0.51569  0.41049  0.80593  Biso   1.000  O
  O42      1.0000 0.53543  0.29963  0.80401  Biso   1.000  O
  O43      1.0000 0.03719  0.99022  0.18954  Biso   1.000  O
  O44      1.0000 0.03891  0.96759  0.11061  Biso   1.000  O
  O45      1.0000 0.41049  0.26789  0.80593  Biso   1.000  O
  O46      1.0000 0.29963  0.36093  0.80401  Biso   1.000  O
  O47      1.0000 0.99022  0.78305  0.18954  Biso   1.000  O
  O48      1.0000 0.96759  0.88289  0.11061  Biso   1.000  O
  O49      1.0000 0.26789  0.51569  0.80593  Biso   1.000  O
  O50      1.0000 0.36093  0.53543  0.80401  Biso   1.000  O
  O51      1.0000 0.42159  0.42159  0.73523  Biso   1.000  O
  O52      1.0000 0.92159  0.92159  0.23523  Biso   1.000  O
