data_image0
_cell_length_a       17.5176
_cell_length_b       17.5176
_cell_length_c       17.5176
_cell_angle_alpha    95.7188
_cell_angle_beta     116.755
_cell_angle_gamma    116.755

_symmetry_space_group_name_H-M    P 1
_symmetry_int_tables_number       1

loop_
  _symmetry_equiv_pos_as_xyz
  'x, y, z'

loop_
  _atom_site_label
  _atom_site_occupancy
  _atom_site_fract_x
  _atom_site_fract_y
  _atom_site_fract_z
  _atom_site_thermal_displace_type
  _atom_site_B_iso_or_equiv
  _atom_site_type_symbol
  Zn1      1.0000 0.01132  0.45092  0.77238  Biso   1.000  Zn
  Zn2      1.0000 0.48868  0.26106  0.43960  Biso   1.000  Zn
  Zn3      1.0000 0.67854  0.22762  0.73894  Biso   1.000  Zn
  Zn4      1.0000 0.82146  0.56040  0.54908  Biso   1.000  Zn
  H1       1.0000 0.87340  0.53410  0.93110  Biso   1.000  H
  H2       1.0000 0.01420  0.68390  0.02430  Biso   1.000  H
  H3       1.0000 0.14950  0.74110  0.99900  Biso   1.000  H
  H4       1.0000 0.18830  0.44460  0.81370  Biso   1.000  H
  H5       1.0000 0.25000  0.35190  0.84430  Biso   1.000  H
  H6       1.0000 0.99690  0.17660  0.83370  Biso   1.000  H
  H7       1.0000 0.94570  0.27360  0.80010  Biso   1.000  H
  H8       1.0000 0.30230  0.26360  0.91010  Biso   1.000  H
  H9       1.0000 0.23570  0.20980  0.80250  Biso   1.000  H
  H10      1.0000 0.62660  0.55770  0.66070  Biso   1.000  H
  H11      1.0000 0.48580  0.51010  0.66970  Biso   1.000  H
  H12      1.0000 0.35050  0.34950  0.59160  Biso   1.000  H
  H13      1.0000 0.31170  0.12540  0.25630  Biso   1.000  H
  H14      1.0000 0.25000  0.09430  0.10190  Biso   1.000  H
  H15      1.0000 0.50310  0.33680  0.17970  Biso   1.000  H
  H16      1.0000 0.55430  0.35440  0.32790  Biso   1.000  H
  H17      1.0000 0.19770  0.10780  0.96130  Biso   1.000  H
  H18      1.0000 0.26430  0.06680  0.97410  Biso   1.000  H
  H19      1.0000 0.60300  0.06890  0.44230  Biso   1.000  H
  H20      1.0000 0.65960  0.97570  0.48990  Biso   1.000  H
  H21      1.0000 0.74210  0.00100  0.65050  Biso   1.000  H
  H22      1.0000 0.63090  0.18630  0.87460  Biso   1.000  H
  H23      1.0000 0.50760  0.15570  0.90570  Biso   1.000  H
  H24      1.0000 0.34290  0.16630  0.66320  Biso   1.000  H
  H25      1.0000 0.47350  0.19990  0.64560  Biso   1.000  H
  H26      1.0000 0.35350  0.08990  0.89220  Biso   1.000  H
  H27      1.0000 0.40730  0.19750  0.93320  Biso   1.000  H
  H28      1.0000 0.89700  0.33930  0.46590  Biso   1.000  H
  H29      1.0000 0.84040  0.33030  0.31610  Biso   1.000  H
  H30      1.0000 0.75790  0.40840  0.25890  Biso   1.000  H
  H31      1.0000 0.86910  0.74370  0.55540  Biso   1.000  H
  H32      1.0000 0.99240  0.89810  0.64810  Biso   1.000  H
  H33      1.0000 0.15710  0.82030  0.82340  Biso   1.000  H
  H34      1.0000 0.02650  0.67210  0.72640  Biso   1.000  H
  H35      1.0000 0.14650  0.03870  0.73640  Biso   1.000  H
  H36      1.0000 0.09270  0.02590  0.79020  Biso   1.000  H
  C1       1.0000 0.85080  0.39830  0.81130  Biso   1.000  C
  C2       1.0000 0.93200  0.50010  0.86930  Biso   1.000  C
  C3       1.0000 0.93060  0.55690  0.92770  Biso   1.000  C
  C4       1.0000 0.01200  0.64630  0.98090  Biso   1.000  C
  C5       1.0000 0.09400  0.67970  0.96690  Biso   1.000  C
  C6       1.0000 0.08920  0.62040  0.90620  Biso   1.000  C
  C7       1.0000 0.16900  0.64280  0.88600  Biso   1.000  C
  C8       1.0000 0.14940  0.38980  0.81820  Biso   1.000  C
  C9       1.0000 0.18710  0.33410  0.83560  Biso   1.000  C
  C10      1.0000 0.12850  0.25220  0.83950  Biso   1.000  C
  C11      1.0000 0.03750  0.23040  0.82890  Biso   1.000  C
  C12      1.0000 0.00930  0.29060  0.81110  Biso   1.000  C
  C13      1.0000 0.24160  0.20600  0.85960  Biso   1.000  C
  C14      1.0000 0.64920  0.46050  0.54750  Biso   1.000  C
  C15      1.0000 0.56800  0.43730  0.56810  Biso   1.000  C
  C16      1.0000 0.56940  0.49710  0.62630  Biso   1.000  C
  C17      1.0000 0.48800  0.46890  0.63430  Biso   1.000  C
  C18      1.0000 0.40600  0.37290  0.58570  Biso   1.000  C
  C19      1.0000 0.41080  0.31700  0.53120  Biso   1.000  C
  C20      1.0000 0.33100  0.21700  0.47380  Biso   1.000  C
  C21      1.0000 0.35060  0.16880  0.24040  Biso   1.000  C
  C22      1.0000 0.31290  0.14850  0.14700  Biso   1.000  C
  C23      1.0000 0.37150  0.21100  0.12370  Biso   1.000  C
  C24      1.0000 0.46250  0.29140  0.19290  Biso   1.000  C
  C25      1.0000 0.49070  0.30180  0.28130  Biso   1.000  C
  C26      1.0000 0.25840  0.11800  0.96440  Biso   1.000  C
  C27      1.0000 0.58700  0.18870  0.53950  Biso   1.000  C
  C28      1.0000 0.63080  0.13070  0.56270  Biso   1.000  C
  C29      1.0000 0.62920  0.07230  0.50290  Biso   1.000  C
  C30      1.0000 0.66540  0.01910  0.53110  Biso   1.000  C
  C31      1.0000 0.71280  0.03310  0.62710  Biso   1.000  C
  C32      1.0000 0.71420  0.09380  0.68300  Biso   1.000  C
  C33      1.0000 0.75680  0.11400  0.78300  Biso   1.000  C
  C34      1.0000 0.57160  0.18180  0.83120  Biso   1.000  C
  C35      1.0000 0.49850  0.16440  0.85150  Biso   1.000  C
  C36      1.0000 0.41270  0.16050  0.78900  Biso   1.000  C
  C37      1.0000 0.40150  0.17110  0.70860  Biso   1.000  C
  C38      1.0000 0.47950  0.18890  0.69820  Biso   1.000  C
  C39      1.0000 0.34640  0.14040  0.88200  Biso   1.000  C
  C40      1.0000 0.91300  0.45250  0.60170  Biso   1.000  C
  C41      1.0000 0.86920  0.43190  0.49990  Biso   1.000  C
  C42      1.0000 0.87080  0.37370  0.44310  Biso   1.000  C
  C43      1.0000 0.83460  0.36570  0.35370  Biso   1.000  C
  C44      1.0000 0.78720  0.41430  0.32030  Biso   1.000  C
  C45      1.0000 0.78580  0.46880  0.37960  Biso   1.000  C
  C46      1.0000 0.74320  0.52620  0.35720  Biso   1.000  C
  C47      1.0000 0.92840  0.75960  0.61020  Biso   1.000  C
  C48      1.0000 0.00150  0.85300  0.66590  Biso   1.000  C
  C49      1.0000 0.08730  0.87630  0.74780  Biso   1.000  C
  C50      1.0000 0.09850  0.80710  0.76960  Biso   1.000  C
  C51      1.0000 0.02050  0.71870  0.70940  Biso   1.000  C
  C52      1.0000 0.15360  0.03560  0.79400  Biso   1.000  C
  C53      1.0000 0.25000  0.12500  0.87500  Biso   1.000  C
  N1       1.0000 0.06380  0.37070  0.80790  Biso   1.000  N
  N2       1.0000 0.00870  0.53220  0.86010  Biso   1.000  N
  N3       1.0000 0.43620  0.24410  0.30690  Biso   1.000  N
  N4       1.0000 0.49130  0.35140  0.52350  Biso   1.000  N
  N5       1.0000 0.56280  0.19210  0.75590  Biso   1.000  N
  N6       1.0000 0.67210  0.13990  0.64860  Biso   1.000  N
  N7       1.0000 0.93720  0.69310  0.62930  Biso   1.000  N
  N8       1.0000 0.82790  0.47650  0.46780  Biso   1.000  N
  O1       1.0000 0.86440  0.35837  0.76177  Biso   1.000  O
  O2       1.0000 0.77380  0.36117  0.81677  Biso   1.000  O
  O3       1.0000 0.15160  0.57850  0.82790  Biso   1.000  O
  O4       1.0000 0.24480  0.72580  0.92460  Biso   1.000  O
  O5       1.0000 0.15330  0.19036  0.85506  Biso   1.000  O
  O6       1.0000 0.63560  0.39737  0.49397  Biso   1.000  O
  O7       1.0000 0.72620  0.54297  0.58737  Biso   1.000  O
  O8       1.0000 0.34840  0.17630  0.42690  Biso   1.000  O
  O9       1.0000 0.25520  0.17980  0.48100  Biso   1.000  O
  O10      1.0000 0.34670  0.20176  0.03706  Biso   1.000  O
  O11      1.0000 0.59660  0.23823  0.60263  Biso   1.000  O
  O12      1.0000 0.54440  0.18323  0.45703  Biso   1.000  O
  O13      1.0000 0.75060  0.17210  0.82370  Biso   1.000  O
  O14      1.0000 0.80120  0.07540  0.82020  Biso   1.000  O
  O15      1.0000 0.33530  0.14494  0.79824  Biso   1.000  O
  O16      1.0000 0.90340  0.50603  0.64163  Biso   1.000  O
  O17      1.0000 0.95560  0.41263  0.63883  Biso   1.000  O
  O18      1.0000 0.74940  0.57310  0.42150  Biso   1.000  O
  O19      1.0000 0.69880  0.51900  0.27420  Biso   1.000  O
  O20      1.0000 0.16470  0.96294  0.80964  Biso   1.000  O
  Zn5      1.0000 0.32146  0.77238  0.26106  Biso   1.000  Zn
  Zn6      1.0000 0.17854  0.43960  0.45092  Biso   1.000  Zn
  Zn7      1.0000 0.98868  0.54908  0.22762  Biso   1.000  Zn
  Zn8      1.0000 0.51132  0.73894  0.56040  Biso   1.000  Zn
  H37      1.0000 0.39700  0.93110  0.55770  Biso   1.000  H
  H38      1.0000 0.34040  0.02430  0.51010  Biso   1.000  H
  H39      1.0000 0.25790  0.99900  0.34950  Biso   1.000  H
  H40      1.0000 0.36910  0.81370  0.12540  Biso   1.000  H
  H41      1.0000 0.49240  0.84430  0.09430  Biso   1.000  H
  H42      1.0000 0.65710  0.83370  0.33680  Biso   1.000  H
  H43      1.0000 0.52650  0.80010  0.35440  Biso   1.000  H
  H44      1.0000 0.64650  0.91010  0.10780  Biso   1.000  H
  H45      1.0000 0.59270  0.80250  0.06680  Biso   1.000  H
  H46      1.0000 0.10300  0.66070  0.53410  Biso   1.000  H
  H47      1.0000 0.15960  0.66970  0.68390  Biso   1.000  H
  H48      1.0000 0.24210  0.59160  0.74110  Biso   1.000  H
  H49      1.0000 0.13090  0.25630  0.44460  Biso   1.000  H
  H50      1.0000 0.00760  0.10190  0.35190  Biso   1.000  H
  H51      1.0000 0.84290  0.17970  0.17660  Biso   1.000  H
  H52      1.0000 0.97350  0.32790  0.27360  Biso   1.000  H
  H53      1.0000 0.85350  0.96130  0.26360  Biso   1.000  H
  H54      1.0000 0.90730  0.97410  0.20980  Biso   1.000  H
  H55      1.0000 0.12660  0.46590  0.06890  Biso   1.000  H
  H56      1.0000 0.98580  0.31610  0.97570  Biso   1.000  H
  H57      1.0000 0.85050  0.25890  0.00100  Biso   1.000  H
  H58      1.0000 0.81170  0.55540  0.18630  Biso   1.000  H
  H59      1.0000 0.75000  0.64810  0.15570  Biso   1.000  H
  H60      1.0000 0.00310  0.82340  0.16630  Biso   1.000  H
  H61      1.0000 0.05430  0.72640  0.19990  Biso   1.000  H
  H62      1.0000 0.69770  0.73640  0.08990  Biso   1.000  H
  H63      1.0000 0.76430  0.79020  0.19750  Biso   1.000  H
  H64      1.0000 0.37340  0.44230  0.33930  Biso   1.000  H
  H65      1.0000 0.51420  0.48990  0.33030  Biso   1.000  H
  H66      1.0000 0.64950  0.65050  0.40840  Biso   1.000  H
  H67      1.0000 0.68830  0.87460  0.74370  Biso   1.000  H
  H68      1.0000 0.75000  0.90570  0.89810  Biso   1.000  H
  H69      1.0000 0.49690  0.66320  0.82030  Biso   1.000  H
  H70      1.0000 0.44570  0.64560  0.67210  Biso   1.000  H
  H71      1.0000 0.80230  0.89220  0.03870  Biso   1.000  H
  H72      1.0000 0.73570  0.93320  0.02590  Biso   1.000  H
  C54      1.0000 0.41300  0.81130  0.46050  Biso   1.000  C
  C55      1.0000 0.36920  0.86930  0.43730  Biso   1.000  C
  C56      1.0000 0.37080  0.92770  0.49710  Biso   1.000  C
  C57      1.0000 0.33460  0.98090  0.46890  Biso   1.000  C
  C58      1.0000 0.28720  0.96690  0.37290  Biso   1.000  C
  C59      1.0000 0.28580  0.90620  0.31700  Biso   1.000  C
  C60      1.0000 0.24320  0.88600  0.21700  Biso   1.000  C
  C61      1.0000 0.42840  0.81820  0.16880  Biso   1.000  C
  C62      1.0000 0.50150  0.83560  0.14850  Biso   1.000  C
  C63      1.0000 0.58730  0.83950  0.21100  Biso   1.000  C
  C64      1.0000 0.59850  0.82890  0.29140  Biso   1.000  C
  C65      1.0000 0.52050  0.81110  0.30180  Biso   1.000  C
  C66      1.0000 0.65360  0.85960  0.11800  Biso   1.000  C
  C67      1.0000 0.08700  0.54750  0.39830  Biso   1.000  C
  C68      1.0000 0.13080  0.56810  0.50010  Biso   1.000  C
  C69      1.0000 0.12920  0.62630  0.55690  Biso   1.000  C
  C70      1.0000 0.16540  0.63430  0.64630  Biso   1.000  C
  C71      1.0000 0.21280  0.58570  0.67970  Biso   1.000  C
  C72      1.0000 0.21420  0.53120  0.62040  Biso   1.000  C
  C73      1.0000 0.25680  0.47380  0.64280  Biso   1.000  C
  C74      1.0000 0.07160  0.24040  0.38980  Biso   1.000  C
  C75      1.0000 0.99850  0.14700  0.33410  Biso   1.000  C
  C76      1.0000 0.91270  0.12370  0.25220  Biso   1.000  C
  C77      1.0000 0.90150  0.19290  0.23040  Biso   1.000  C
  C78      1.0000 0.97950  0.28130  0.29060  Biso   1.000  C
  C79      1.0000 0.84640  0.96440  0.20600  Biso   1.000  C
  C80      1.0000 0.14920  0.60170  0.18870  Biso   1.000  C
  C81      1.0000 0.06800  0.49990  0.13070  Biso   1.000  C
  C82      1.0000 0.06940  0.44310  0.07230  Biso   1.000  C
  C83      1.0000 0.98800  0.35370  0.01910  Biso   1.000  C
  C84      1.0000 0.90600  0.32030  0.03310  Biso   1.000  C
  C85      1.0000 0.91080  0.37960  0.09380  Biso   1.000  C
  C86      1.0000 0.83100  0.35720  0.11400  Biso   1.000  C
  C87      1.0000 0.85060  0.61020  0.18180  Biso   1.000  C
  C88      1.0000 0.81290  0.66590  0.16440  Biso   1.000  C
  C89      1.0000 0.87150  0.74780  0.16050  Biso   1.000  C
  C90      1.0000 0.96250  0.76960  0.17110  Biso   1.000  C
  C91      1.0000 0.99070  0.70940  0.18890  Biso   1.000  C
  C92      1.0000 0.75840  0.79400  0.14040  Biso   1.000  C
  C93      1.0000 0.35080  0.53950  0.45250  Biso   1.000  C
  C94      1.0000 0.43200  0.56270  0.43190  Biso   1.000  C
  C95      1.0000 0.43060  0.50290  0.37370  Biso   1.000  C
  C96      1.0000 0.51200  0.53110  0.36570  Biso   1.000  C
  C97      1.0000 0.59400  0.62710  0.41430  Biso   1.000  C
  C98      1.0000 0.58920  0.68300  0.46880  Biso   1.000  C
  C99      1.0000 0.66900  0.78300  0.52620  Biso   1.000  C
  C100     1.0000 0.64940  0.83120  0.75960  Biso   1.000  C
  C101     1.0000 0.68710  0.85150  0.85300  Biso   1.000  C
  C102     1.0000 0.62850  0.78900  0.87630  Biso   1.000  C
  C103     1.0000 0.53750  0.70860  0.80710  Biso   1.000  C
  C104     1.0000 0.50930  0.69820  0.71870  Biso   1.000  C
  C105     1.0000 0.74160  0.88200  0.03560  Biso   1.000  C
  C106     1.0000 0.75000  0.87500  0.12500  Biso   1.000  C
  N9       1.0000 0.43720  0.80790  0.24410  Biso   1.000  N
  N10      1.0000 0.32790  0.86010  0.35140  Biso   1.000  N
  N11      1.0000 0.06280  0.30690  0.37070  Biso   1.000  N
  N12      1.0000 0.17210  0.52350  0.53220  Biso   1.000  N
  N13      1.0000 0.93620  0.62930  0.19210  Biso   1.000  N
  N14      1.0000 0.99130  0.46780  0.13990  Biso   1.000  N
  N15      1.0000 0.56380  0.75590  0.69310  Biso   1.000  N
  N16      1.0000 0.50870  0.64860  0.47650  Biso   1.000  N
  O21      1.0000 0.40340  0.76177  0.39737  Biso   1.000  O
  O22      1.0000 0.45560  0.81677  0.54297  Biso   1.000  O
  O23      1.0000 0.24940  0.82790  0.17630  Biso   1.000  O
  O24      1.0000 0.19880  0.92460  0.17980  Biso   1.000  O
  O25      1.0000 0.66470  0.85506  0.20176  Biso   1.000  O
  O26      1.0000 0.09660  0.49397  0.35837  Biso   1.000  O
  O27      1.0000 0.04440  0.58737  0.36117  Biso   1.000  O
  O28      1.0000 0.25060  0.42690  0.57850  Biso   1.000  O
  O29      1.0000 0.30120  0.48100  0.72580  Biso   1.000  O
  O30      1.0000 0.83530  0.03706  0.19036  Biso   1.000  O
  O31      1.0000 0.13560  0.64163  0.23823  Biso   1.000  O
  O32      1.0000 0.22620  0.63883  0.18323  Biso   1.000  O
  O33      1.0000 0.84840  0.42150  0.17210  Biso   1.000  O
  O34      1.0000 0.75520  0.27420  0.07540  Biso   1.000  O
  O35      1.0000 0.84670  0.80964  0.14494  Biso   1.000  O
  O36      1.0000 0.36440  0.60263  0.50603  Biso   1.000  O
  O37      1.0000 0.27380  0.45703  0.41263  Biso   1.000  O
  O38      1.0000 0.65160  0.82370  0.57310  Biso   1.000  O
  O39      1.0000 0.74480  0.82020  0.51900  Biso   1.000  O
  O40      1.0000 0.65330  0.79824  0.96294  Biso   1.000  O
