data_image0
_cell_length_a       9.7744
_cell_length_b       11.2065
_cell_length_c       14.7201
_cell_angle_alpha    91.0598
_cell_angle_beta     90
_cell_angle_gamma    90

_symmetry_space_group_name_H-M    P 1
_symmetry_int_tables_number       1

loop_
  _symmetry_equiv_pos_as_xyz
  'x, y, z'

loop_
  _atom_site_label
  _atom_site_occupancy
  _atom_site_fract_x
  _atom_site_fract_y
  _atom_site_fract_z
  _atom_site_thermal_displace_type
  _atom_site_B_iso_or_equiv
  _atom_site_type_symbol
  Zn1      1.0000 0.92099  0.75574  0.13235  Biso   1.000  Zn
  Zn2      1.0000 0.10828  0.73768  0.31052  Biso   1.000  Zn
  Zn3      1.0000 0.42099  0.74426  0.36765  Biso   1.000  Zn
  Zn4      1.0000 0.60828  0.76232  0.18948  Biso   1.000  Zn
  Zn5      1.0000 0.07901  0.24426  0.86765  Biso   1.000  Zn
  Zn6      1.0000 0.89172  0.26232  0.68948  Biso   1.000  Zn
  Zn7      1.0000 0.57901  0.25574  0.63235  Biso   1.000  Zn
  Zn8      1.0000 0.39172  0.23768  0.81052  Biso   1.000  Zn
  Zn9      1.0000 0.00000  0.50000  0.00000  Biso   1.000  Zn
  Zn10     1.0000 0.50000  0.00000  0.50000  Biso   1.000  Zn
  Zn11     1.0000 0.00000  0.00000  0.00000  Biso   1.000  Zn
  Zn12     1.0000 0.50000  0.50000  0.50000  Biso   1.000  Zn
  H1       1.0000 0.75750  0.86650  0.36470  Biso   1.000  H
  H2       1.0000 0.03890  0.47060  0.26260  Biso   1.000  H
  H3       1.0000 0.61530  0.55590  0.04780  Biso   1.000  H
  H4       1.0000 0.19780  0.97980  0.22700  Biso   1.000  H
  H5       1.0000 0.16240  0.69520  0.93110  Biso   1.000  H
  H6       1.0000 0.70100  0.98850  0.00790  Biso   1.000  H
  H7       1.0000 0.25750  0.63350  0.13530  Biso   1.000  H
  H8       1.0000 0.53890  0.02940  0.23740  Biso   1.000  H
  H9       1.0000 0.11530  0.94410  0.45220  Biso   1.000  H
  H10      1.0000 0.69780  0.52020  0.27300  Biso   1.000  H
  H11      1.0000 0.66240  0.80480  0.56890  Biso   1.000  H
  H12      1.0000 0.20100  0.51150  0.49210  Biso   1.000  H
  H13      1.0000 0.24250  0.13350  0.63530  Biso   1.000  H
  H14      1.0000 0.96110  0.52940  0.73740  Biso   1.000  H
  H15      1.0000 0.38470  0.44410  0.95220  Biso   1.000  H
  H16      1.0000 0.80220  0.02020  0.77300  Biso   1.000  H
  H17      1.0000 0.83760  0.30480  0.06890  Biso   1.000  H
  H18      1.0000 0.29900  0.01150  0.99210  Biso   1.000  H
  H19      1.0000 0.74250  0.36650  0.86470  Biso   1.000  H
  H20      1.0000 0.46110  0.97060  0.76260  Biso   1.000  H
  H21      1.0000 0.88470  0.05590  0.54780  Biso   1.000  H
  H22      1.0000 0.30220  0.47980  0.72700  Biso   1.000  H
  H23      1.0000 0.33760  0.19520  0.43110  Biso   1.000  H
  H24      1.0000 0.79900  0.48850  0.50790  Biso   1.000  H
  C1       1.0000 0.82870  0.83330  0.32830  Biso   1.000  C
  C2       1.0000 0.01800  0.51380  0.20940  Biso   1.000  C
  C3       1.0000 0.71010  0.57270  0.05450  Biso   1.000  C
  C4       1.0000 0.13380  0.95270  0.18270  Biso   1.000  C
  C5       1.0000 0.10610  0.74200  0.97050  Biso   1.000  C
  C6       1.0000 0.71920  0.93010  0.05230  Biso   1.000  C
  C7       1.0000 0.32870  0.66670  0.17170  Biso   1.000  C
  C8       1.0000 0.51800  0.98620  0.29060  Biso   1.000  C
  C9       1.0000 0.21010  0.92730  0.44550  Biso   1.000  C
  C10      1.0000 0.63380  0.54730  0.31730  Biso   1.000  C
  C11      1.0000 0.60610  0.75800  0.52950  Biso   1.000  C
  C12      1.0000 0.21920  0.56990  0.44770  Biso   1.000  C
  C13      1.0000 0.17130  0.16670  0.67170  Biso   1.000  C
  C14      1.0000 0.98200  0.48620  0.79060  Biso   1.000  C
  C15      1.0000 0.28990  0.42730  0.94550  Biso   1.000  C
  C16      1.0000 0.86620  0.04730  0.81730  Biso   1.000  C
  C17      1.0000 0.89390  0.25800  0.02950  Biso   1.000  C
  C18      1.0000 0.28080  0.06990  0.94770  Biso   1.000  C
  C19      1.0000 0.67130  0.33330  0.82830  Biso   1.000  C
  C20      1.0000 0.48200  0.01380  0.70940  Biso   1.000  C
  C21      1.0000 0.78990  0.07270  0.55450  Biso   1.000  C
  C22      1.0000 0.36620  0.45270  0.68270  Biso   1.000  C
  C23      1.0000 0.39390  0.24200  0.47050  Biso   1.000  C
  C24      1.0000 0.78080  0.43010  0.55230  Biso   1.000  C
  O1       1.0000 0.80100  0.81216  0.24520  Biso   1.000  O
  O2       1.0000 0.94017  0.81490  0.36670  Biso   1.000  O
  O3       1.0000 0.00515  0.62662  0.21830  Biso   1.000  O
  O4       1.0000 0.00571  0.45544  0.13754  Biso   1.000  O
  O5       1.0000 0.74300  0.65239  0.11424  Biso   1.000  O
  O6       1.0000 0.78892  0.51565  0.00495  Biso   1.000  O
  O7       1.0000 0.08479  0.84842  0.19325  Biso   1.000  O
  O8       1.0000 0.10713  0.02202  0.12102  Biso   1.000  O
  O9       1.0000 0.02672  0.68498  0.02416  Biso   1.000  O
  O10      1.0000 0.11646  0.85063  0.96514  Biso   1.000  O
  O11      1.0000 0.84434  0.89723  0.06095  Biso   1.000  O
  O12      1.0000 0.61969  0.89336  0.09599  Biso   1.000  O
  O13      1.0000 0.30100  0.68784  0.25480  Biso   1.000  O
  O14      1.0000 0.44017  0.68510  0.13330  Biso   1.000  O
  O15      1.0000 0.50515  0.87338  0.28170  Biso   1.000  O
  O16      1.0000 0.50571  0.04456  0.36246  Biso   1.000  O
  O17      1.0000 0.24300  0.84761  0.38576  Biso   1.000  O
  O18      1.0000 0.28892  0.98435  0.49505  Biso   1.000  O
  O19      1.0000 0.58479  0.65158  0.30675  Biso   1.000  O
  O20      1.0000 0.60713  0.47798  0.37898  Biso   1.000  O
  O21      1.0000 0.52672  0.81502  0.47584  Biso   1.000  O
  O22      1.0000 0.61646  0.64937  0.53486  Biso   1.000  O
  O23      1.0000 0.34434  0.60277  0.43905  Biso   1.000  O
  O24      1.0000 0.11969  0.60664  0.40401  Biso   1.000  O
  O25      1.0000 0.19900  0.18784  0.75480  Biso   1.000  O
  O26      1.0000 0.05983  0.18510  0.63330  Biso   1.000  O
  O27      1.0000 0.99485  0.37338  0.78170  Biso   1.000  O
  O28      1.0000 0.99429  0.54456  0.86246  Biso   1.000  O
  O29      1.0000 0.25700  0.34761  0.88576  Biso   1.000  O
  O30      1.0000 0.21108  0.48435  0.99505  Biso   1.000  O
  O31      1.0000 0.91521  0.15158  0.80675  Biso   1.000  O
  O32      1.0000 0.89287  0.97798  0.87898  Biso   1.000  O
  O33      1.0000 0.97328  0.31502  0.97584  Biso   1.000  O
  O34      1.0000 0.88354  0.14937  0.03486  Biso   1.000  O
  O35      1.0000 0.15566  0.10277  0.93905  Biso   1.000  O
  O36      1.0000 0.38031  0.10664  0.90401  Biso   1.000  O
  O37      1.0000 0.69900  0.31216  0.74520  Biso   1.000  O
  O38      1.0000 0.55983  0.31490  0.86670  Biso   1.000  O
  O39      1.0000 0.49485  0.12662  0.71830  Biso   1.000  O
  O40      1.0000 0.49429  0.95544  0.63754  Biso   1.000  O
  O41      1.0000 0.75700  0.15239  0.61424  Biso   1.000  O
  O42      1.0000 0.71108  0.01565  0.50495  Biso   1.000  O
  O43      1.0000 0.41521  0.34842  0.69325  Biso   1.000  O
  O44      1.0000 0.39287  0.52202  0.62102  Biso   1.000  O
  O45      1.0000 0.47328  0.18498  0.52416  Biso   1.000  O
  O46      1.0000 0.38354  0.35063  0.46514  Biso   1.000  O
  O47      1.0000 0.65566  0.39723  0.56095  Biso   1.000  O
  O48      1.0000 0.88031  0.39336  0.59599  Biso   1.000  O
