data_image0
_cell_length_a       9.9781
_cell_length_b       11.3647
_cell_length_c       15.0548
_cell_angle_alpha    90.9962
_cell_angle_beta     90
_cell_angle_gamma    90

_symmetry_space_group_name_H-M    P 1
_symmetry_int_tables_number       1

loop_
  _symmetry_equiv_pos_as_xyz
  'x, y, z'

loop_
  _atom_site_label
  _atom_site_occupancy
  _atom_site_fract_x
  _atom_site_fract_y
  _atom_site_fract_z
  _atom_site_thermal_displace_type
  _atom_site_B_iso_or_equiv
  _atom_site_type_symbol
  Zn1      1.0000 0.93024  0.75458  0.13241  Biso   1.000  Zn
  Zn2      1.0000 0.12463  0.74191  0.30279  Biso   1.000  Zn
  Zn3      1.0000 0.43024  0.74542  0.36759  Biso   1.000  Zn
  Zn4      1.0000 0.62463  0.75809  0.19721  Biso   1.000  Zn
  Zn5      1.0000 0.06976  0.24542  0.86759  Biso   1.000  Zn
  Zn6      1.0000 0.87537  0.25809  0.69721  Biso   1.000  Zn
  Zn7      1.0000 0.56976  0.25458  0.63241  Biso   1.000  Zn
  Zn8      1.0000 0.37537  0.24191  0.80279  Biso   1.000  Zn
  Zn9      1.0000 0.00000  0.50000  0.00000  Biso   1.000  Zn
  Zn10     1.0000 0.50000  1.00000  0.50000  Biso   1.000  Zn
  Zn11     1.0000 0.00000  0.00000  0.00000  Biso   1.000  Zn
  Zn12     1.0000 0.50000  0.50000  0.50000  Biso   1.000  Zn
  H1       1.0000 0.77860  0.85400  0.36640  Biso   1.000  H
  H2       1.0000 0.06450  0.47820  0.25460  Biso   1.000  H
  H3       1.0000 0.63010  0.53780  0.07460  Biso   1.000  H
  H4       1.0000 0.22900  0.96370  0.20630  Biso   1.000  H
  H5       1.0000 0.13200  0.69540  0.91850  Biso   1.000  H
  H6       1.0000 0.71350  0.00200  0.03230  Biso   1.000  H
  H7       1.0000 0.27860  0.64600  0.13360  Biso   1.000  H
  H8       1.0000 0.56450  0.02180  0.24540  Biso   1.000  H
  H9       1.0000 0.13010  0.96220  0.42540  Biso   1.000  H
  H10      1.0000 0.72900  0.53630  0.29370  Biso   1.000  H
  H11      1.0000 0.63200  0.80460  0.58150  Biso   1.000  H
  H12      1.0000 0.21350  0.49800  0.46770  Biso   1.000  H
  H13      1.0000 0.22140  0.14600  0.63360  Biso   1.000  H
  H14      1.0000 0.93550  0.52180  0.74540  Biso   1.000  H
  H15      1.0000 0.36990  0.46220  0.92540  Biso   1.000  H
  H16      1.0000 0.77100  0.03630  0.79370  Biso   1.000  H
  H17      1.0000 0.86800  0.30460  0.08150  Biso   1.000  H
  H18      1.0000 0.28650  0.99800  0.96770  Biso   1.000  H
  H19      1.0000 0.72140  0.35400  0.86640  Biso   1.000  H
  H20      1.0000 0.43550  0.97820  0.75460  Biso   1.000  H
  H21      1.0000 0.86990  0.03780  0.57460  Biso   1.000  H
  H22      1.0000 0.27100  0.46370  0.70630  Biso   1.000  H
  H23      1.0000 0.36800  0.19540  0.41850  Biso   1.000  H
  H24      1.0000 0.78650  0.50200  0.53230  Biso   1.000  H
  C1       1.0000 0.84750  0.82610  0.32800  Biso   1.000  C
  C2       1.0000 0.03920  0.52030  0.20320  Biso   1.000  C
  C3       1.0000 0.72080  0.56270  0.07130  Biso   1.000  C
  C4       1.0000 0.15630  0.94160  0.16880  Biso   1.000  C
  C5       1.0000 0.08530  0.74150  0.96160  Biso   1.000  C
  C6       1.0000 0.73230  0.93570  0.06780  Biso   1.000  C
  C7       1.0000 0.34750  0.67390  0.17200  Biso   1.000  C
  C8       1.0000 0.53920  0.97970  0.29680  Biso   1.000  C
  C9       1.0000 0.22080  0.93730  0.42870  Biso   1.000  C
  C10      1.0000 0.65630  0.55840  0.33120  Biso   1.000  C
  C11      1.0000 0.58530  0.75850  0.53840  Biso   1.000  C
  C12      1.0000 0.23230  0.56430  0.43220  Biso   1.000  C
  C13      1.0000 0.15250  0.17390  0.67200  Biso   1.000  C
  C14      1.0000 0.96080  0.47970  0.79680  Biso   1.000  C
  C15      1.0000 0.27920  0.43730  0.92870  Biso   1.000  C
  C16      1.0000 0.84370  0.05840  0.83120  Biso   1.000  C
  C17      1.0000 0.91470  0.25850  0.03840  Biso   1.000  C
  C18      1.0000 0.26770  0.06430  0.93220  Biso   1.000  C
  C19      1.0000 0.65250  0.32610  0.82800  Biso   1.000  C
  C20      1.0000 0.46080  0.02030  0.70320  Biso   1.000  C
  C21      1.0000 0.77920  0.06270  0.57130  Biso   1.000  C
  C22      1.0000 0.34370  0.44160  0.66880  Biso   1.000  C
  C23      1.0000 0.41470  0.24150  0.46160  Biso   1.000  C
  C24      1.0000 0.76770  0.43570  0.56780  Biso   1.000  C
  O1       1.0000 0.81534  0.80607  0.24777  Biso   1.000  O
  O2       1.0000 0.96048  0.81277  0.36147  Biso   1.000  O
  O3       1.0000 0.02126  0.63096  0.21346  Biso   1.000  O
  O4       1.0000 0.02720  0.46264  0.13384  Biso   1.000  O
  O5       1.0000 0.75429  0.65066  0.12076  Biso   1.000  O
  O6       1.0000 0.79442  0.50695  0.01965  Biso   1.000  O
  O7       1.0000 0.09456  0.84774  0.18834  Biso   1.000  O
  O8       1.0000 0.13200  0.00724  0.10644  Biso   1.000  O
  O9       1.0000 0.01943  0.68536  0.02046  Biso   1.000  O
  O10      1.0000 0.09415  0.84932  0.95522  Biso   1.000  O
  O11      1.0000 0.85441  0.90058  0.06968  Biso   1.000  O
  O12      1.0000 0.63628  0.89192  0.10792  Biso   1.000  O
  O13      1.0000 0.31534  0.69393  0.25223  Biso   1.000  O
  O14      1.0000 0.46048  0.68723  0.13853  Biso   1.000  O
  O15      1.0000 0.52126  0.86904  0.28654  Biso   1.000  O
  O16      1.0000 0.52720  0.03736  0.36616  Biso   1.000  O
  O17      1.0000 0.25429  0.84934  0.37924  Biso   1.000  O
  O18      1.0000 0.29442  0.99305  0.48035  Biso   1.000  O
  O19      1.0000 0.59456  0.65226  0.31166  Biso   1.000  O
  O20      1.0000 0.63200  0.49276  0.39356  Biso   1.000  O
  O21      1.0000 0.51943  0.81464  0.47954  Biso   1.000  O
  O22      1.0000 0.59415  0.65068  0.54478  Biso   1.000  O
  O23      1.0000 0.35441  0.59942  0.43032  Biso   1.000  O
  O24      1.0000 0.13628  0.60808  0.39208  Biso   1.000  O
  O25      1.0000 0.18466  0.19393  0.75223  Biso   1.000  O
  O26      1.0000 0.03952  0.18723  0.63853  Biso   1.000  O
  O27      1.0000 0.97874  0.36904  0.78654  Biso   1.000  O
  O28      1.0000 0.97280  0.53736  0.86616  Biso   1.000  O
  O29      1.0000 0.24571  0.34934  0.87924  Biso   1.000  O
  O30      1.0000 0.20558  0.49305  0.98035  Biso   1.000  O
  O31      1.0000 0.90544  0.15226  0.81166  Biso   1.000  O
  O32      1.0000 0.86800  0.99276  0.89356  Biso   1.000  O
  O33      1.0000 0.98057  0.31464  0.97954  Biso   1.000  O
  O34      1.0000 0.90585  0.15068  0.04478  Biso   1.000  O
  O35      1.0000 0.14559  0.09942  0.93032  Biso   1.000  O
  O36      1.0000 0.36372  0.10808  0.89208  Biso   1.000  O
  O37      1.0000 0.68466  0.30607  0.74777  Biso   1.000  O
  O38      1.0000 0.53952  0.31277  0.86147  Biso   1.000  O
  O39      1.0000 0.47874  0.13096  0.71346  Biso   1.000  O
  O40      1.0000 0.47280  0.96264  0.63384  Biso   1.000  O
  O41      1.0000 0.74571  0.15066  0.62076  Biso   1.000  O
  O42      1.0000 0.70558  0.00695  0.51965  Biso   1.000  O
  O43      1.0000 0.40544  0.34774  0.68834  Biso   1.000  O
  O44      1.0000 0.36800  0.50724  0.60644  Biso   1.000  O
  O45      1.0000 0.48057  0.18536  0.52046  Biso   1.000  O
  O46      1.0000 0.40585  0.34932  0.45522  Biso   1.000  O
  O47      1.0000 0.64559  0.40058  0.56968  Biso   1.000  O
  O48      1.0000 0.86372  0.39192  0.60792  Biso   1.000  O
