data_image0
_cell_length_a       12.0026
_cell_length_b       14.6161
_cell_length_c       16.8232
_cell_angle_alpha    115.747
_cell_angle_beta     105.686
_cell_angle_gamma    90

_symmetry_space_group_name_H-M    P 1
_symmetry_int_tables_number       1

loop_
  _symmetry_equiv_pos_as_xyz
  'x, y, z'

loop_
  _atom_site_label
  _atom_site_occupancy
  _atom_site_fract_x
  _atom_site_fract_y
  _atom_site_fract_z
  _atom_site_thermal_displace_type
  _atom_site_B_iso_or_equiv
  _atom_site_type_symbol
  Cd1      1.0000 0.06867  0.82552  0.56824  Biso   1.000  Cd
  Cd2      1.0000 0.67245  0.48612  0.64678  Biso   1.000  Cd
  Cd3      1.0000 0.43133  0.25728  0.43176  Biso   1.000  Cd
  Cd4      1.0000 0.82755  0.83934  0.35322  Biso   1.000  Cd
  Cd5      1.0000 0.93133  0.17448  0.43176  Biso   1.000  Cd
  Cd6      1.0000 0.32755  0.51388  0.35322  Biso   1.000  Cd
  Cd7      1.0000 0.56867  0.74272  0.56824  Biso   1.000  Cd
  Cd8      1.0000 0.17245  0.16066  0.64678  Biso   1.000  Cd
  H1       1.0000 0.92060  0.47630  0.42920  Biso   1.000  H
  H2       1.0000 0.83470  0.49440  0.53600  Biso   1.000  H
  H3       1.0000 0.76700  0.35700  0.39580  Biso   1.000  H
  H4       1.0000 0.67480  0.36150  0.26640  Biso   1.000  H
  H5       1.0000 0.82930  0.46300  0.29100  Biso   1.000  H
  H6       1.0000 0.76400  0.55890  0.32980  Biso   1.000  H
  H7       1.0000 0.33750  0.89680  0.69820  Biso   1.000  H
  H8       1.0000 0.46090  0.90920  0.83300  Biso   1.000  H
  H9       1.0000 0.19630  0.78800  0.87200  Biso   1.000  H
  H10      1.0000 0.07940  0.77800  0.73500  Biso   1.000  H
  H11      1.0000 0.47520  0.71520  0.90600  Biso   1.000  H
  H12      1.0000 0.56160  0.80210  0.91480  Biso   1.000  H
  H13      1.0000 0.37530  0.83650  0.98800  Biso   1.000  H
  H14      1.0000 0.46180  0.92350  0.99760  Biso   1.000  H
  H15      1.0000 0.81000  0.92890  0.21360  Biso   1.000  H
  H16      1.0000 0.70620  0.91440  0.07080  Biso   1.000  H
  H17      1.0000 0.50340  0.67590  0.03400  Biso   1.000  H
  H18      1.0000 0.61090  0.69940  0.17960  Biso   1.000  H
  H19      1.0000 0.57940  0.04710  0.57080  Biso   1.000  H
  H20      1.0000 0.66530  0.95840  0.46400  Biso   1.000  H
  H21      1.0000 0.73300  0.96120  0.60420  Biso   1.000  H
  H22      1.0000 0.82520  0.09510  0.73360  Biso   1.000  H
  H23      1.0000 0.67070  0.17200  0.70900  Biso   1.000  H
  H24      1.0000 0.73600  0.22910  0.67020  Biso   1.000  H
  H25      1.0000 0.16250  0.19860  0.30180  Biso   1.000  H
  H26      1.0000 0.03910  0.07620  0.16700  Biso   1.000  H
  H27      1.0000 0.30370  0.91600  0.12800  Biso   1.000  H
  H28      1.0000 0.42060  0.04300  0.26500  Biso   1.000  H
  H29      1.0000 0.02480  0.80920  0.09400  Biso   1.000  H
  H30      1.0000 0.93840  0.88730  0.08520  Biso   1.000  H
  H31      1.0000 0.12470  0.84850  0.01200  Biso   1.000  H
  H32      1.0000 0.03820  0.92590  0.00240  Biso   1.000  H
  H33      1.0000 0.69000  0.71530  0.78640  Biso   1.000  H
  H34      1.0000 0.79380  0.84360  0.92920  Biso   1.000  H
  H35      1.0000 0.99660  0.64190  0.96600  Biso   1.000  H
  H36      1.0000 0.88910  0.51980  0.82040  Biso   1.000  H
  H37      1.0000 0.07940  0.52370  0.57080  Biso   1.000  H
  H38      1.0000 0.16530  0.50560  0.46400  Biso   1.000  H
  H39      1.0000 0.23300  0.64300  0.60420  Biso   1.000  H
  H40      1.0000 0.32520  0.63850  0.73360  Biso   1.000  H
  H41      1.0000 0.17070  0.53700  0.70900  Biso   1.000  H
  H42      1.0000 0.23600  0.44110  0.67020  Biso   1.000  H
  H43      1.0000 0.66250  0.10320  0.30180  Biso   1.000  H
  H44      1.0000 0.53910  0.09080  0.16700  Biso   1.000  H
  H45      1.0000 0.80370  0.21200  0.12800  Biso   1.000  H
  H46      1.0000 0.92060  0.22200  0.26500  Biso   1.000  H
  H47      1.0000 0.52480  0.28480  0.09400  Biso   1.000  H
  H48      1.0000 0.43840  0.19790  0.08520  Biso   1.000  H
  H49      1.0000 0.62470  0.16350  0.01200  Biso   1.000  H
  H50      1.0000 0.53820  0.07650  0.00240  Biso   1.000  H
  H51      1.0000 0.19000  0.07110  0.78640  Biso   1.000  H
  H52      1.0000 0.29380  0.08560  0.92920  Biso   1.000  H
  H53      1.0000 0.49660  0.32410  0.96600  Biso   1.000  H
  H54      1.0000 0.38910  0.30060  0.82040  Biso   1.000  H
  H55      1.0000 0.42060  0.95290  0.42920  Biso   1.000  H
  H56      1.0000 0.33470  0.04160  0.53600  Biso   1.000  H
  H57      1.0000 0.26700  0.03880  0.39580  Biso   1.000  H
  H58      1.0000 0.17480  0.90490  0.26640  Biso   1.000  H
  H59      1.0000 0.32930  0.82800  0.29100  Biso   1.000  H
  H60      1.0000 0.26400  0.77090  0.32980  Biso   1.000  H
  H61      1.0000 0.83750  0.80140  0.69820  Biso   1.000  H
  H62      1.0000 0.96090  0.92380  0.83300  Biso   1.000  H
  H63      1.0000 0.69630  0.08400  0.87200  Biso   1.000  H
  H64      1.0000 0.57940  0.95700  0.73500  Biso   1.000  H
  H65      1.0000 0.97520  0.19080  0.90600  Biso   1.000  H
  H66      1.0000 0.06160  0.11270  0.91480  Biso   1.000  H
  H67      1.0000 0.87530  0.15150  0.98800  Biso   1.000  H
  H68      1.0000 0.96180  0.07410  0.99760  Biso   1.000  H
  H69      1.0000 0.31000  0.28470  0.21360  Biso   1.000  H
  H70      1.0000 0.20620  0.15640  0.07080  Biso   1.000  H
  H71      1.0000 0.00340  0.35810  0.03400  Biso   1.000  H
  H72      1.0000 0.11090  0.48020  0.17960  Biso   1.000  H
  C1       1.0000 0.86620  0.52720  0.43540  Biso   1.000  C
  C2       1.0000 0.78740  0.50820  0.48600  Biso   1.000  C
  C3       1.0000 0.71210  0.40737  0.40694  Biso   1.000  C
  C4       1.0000 0.68100  0.42674  0.32088  Biso   1.000  C
  C5       1.0000 0.78810  0.49830  0.33580  Biso   1.000  C
  C6       1.0000 0.94140  0.63100  0.48560  Biso   1.000  C
  C7       1.0000 0.71940  0.59650  0.52520  Biso   1.000  C
  C8       1.0000 0.61120  0.35590  0.41720  Biso   1.000  C
  C9       1.0000 0.56710  0.47200  0.30460  Biso   1.000  C
  C10      1.0000 0.30820  0.87470  0.73360  Biso   1.000  C
  C11      1.0000 0.38310  0.88190  0.81500  Biso   1.000  C
  C12      1.0000 0.34590  0.84990  0.86940  Biso   1.000  C
  C13      1.0000 0.22770  0.81060  0.83780  Biso   1.000  C
  C14      1.0000 0.15750  0.80540  0.75540  Biso   1.000  C
  C15      1.0000 0.51270  0.78540  0.94540  Biso   1.000  C
  C16      1.0000 0.42350  0.85370  0.95720  Biso   1.000  C
  C17      1.0000 0.74650  0.87780  0.17780  Biso   1.000  C
  C18      1.0000 0.68440  0.86990  0.09180  Biso   1.000  C
  C19      1.0000 0.58890  0.79380  0.03760  Biso   1.000  C
  C20      1.0000 0.56430  0.72970  0.06980  Biso   1.000  C
  C21      1.0000 0.63090  0.74370  0.15780  Biso   1.000  C
  C22      1.0000 0.63380  0.09180  0.56460  Biso   1.000  C
  C23      1.0000 0.71260  0.02220  0.51400  Biso   1.000  C
  C24      1.0000 0.78790  0.00043  0.59306  Biso   1.000  C
  C25      1.0000 0.81900  0.10586  0.67912  Biso   1.000  C
  C26      1.0000 0.71190  0.16250  0.66420  Biso   1.000  C
  C27      1.0000 0.55860  0.14540  0.51440  Biso   1.000  C
  C28      1.0000 0.78060  0.07130  0.47480  Biso   1.000  C
  C29      1.0000 0.88880  0.93870  0.58280  Biso   1.000  C
  C30      1.0000 0.93290  0.16740  0.69540  Biso   1.000  C
  C31      1.0000 0.19180  0.14110  0.26640  Biso   1.000  C
  C32      1.0000 0.11690  0.06690  0.18500  Biso   1.000  C
  C33      1.0000 0.15410  0.98050  0.13060  Biso   1.000  C
  C34      1.0000 0.27230  0.97280  0.16220  Biso   1.000  C
  C35      1.0000 0.34250  0.05000  0.24460  Biso   1.000  C
  C36      1.0000 0.98730  0.84000  0.05460  Biso   1.000  C
  C37      1.0000 0.07650  0.89650  0.04280  Biso   1.000  C
  C38      1.0000 0.75350  0.70000  0.82220  Biso   1.000  C
  C39      1.0000 0.81560  0.77810  0.90820  Biso   1.000  C
  C40      1.0000 0.91110  0.75620  0.96240  Biso   1.000  C
  C41      1.0000 0.93570  0.65990  0.93020  Biso   1.000  C
  C42      1.0000 0.86910  0.58590  0.84220  Biso   1.000  C
  C43      1.0000 0.13380  0.47280  0.56460  Biso   1.000  C
  C44      1.0000 0.21260  0.49180  0.51400  Biso   1.000  C
  C45      1.0000 0.28790  0.59263  0.59306  Biso   1.000  C
  C46      1.0000 0.31900  0.57326  0.67912  Biso   1.000  C
  C47      1.0000 0.21190  0.50170  0.66420  Biso   1.000  C
  C48      1.0000 0.05860  0.36900  0.51440  Biso   1.000  C
  C49      1.0000 0.28060  0.40350  0.47480  Biso   1.000  C
  C50      1.0000 0.38880  0.64410  0.58280  Biso   1.000  C
  C51      1.0000 0.43290  0.52800  0.69540  Biso   1.000  C
  C52      1.0000 0.69180  0.12530  0.26640  Biso   1.000  C
  C53      1.0000 0.61690  0.11810  0.18500  Biso   1.000  C
  C54      1.0000 0.65410  0.15010  0.13060  Biso   1.000  C
  C55      1.0000 0.77230  0.18940  0.16220  Biso   1.000  C
  C56      1.0000 0.84250  0.19460  0.24460  Biso   1.000  C
  C57      1.0000 0.48730  0.21460  0.05460  Biso   1.000  C
  C58      1.0000 0.57650  0.14630  0.04280  Biso   1.000  C
  C59      1.0000 0.25350  0.12220  0.82220  Biso   1.000  C
  C60      1.0000 0.31560  0.13010  0.90820  Biso   1.000  C
  C61      1.0000 0.41110  0.20620  0.96240  Biso   1.000  C
  C62      1.0000 0.43570  0.27030  0.93020  Biso   1.000  C
  C63      1.0000 0.36910  0.25630  0.84220  Biso   1.000  C
  C64      1.0000 0.36620  0.90820  0.43540  Biso   1.000  C
  C65      1.0000 0.28740  0.97780  0.48600  Biso   1.000  C
  C66      1.0000 0.21210  0.99957  0.40694  Biso   1.000  C
  C67      1.0000 0.18100  0.89414  0.32088  Biso   1.000  C
  C68      1.0000 0.28810  0.83750  0.33580  Biso   1.000  C
  C69      1.0000 0.44140  0.85460  0.48560  Biso   1.000  C
  C70      1.0000 0.21940  0.92870  0.52520  Biso   1.000  C
  C71      1.0000 0.11120  0.06130  0.41720  Biso   1.000  C
  C72      1.0000 0.06710  0.83260  0.30460  Biso   1.000  C
  C73      1.0000 0.80820  0.85890  0.73360  Biso   1.000  C
  C74      1.0000 0.88310  0.93310  0.81500  Biso   1.000  C
  C75      1.0000 0.84590  0.01950  0.86940  Biso   1.000  C
  C76      1.0000 0.72770  0.02720  0.83780  Biso   1.000  C
  C77      1.0000 0.65750  0.95000  0.75540  Biso   1.000  C
  C78      1.0000 0.01270  0.16000  0.94540  Biso   1.000  C
  C79      1.0000 0.92350  0.10350  0.95720  Biso   1.000  C
  C80      1.0000 0.24650  0.30000  0.17780  Biso   1.000  C
  C81      1.0000 0.18440  0.22190  0.09180  Biso   1.000  C
  C82      1.0000 0.08890  0.24380  0.03760  Biso   1.000  C
  C83      1.0000 0.06430  0.34010  0.06980  Biso   1.000  C
  C84      1.0000 0.13090  0.41410  0.15780  Biso   1.000  C
  N1       1.0000 0.19610  0.83746  0.70392  Biso   1.000  N
  N2       1.0000 0.72040  0.81650  0.21120  Biso   1.000  N
  N3       1.0000 0.30390  0.13354  0.29608  Biso   1.000  N
  N4       1.0000 0.77960  0.60530  0.78880  Biso   1.000  N
  N5       1.0000 0.80390  0.16254  0.29608  Biso   1.000  N
  N6       1.0000 0.27960  0.18350  0.78880  Biso   1.000  N
  N7       1.0000 0.69610  0.86646  0.70392  Biso   1.000  N
  N8       1.0000 0.22040  0.39470  0.21120  Biso   1.000  N
  O1       1.0000 0.98410  0.66278  0.43916  Biso   1.000  O
  O2       1.0000 0.96490  0.68154  0.57048  Biso   1.000  O
  O3       1.0000 0.69780  0.65792  0.49064  Biso   1.000  O
  O4       1.0000 0.68650  0.60775  0.59410  Biso   1.000  O
  O5       1.0000 0.59960  0.37872  0.49664  Biso   1.000  O
  O6       1.0000 0.54290  0.28507  0.34694  Biso   1.000  O
  O7       1.0000 0.50930  0.48424  0.35928  Biso   1.000  O
  O8       1.0000 0.53850  0.49244  0.23808  Biso   1.000  O
  O9       1.0000 0.82850  0.38470  0.63580  Biso   1.000  O
  O10      1.0000 0.51590  0.22362  0.56084  Biso   1.000  O
  O11      1.0000 0.53510  0.11106  0.42952  Biso   1.000  O
  O12      1.0000 0.80220  0.16728  0.50936  Biso   1.000  O
  O13      1.0000 0.81350  0.01365  0.40590  Biso   1.000  O
  O14      1.0000 0.90040  0.88208  0.50336  Biso   1.000  O
  O15      1.0000 0.95710  0.93813  0.65306  Biso   1.000  O
  O16      1.0000 0.99070  0.12496  0.64072  Biso   1.000  O
  O17      1.0000 0.96150  0.25436  0.76192  Biso   1.000  O
  O18      1.0000 0.67150  0.74890  0.36420  Biso   1.000  O
  O19      1.0000 0.01590  0.33722  0.56084  Biso   1.000  O
  O20      1.0000 0.03510  0.31846  0.42952  Biso   1.000  O
  O21      1.0000 0.30220  0.34208  0.50936  Biso   1.000  O
  O22      1.0000 0.31350  0.39225  0.40590  Biso   1.000  O
  O23      1.0000 0.40040  0.62128  0.50336  Biso   1.000  O
  O24      1.0000 0.45710  0.71493  0.65306  Biso   1.000  O
  O25      1.0000 0.49070  0.51576  0.64072  Biso   1.000  O
  O26      1.0000 0.46150  0.50756  0.76192  Biso   1.000  O
  O27      1.0000 0.17150  0.61530  0.36420  Biso   1.000  O
  O28      1.0000 0.48410  0.77638  0.43916  Biso   1.000  O
  O29      1.0000 0.46490  0.88894  0.57048  Biso   1.000  O
  O30      1.0000 0.19780  0.83272  0.49064  Biso   1.000  O
  O31      1.0000 0.18650  0.98635  0.59410  Biso   1.000  O
  O32      1.0000 0.09960  0.11792  0.49664  Biso   1.000  O
  O33      1.0000 0.04290  0.06187  0.34694  Biso   1.000  O
  O34      1.0000 0.00930  0.87504  0.35928  Biso   1.000  O
  O35      1.0000 0.03850  0.74564  0.23808  Biso   1.000  O
  O36      1.0000 0.32850  0.25110  0.63580  Biso   1.000  O
