data_image0
_cell_length_a       9.1238
_cell_length_b       9.6201
_cell_length_c       12.6475
_cell_angle_alpha    94.475
_cell_angle_beta     104.722
_cell_angle_gamma    114.437

_symmetry_space_group_name_H-M    P 1
_symmetry_int_tables_number       1

loop_
  _symmetry_equiv_pos_as_xyz
  'x, y, z'

loop_
  _atom_site_label
  _atom_site_occupancy
  _atom_site_fract_x
  _atom_site_fract_y
  _atom_site_fract_z
  _atom_site_thermal_displace_type
  _atom_site_B_iso_or_equiv
  _atom_site_type_symbol
  Co1      1.0000 0.87208  0.51391  0.70196  Biso   1.000  Co
  Co2      1.0000 0.12792  0.48609  0.29804  Biso   1.000  Co
  Co3      1.0000 0.50000  0.50000  0.50000  Biso   1.000  Co
  Co4      1.0000 0.00000  0.00000  0.50000  Biso   1.000  Co
  H1       1.0000 0.86250  0.70570  0.45740  Biso   1.000  H
  H2       1.0000 0.36230  0.87510  0.59780  Biso   1.000  H
  H3       1.0000 0.72730  0.88170  0.81650  Biso   1.000  H
  H4       1.0000 0.51300  0.71620  0.86480  Biso   1.000  H
  H5       1.0000 0.44520  0.58770  0.75540  Biso   1.000  H
  H6       1.0000 0.39710  0.85830  0.77750  Biso   1.000  H
  H7       1.0000 0.63670  0.97300  0.67980  Biso   1.000  H
  H8       1.0000 0.42300  0.13630  0.83480  Biso   1.000  H
  H9       1.0000 0.99280  0.39410  0.90290  Biso   1.000  H
  H10      1.0000 0.86880  0.96700  0.29550  Biso   1.000  H
  H11      1.0000 0.89480  0.22570  0.01400  Biso   1.000  H
  H12      1.0000 0.53690  0.30640  0.72910  Biso   1.000  H
  H13      1.0000 0.68500  0.03300  0.07100  Biso   1.000  H
  H14      1.0000 0.94350  0.10430  0.36880  Biso   1.000  H
  H15      1.0000 0.00880  0.74150  0.43360  Biso   1.000  H
  H16      1.0000 0.13750  0.29430  0.54260  Biso   1.000  H
  H17      1.0000 0.63770  0.12490  0.40220  Biso   1.000  H
  H18      1.0000 0.27270  0.11830  0.18350  Biso   1.000  H
  H19      1.0000 0.48700  0.28380  0.13520  Biso   1.000  H
  H20      1.0000 0.55480  0.41230  0.24460  Biso   1.000  H
  H21      1.0000 0.60290  0.14170  0.22250  Biso   1.000  H
  H22      1.0000 0.36330  0.02700  0.32020  Biso   1.000  H
  H23      1.0000 0.57700  0.86370  0.16520  Biso   1.000  H
  H24      1.0000 0.00720  0.60590  0.09710  Biso   1.000  H
  H25      1.0000 0.13120  0.03300  0.70450  Biso   1.000  H
  H26      1.0000 0.10520  0.77430  0.98600  Biso   1.000  H
  H27      1.0000 0.46310  0.69360  0.27090  Biso   1.000  H
  H28      1.0000 0.31500  0.96700  0.92900  Biso   1.000  H
  H29      1.0000 0.05650  0.89570  0.63120  Biso   1.000  H
  H30      1.0000 0.99120  0.25850  0.56640  Biso   1.000  H
  C1       1.0000 0.67030  0.84870  0.55900  Biso   1.000  C
  C2       1.0000 0.73950  0.69510  0.74110  Biso   1.000  C
  C3       1.0000 0.29680  0.64990  0.52440  Biso   1.000  C
  C4       1.0000 0.39540  0.79370  0.61830  Biso   1.000  C
  C5       1.0000 0.65080  0.79330  0.75390  Biso   1.000  C
  C6       1.0000 0.48940  0.69850  0.78440  Biso   1.000  C
  C7       1.0000 0.36370  0.75800  0.72990  Biso   1.000  C
  C8       1.0000 0.18120  0.65580  0.71970  Biso   1.000  C
  C9       1.0000 0.58100  0.04130  0.00390  Biso   1.000  C
  C10      1.0000 0.59190  0.86100  0.65100  Biso   1.000  C
  C11      1.0000 0.64470  0.15500  0.93590  Biso   1.000  C
  C12      1.0000 0.54000  0.18580  0.84970  Biso   1.000  C
  C13      1.0000 0.87620  0.34020  0.88870  Biso   1.000  C
  C14      1.0000 0.81850  0.23850  0.95590  Biso   1.000  C
  C15      1.0000 0.60940  0.28910  0.78700  Biso   1.000  C
  C16      1.0000 0.32970  0.15130  0.44100  Biso   1.000  C
  C17      1.0000 0.26050  0.30490  0.25890  Biso   1.000  C
  C18      1.0000 0.70320  0.35010  0.47560  Biso   1.000  C
  C19      1.0000 0.60460  0.20630  0.38170  Biso   1.000  C
  C20      1.0000 0.34920  0.20670  0.24610  Biso   1.000  C
  C21      1.0000 0.51060  0.30150  0.21560  Biso   1.000  C
  C22      1.0000 0.63630  0.24200  0.27010  Biso   1.000  C
  C23      1.0000 0.81880  0.34420  0.28030  Biso   1.000  C
  C24      1.0000 0.41900  0.95870  0.99610  Biso   1.000  C
  C25      1.0000 0.40810  0.13900  0.34900  Biso   1.000  C
  C26      1.0000 0.35530  0.84500  0.06410  Biso   1.000  C
  C27      1.0000 0.46000  0.81420  0.15030  Biso   1.000  C
  C28      1.0000 0.12380  0.65980  0.11130  Biso   1.000  C
  C29      1.0000 0.18150  0.76150  0.04410  Biso   1.000  C
  C30      1.0000 0.39060  0.71090  0.21300  Biso   1.000  C
  N1       1.0000 0.77690  0.36640  0.80520  Biso   1.000  N
  N2       1.0000 0.22310  0.63360  0.19480  Biso   1.000  N
  O1       1.0000 0.87990  0.72540  0.80780  Biso   1.000  O
  O2       1.0000 0.93180  0.76470  0.43110  Biso   1.000  O
  O3       1.0000 0.59940  0.72930  0.48140  Biso   1.000  O
  O4       1.0000 0.67010  0.57460  0.66120  Biso   1.000  O
  O5       1.0000 0.20780  0.65900  0.43470  Biso   1.000  O
  O6       1.0000 0.30690  0.52560  0.54320  Biso   1.000  O
  O7       1.0000 0.80880  0.96240  0.57030  Biso   1.000  O
  O8       1.0000 0.06780  0.68320  0.65790  Biso   1.000  O
  O9       1.0000 0.13990  0.54840  0.77230  Biso   1.000  O
  O10      1.0000 0.85730  0.01500  0.34670  Biso   1.000  O
  O11      1.0000 0.12010  0.27460  0.19220  Biso   1.000  O
  O12      1.0000 0.06820  0.23530  0.56890  Biso   1.000  O
  O13      1.0000 0.40060  0.27070  0.51860  Biso   1.000  O
  O14      1.0000 0.32990  0.42540  0.33880  Biso   1.000  O
  O15      1.0000 0.79220  0.34100  0.56530  Biso   1.000  O
  O16      1.0000 0.69310  0.47440  0.45680  Biso   1.000  O
  O17      1.0000 0.19120  0.03760  0.42970  Biso   1.000  O
  O18      1.0000 0.93220  0.31680  0.34210  Biso   1.000  O
  O19      1.0000 0.86010  0.45160  0.22770  Biso   1.000  O
  O20      1.0000 0.14270  0.98500  0.65330  Biso   1.000  O
