data_image0
_cell_length_a       14.9256
_cell_length_b       19.5406
_cell_length_c       20.3874
_cell_angle_alpha    90
_cell_angle_beta     94.379
_cell_angle_gamma    90

_symmetry_space_group_name_H-M    P 1
_symmetry_int_tables_number       1

loop_
  _symmetry_equiv_pos_as_xyz
  'x, y, z'

loop_
  _atom_site_label
  _atom_site_occupancy
  _atom_site_fract_x
  _atom_site_fract_y
  _atom_site_fract_z
  _atom_site_thermal_displace_type
  _atom_site_B_iso_or_equiv
  _atom_site_type_symbol
  Cd1      1.0000 0.37334  0.45283  0.66783  Biso   1.000  Cd
  Cd2      1.0000 0.14328  0.54668  0.67247  Biso   1.000  Cd
  H1       1.0000 0.38040  0.52060  0.33680  Biso   1.000  H
  H2       1.0000 0.35200  0.41670  0.00110  Biso   1.000  H
  H3       1.0000 0.10450  0.48110  0.33950  Biso   1.000  H
  H4       1.0000 0.16970  0.57930  0.01000  Biso   1.000  H
  H5       1.0000 0.34940  0.55910  0.24090  Biso   1.000  H
  H6       1.0000 0.36630  0.58330  0.13110  Biso   1.000  H
  H7       1.0000 0.38680  0.38750  0.09070  Biso   1.000  H
  H8       1.0000 0.36810  0.36050  0.20110  Biso   1.000  H
  H9       1.0000 0.40120  0.55590  0.54940  Biso   1.000  H
  H10      1.0000 0.39710  0.56770  0.43940  Biso   1.000  H
  H11      1.0000 0.32600  0.37100  0.42130  Biso   1.000  H
  H12      1.0000 0.32980  0.36660  0.53360  Biso   1.000  H
  H13      1.0000 0.41400  0.54730  0.79470  Biso   1.000  H
  H14      1.0000 0.41010  0.55320  0.90610  Biso   1.000  H
  H15      1.0000 0.32150  0.36310  0.90010  Biso   1.000  H
  H16      1.0000 0.32730  0.36200  0.79030  Biso   1.000  H
  H17      1.0000 0.11300  0.63950  0.20520  Biso   1.000  H
  H18      1.0000 0.10780  0.61340  0.09210  Biso   1.000  H
  H19      1.0000 0.11850  0.41640  0.13640  Biso   1.000  H
  H20      1.0000 0.12610  0.44230  0.24770  Biso   1.000  H
  H21      1.0000 0.16530  0.63480  0.54160  Biso   1.000  H
  H22      1.0000 0.16340  0.63090  0.42850  Biso   1.000  H
  H23      1.0000 0.09440  0.43350  0.44140  Biso   1.000  H
  H24      1.0000 0.09800  0.44520  0.55150  Biso   1.000  H
  H25      1.0000 0.20090  0.63340  0.80180  Biso   1.000  H
  H26      1.0000 0.19580  0.63410  0.91310  Biso   1.000  H
  H27      1.0000 0.10270  0.44620  0.90590  Biso   1.000  H
  H28      1.0000 0.11140  0.44940  0.79360  Biso   1.000  H
  H29      1.0000 0.26450  0.71820  0.65640  Biso   1.000  H
  H30      1.0000 0.33500  0.83120  0.65110  Biso   1.000  H
  H31      1.0000 0.24830  0.28240  0.65460  Biso   1.000  H
  H32      1.0000 0.17810  0.16890  0.65380  Biso   1.000  H
  C1       1.0000 0.34090  0.43370  0.30070  Biso   1.000  C
  C2       1.0000 0.37880  0.50670  0.02910  Biso   1.000  C
  C3       1.0000 0.35660  0.45740  0.23190  Biso   1.000  C
  C4       1.0000 0.35580  0.52360  0.21120  Biso   1.000  C
  C5       1.0000 0.36480  0.53780  0.14440  Biso   1.000  C
  C6       1.0000 0.37130  0.48870  0.09930  Biso   1.000  C
  C7       1.0000 0.37670  0.42220  0.12050  Biso   1.000  C
  C8       1.0000 0.36720  0.40590  0.18740  Biso   1.000  C
  C9       1.0000 0.38430  0.51840  0.52340  Biso   1.000  C
  C10      1.0000 0.38300  0.52570  0.45750  Biso   1.000  C
  C11      1.0000 0.36090  0.47070  0.41700  Biso   1.000  C
  C12      1.0000 0.34070  0.40970  0.44630  Biso   1.000  C
  C13      1.0000 0.34310  0.40800  0.51400  Biso   1.000  C
  C14      1.0000 0.39530  0.50870  0.81650  Biso   1.000  C
  C15      1.0000 0.39350  0.51290  0.88410  Biso   1.000  C
  C16      1.0000 0.36760  0.45800  0.91760  Biso   1.000  C
  C17      1.0000 0.34190  0.40190  0.87950  Biso   1.000  C
  C18      1.0000 0.34520  0.40140  0.81320  Biso   1.000  C
  C19      1.0000 0.14390  0.56640  0.30710  Biso   1.000  C
  C20      1.0000 0.11630  0.49490  0.03240  Biso   1.000  C
  C21      1.0000 0.12840  0.54330  0.23660  Biso   1.000  C
  C22      1.0000 0.11760  0.59430  0.19150  Biso   1.000  C
  C23      1.0000 0.11320  0.57850  0.12320  Biso   1.000  C
  C24      1.0000 0.11700  0.51190  0.10330  Biso   1.000  C
  C25      1.0000 0.11990  0.46190  0.14960  Biso   1.000  C
  C26      1.0000 0.12500  0.47740  0.21680  Biso   1.000  C
  C27      1.0000 0.15170  0.59330  0.52090  Biso   1.000  C
  C28      1.0000 0.15050  0.59210  0.45240  Biso   1.000  C
  C29      1.0000 0.12890  0.53000  0.42130  Biso   1.000  C
  C30      1.0000 0.10960  0.47560  0.46040  Biso   1.000  C
  C31      1.0000 0.11270  0.48300  0.52680  Biso   1.000  C
  C32      1.0000 0.17890  0.59490  0.82210  Biso   1.000  C
  C33      1.0000 0.17630  0.59540  0.88960  Biso   1.000  C
  C34      1.0000 0.14520  0.53980  0.92290  Biso   1.000  C
  C35      1.0000 0.12220  0.48590  0.88630  Biso   1.000  C
  C36      1.0000 0.12700  0.48850  0.81790  Biso   1.000  C
  C37      1.0000 0.37110  0.59900  0.66910  Biso   1.000  C
  C38      1.0000 0.99150  0.15480  0.66630  Biso   1.000  C
  C39      1.0000 0.38620  0.67390  0.66560  Biso   1.000  C
  C40      1.0000 0.32630  0.72500  0.65920  Biso   1.000  C
  C41      1.0000 0.36710  0.79060  0.65730  Biso   1.000  C
  C42      1.0000 0.45760  0.78740  0.66540  Biso   1.000  C
  C43      1.0000 0.14500  0.40020  0.66900  Biso   1.000  C
  C44      1.0000 0.52380  0.84520  0.67050  Biso   1.000  C
  C45      1.0000 0.12790  0.32660  0.66540  Biso   1.000  C
  C46      1.0000 0.18730  0.27540  0.65840  Biso   1.000  C
  C47      1.0000 0.14670  0.20970  0.65760  Biso   1.000  C
  C48      1.0000 0.05790  0.21320  0.66300  Biso   1.000  C
  S1       1.0000 0.02116  0.29566  0.66976  Biso   1.000  S
  S2       1.0000 0.49487  0.70444  0.67159  Biso   1.000  S
  N1       1.0000 0.36330  0.48100  0.34920  Biso   1.000  N
  N2       1.0000 0.36280  0.46080  0.55340  Biso   1.000  N
  N3       1.0000 0.36460  0.45590  0.98500  Biso   1.000  N
  N4       1.0000 0.37240  0.45410  0.78000  Biso   1.000  N
  N5       1.0000 0.12320  0.52050  0.35360  Biso   1.000  N
  N6       1.0000 0.13510  0.54060  0.55910  Biso   1.000  N
  N7       1.0000 0.14690  0.54300  0.99170  Biso   1.000  N
  N8       1.0000 0.15230  0.54330  0.78570  Biso   1.000  N
  O1       1.0000 0.30640  0.37970  0.31115  Biso   1.000  O
  O2       1.0000 0.39790  0.56370  0.01290  Biso   1.000  O
  O3       1.0000 0.17510  0.62210  0.32060  Biso   1.000  O
  O4       1.0000 0.09190  0.43680  0.01320  Biso   1.000  O
  O5       1.0000 0.22180  0.42430  0.66590  Biso   1.000  O
  O6       1.0000 0.07610  0.43886  0.67430  Biso   1.000  O
  O7       1.0000 0.91050  0.16795  0.66870  Biso   1.000  O
  O8       1.0000 0.02110  0.09537  0.66395  Biso   1.000  O
  O9       1.0000 0.29260  0.57783  0.66770  Biso   1.000  O
  O10      1.0000 0.43820  0.56127  0.67300  Biso   1.000  O
  O11      1.0000 0.60570  0.83295  0.67330  Biso   1.000  O
  O12      1.0000 0.49260  0.90509  0.66777  Biso   1.000  O
  Cd3      1.0000 0.12666  0.95283  0.33217  Biso   1.000  Cd
  Cd4      1.0000 0.35672  0.04668  0.32753  Biso   1.000  Cd
  H33      1.0000 0.11960  0.02060  0.66320  Biso   1.000  H
  H34      1.0000 0.14800  0.91670  0.99890  Biso   1.000  H
  H35      1.0000 0.39550  0.98110  0.66050  Biso   1.000  H
  H36      1.0000 0.33030  0.07930  0.99000  Biso   1.000  H
  H37      1.0000 0.15060  0.05910  0.75910  Biso   1.000  H
  H38      1.0000 0.13370  0.08330  0.86890  Biso   1.000  H
  H39      1.0000 0.11320  0.88750  0.90930  Biso   1.000  H
  H40      1.0000 0.13190  0.86050  0.79890  Biso   1.000  H
  H41      1.0000 0.09880  0.05590  0.45060  Biso   1.000  H
  H42      1.0000 0.10290  0.06770  0.56060  Biso   1.000  H
  H43      1.0000 0.17400  0.87100  0.57870  Biso   1.000  H
  H44      1.0000 0.17020  0.86660  0.46640  Biso   1.000  H
  H45      1.0000 0.08600  0.04730  0.20530  Biso   1.000  H
  H46      1.0000 0.08990  0.05320  0.09390  Biso   1.000  H
  H47      1.0000 0.17850  0.86310  0.09990  Biso   1.000  H
  H48      1.0000 0.17270  0.86200  0.20970  Biso   1.000  H
  H49      1.0000 0.38700  0.13950  0.79480  Biso   1.000  H
  H50      1.0000 0.39220  0.11340  0.90790  Biso   1.000  H
  H51      1.0000 0.38150  0.91640  0.86360  Biso   1.000  H
  H52      1.0000 0.37390  0.94230  0.75230  Biso   1.000  H
  H53      1.0000 0.33470  0.13480  0.45840  Biso   1.000  H
  H54      1.0000 0.33660  0.13090  0.57150  Biso   1.000  H
  H55      1.0000 0.40560  0.93350  0.55860  Biso   1.000  H
  H56      1.0000 0.40200  0.94520  0.44850  Biso   1.000  H
  H57      1.0000 0.29910  0.13340  0.19820  Biso   1.000  H
  H58      1.0000 0.30420  0.13410  0.08690  Biso   1.000  H
  H59      1.0000 0.39730  0.94620  0.09410  Biso   1.000  H
  H60      1.0000 0.38860  0.94940  0.20640  Biso   1.000  H
  H61      1.0000 0.23550  0.21820  0.34360  Biso   1.000  H
  H62      1.0000 0.16500  0.33120  0.34890  Biso   1.000  H
  H63      1.0000 0.25170  0.78240  0.34540  Biso   1.000  H
  H64      1.0000 0.32190  0.66890  0.34620  Biso   1.000  H
  C49      1.0000 0.15910  0.93370  0.69930  Biso   1.000  C
  C50      1.0000 0.12120  0.00670  0.97090  Biso   1.000  C
  C51      1.0000 0.14340  0.95740  0.76810  Biso   1.000  C
  C52      1.0000 0.14420  0.02360  0.78880  Biso   1.000  C
  C53      1.0000 0.13520  0.03780  0.85560  Biso   1.000  C
  C54      1.0000 0.12870  0.98870  0.90070  Biso   1.000  C
  C55      1.0000 0.12330  0.92220  0.87950  Biso   1.000  C
  C56      1.0000 0.13280  0.90590  0.81260  Biso   1.000  C
  C57      1.0000 0.11570  0.01840  0.47660  Biso   1.000  C
  C58      1.0000 0.11700  0.02570  0.54250  Biso   1.000  C
  C59      1.0000 0.13910  0.97070  0.58300  Biso   1.000  C
  C60      1.0000 0.15930  0.90970  0.55370  Biso   1.000  C
  C61      1.0000 0.15690  0.90800  0.48600  Biso   1.000  C
  C62      1.0000 0.10470  0.00870  0.18350  Biso   1.000  C
  C63      1.0000 0.10650  0.01290  0.11590  Biso   1.000  C
  C64      1.0000 0.13240  0.95800  0.08240  Biso   1.000  C
  C65      1.0000 0.15810  0.90190  0.12050  Biso   1.000  C
  C66      1.0000 0.15480  0.90140  0.18680  Biso   1.000  C
  C67      1.0000 0.35610  0.06640  0.69290  Biso   1.000  C
  C68      1.0000 0.38370  0.99490  0.96760  Biso   1.000  C
  C69      1.0000 0.37160  0.04330  0.76340  Biso   1.000  C
  C70      1.0000 0.38240  0.09430  0.80850  Biso   1.000  C
  C71      1.0000 0.38680  0.07850  0.87680  Biso   1.000  C
  C72      1.0000 0.38300  0.01190  0.89670  Biso   1.000  C
  C73      1.0000 0.38010  0.96190  0.85040  Biso   1.000  C
  C74      1.0000 0.37500  0.97740  0.78320  Biso   1.000  C
  C75      1.0000 0.34830  0.09330  0.47910  Biso   1.000  C
  C76      1.0000 0.34950  0.09210  0.54760  Biso   1.000  C
  C77      1.0000 0.37110  0.03000  0.57870  Biso   1.000  C
  C78      1.0000 0.39040  0.97560  0.53960  Biso   1.000  C
  C79      1.0000 0.38730  0.98300  0.47320  Biso   1.000  C
  C80      1.0000 0.32110  0.09490  0.17790  Biso   1.000  C
  C81      1.0000 0.32370  0.09540  0.11040  Biso   1.000  C
  C82      1.0000 0.35480  0.03980  0.07710  Biso   1.000  C
  C83      1.0000 0.37780  0.98590  0.11370  Biso   1.000  C
  C84      1.0000 0.37300  0.98850  0.18210  Biso   1.000  C
  C85      1.0000 0.12890  0.09900  0.33090  Biso   1.000  C
  C86      1.0000 0.50850  0.65480  0.33370  Biso   1.000  C
  C87      1.0000 0.11380  0.17390  0.33440  Biso   1.000  C
  C88      1.0000 0.17370  0.22500  0.34080  Biso   1.000  C
  C89      1.0000 0.13290  0.29060  0.34270  Biso   1.000  C
  C90      1.0000 0.04240  0.28740  0.33460  Biso   1.000  C
  C91      1.0000 0.35500  0.90020  0.33100  Biso   1.000  C
  C92      1.0000 0.97620  0.34520  0.32950  Biso   1.000  C
  C93      1.0000 0.37210  0.82660  0.33460  Biso   1.000  C
  C94      1.0000 0.31270  0.77540  0.34160  Biso   1.000  C
  C95      1.0000 0.35330  0.70970  0.34240  Biso   1.000  C
  C96      1.0000 0.44210  0.71320  0.33700  Biso   1.000  C
  S3       1.0000 0.47884  0.79566  0.33024  Biso   1.000  S
  S4       1.0000 0.00513  0.20444  0.32841  Biso   1.000  S
  N9       1.0000 0.13670  0.98100  0.65080  Biso   1.000  N
  N10      1.0000 0.13720  0.96080  0.44660  Biso   1.000  N
  N11      1.0000 0.13540  0.95590  0.01500  Biso   1.000  N
  N12      1.0000 0.12760  0.95410  0.22000  Biso   1.000  N
  N13      1.0000 0.37680  0.02050  0.64640  Biso   1.000  N
  N14      1.0000 0.36490  0.04060  0.44090  Biso   1.000  N
  N15      1.0000 0.35310  0.04300  0.00830  Biso   1.000  N
  N16      1.0000 0.34770  0.04330  0.21430  Biso   1.000  N
  O13      1.0000 0.19360  0.87970  0.68885  Biso   1.000  O
  O14      1.0000 0.10210  0.06370  0.98710  Biso   1.000  O
  O15      1.0000 0.32490  0.12210  0.67940  Biso   1.000  O
  O16      1.0000 0.40810  0.93680  0.98680  Biso   1.000  O
  O17      1.0000 0.27820  0.92430  0.33410  Biso   1.000  O
  O18      1.0000 0.42390  0.93886  0.32570  Biso   1.000  O
  O19      1.0000 0.58950  0.66795  0.33130  Biso   1.000  O
  O20      1.0000 0.47890  0.59537  0.33605  Biso   1.000  O
  O21      1.0000 0.20740  0.07783  0.33230  Biso   1.000  O
  O22      1.0000 0.06180  0.06127  0.32700  Biso   1.000  O
  O23      1.0000 0.89430  0.33295  0.32670  Biso   1.000  O
  O24      1.0000 0.00740  0.40509  0.33223  Biso   1.000  O
  Cd5      1.0000 0.62666  0.54717  0.33217  Biso   1.000  Cd
  Cd6      1.0000 0.85672  0.45332  0.32753  Biso   1.000  Cd
  H65      1.0000 0.61960  0.47940  0.66320  Biso   1.000  H
  H66      1.0000 0.64800  0.58330  0.99890  Biso   1.000  H
  H67      1.0000 0.89550  0.51890  0.66050  Biso   1.000  H
  H68      1.0000 0.83030  0.42070  0.99000  Biso   1.000  H
  H69      1.0000 0.65060  0.44090  0.75910  Biso   1.000  H
  H70      1.0000 0.63370  0.41670  0.86890  Biso   1.000  H
  H71      1.0000 0.61320  0.61250  0.90930  Biso   1.000  H
  H72      1.0000 0.63190  0.63950  0.79890  Biso   1.000  H
  H73      1.0000 0.59880  0.44410  0.45060  Biso   1.000  H
  H74      1.0000 0.60290  0.43230  0.56060  Biso   1.000  H
  H75      1.0000 0.67400  0.62900  0.57870  Biso   1.000  H
  H76      1.0000 0.67020  0.63340  0.46640  Biso   1.000  H
  H77      1.0000 0.58600  0.45270  0.20530  Biso   1.000  H
  H78      1.0000 0.58990  0.44680  0.09390  Biso   1.000  H
  H79      1.0000 0.67850  0.63690  0.09990  Biso   1.000  H
  H80      1.0000 0.67270  0.63800  0.20970  Biso   1.000  H
  H81      1.0000 0.88700  0.36050  0.79480  Biso   1.000  H
  H82      1.0000 0.89220  0.38660  0.90790  Biso   1.000  H
  H83      1.0000 0.88150  0.58360  0.86360  Biso   1.000  H
  H84      1.0000 0.87390  0.55770  0.75230  Biso   1.000  H
  H85      1.0000 0.83470  0.36520  0.45840  Biso   1.000  H
  H86      1.0000 0.83660  0.36910  0.57150  Biso   1.000  H
  H87      1.0000 0.90560  0.56650  0.55860  Biso   1.000  H
  H88      1.0000 0.90200  0.55480  0.44850  Biso   1.000  H
  H89      1.0000 0.79910  0.36660  0.19820  Biso   1.000  H
  H90      1.0000 0.80420  0.36590  0.08690  Biso   1.000  H
  H91      1.0000 0.89730  0.55380  0.09410  Biso   1.000  H
  H92      1.0000 0.88860  0.55060  0.20640  Biso   1.000  H
  H93      1.0000 0.73550  0.28180  0.34360  Biso   1.000  H
  H94      1.0000 0.66500  0.16880  0.34890  Biso   1.000  H
  H95      1.0000 0.75170  0.71760  0.34540  Biso   1.000  H
  H96      1.0000 0.82190  0.83110  0.34620  Biso   1.000  H
  C97      1.0000 0.65910  0.56630  0.69930  Biso   1.000  C
  C98      1.0000 0.62120  0.49330  0.97090  Biso   1.000  C
  C99      1.0000 0.64340  0.54260  0.76810  Biso   1.000  C
  C100     1.0000 0.64420  0.47640  0.78880  Biso   1.000  C
  C101     1.0000 0.63520  0.46220  0.85560  Biso   1.000  C
  C102     1.0000 0.62870  0.51130  0.90070  Biso   1.000  C
  C103     1.0000 0.62330  0.57780  0.87950  Biso   1.000  C
  C104     1.0000 0.63280  0.59410  0.81260  Biso   1.000  C
  C105     1.0000 0.61570  0.48160  0.47660  Biso   1.000  C
  C106     1.0000 0.61700  0.47430  0.54250  Biso   1.000  C
  C107     1.0000 0.63910  0.52930  0.58300  Biso   1.000  C
  C108     1.0000 0.65930  0.59030  0.55370  Biso   1.000  C
  C109     1.0000 0.65690  0.59200  0.48600  Biso   1.000  C
  C110     1.0000 0.60470  0.49130  0.18350  Biso   1.000  C
  C111     1.0000 0.60650  0.48710  0.11590  Biso   1.000  C
  C112     1.0000 0.63240  0.54200  0.08240  Biso   1.000  C
  C113     1.0000 0.65810  0.59810  0.12050  Biso   1.000  C
  C114     1.0000 0.65480  0.59860  0.18680  Biso   1.000  C
  C115     1.0000 0.85610  0.43360  0.69290  Biso   1.000  C
  C116     1.0000 0.88370  0.50510  0.96760  Biso   1.000  C
  C117     1.0000 0.87160  0.45670  0.76340  Biso   1.000  C
  C118     1.0000 0.88240  0.40570  0.80850  Biso   1.000  C
  C119     1.0000 0.88680  0.42150  0.87680  Biso   1.000  C
  C120     1.0000 0.88300  0.48810  0.89670  Biso   1.000  C
  C121     1.0000 0.88010  0.53810  0.85040  Biso   1.000  C
  C122     1.0000 0.87500  0.52260  0.78320  Biso   1.000  C
  C123     1.0000 0.84830  0.40670  0.47910  Biso   1.000  C
  C124     1.0000 0.84950  0.40790  0.54760  Biso   1.000  C
  C125     1.0000 0.87110  0.47000  0.57870  Biso   1.000  C
  C126     1.0000 0.89040  0.52440  0.53960  Biso   1.000  C
  C127     1.0000 0.88730  0.51700  0.47320  Biso   1.000  C
  C128     1.0000 0.82110  0.40510  0.17790  Biso   1.000  C
  C129     1.0000 0.82370  0.40460  0.11040  Biso   1.000  C
  C130     1.0000 0.85480  0.46020  0.07710  Biso   1.000  C
  C131     1.0000 0.87780  0.51410  0.11370  Biso   1.000  C
  C132     1.0000 0.87300  0.51150  0.18210  Biso   1.000  C
  C133     1.0000 0.62890  0.40100  0.33090  Biso   1.000  C
  C134     1.0000 0.00850  0.84520  0.33370  Biso   1.000  C
  C135     1.0000 0.61380  0.32610  0.33440  Biso   1.000  C
  C136     1.0000 0.67370  0.27500  0.34080  Biso   1.000  C
  C137     1.0000 0.63290  0.20940  0.34270  Biso   1.000  C
  C138     1.0000 0.54240  0.21260  0.33460  Biso   1.000  C
  C139     1.0000 0.85500  0.59980  0.33100  Biso   1.000  C
  C140     1.0000 0.47620  0.15480  0.32950  Biso   1.000  C
  C141     1.0000 0.87210  0.67340  0.33460  Biso   1.000  C
  C142     1.0000 0.81270  0.72460  0.34160  Biso   1.000  C
  C143     1.0000 0.85330  0.79030  0.34240  Biso   1.000  C
  C144     1.0000 0.94210  0.78680  0.33700  Biso   1.000  C
  S5       1.0000 0.97884  0.70434  0.33024  Biso   1.000  S
  S6       1.0000 0.50513  0.29556  0.32841  Biso   1.000  S
  N17      1.0000 0.63670  0.51900  0.65080  Biso   1.000  N
  N18      1.0000 0.63720  0.53920  0.44660  Biso   1.000  N
  N19      1.0000 0.63540  0.54410  0.01500  Biso   1.000  N
  N20      1.0000 0.62760  0.54590  0.22000  Biso   1.000  N
  N21      1.0000 0.87680  0.47950  0.64640  Biso   1.000  N
  N22      1.0000 0.86490  0.45940  0.44090  Biso   1.000  N
  N23      1.0000 0.85310  0.45700  0.00830  Biso   1.000  N
  N24      1.0000 0.84770  0.45670  0.21430  Biso   1.000  N
  O25      1.0000 0.69360  0.62030  0.68885  Biso   1.000  O
  O26      1.0000 0.60210  0.43630  0.98710  Biso   1.000  O
  O27      1.0000 0.82490  0.37790  0.67940  Biso   1.000  O
  O28      1.0000 0.90810  0.56320  0.98680  Biso   1.000  O
  O29      1.0000 0.77820  0.57570  0.33410  Biso   1.000  O
  O30      1.0000 0.92390  0.56114  0.32570  Biso   1.000  O
  O31      1.0000 0.08950  0.83205  0.33130  Biso   1.000  O
  O32      1.0000 0.97890  0.90463  0.33605  Biso   1.000  O
  O33      1.0000 0.70740  0.42217  0.33230  Biso   1.000  O
  O34      1.0000 0.56180  0.43873  0.32700  Biso   1.000  O
  O35      1.0000 0.39430  0.16705  0.32670  Biso   1.000  O
  O36      1.0000 0.50740  0.09491  0.33223  Biso   1.000  O
  Cd7      1.0000 0.87334  0.04717  0.66783  Biso   1.000  Cd
  Cd8      1.0000 0.64328  0.95332  0.67247  Biso   1.000  Cd
  H97      1.0000 0.88040  0.97940  0.33680  Biso   1.000  H
  H98      1.0000 0.85200  0.08330  0.00110  Biso   1.000  H
  H99      1.0000 0.60450  0.01890  0.33950  Biso   1.000  H
  H100     1.0000 0.66970  0.92070  0.01000  Biso   1.000  H
  H101     1.0000 0.84940  0.94090  0.24090  Biso   1.000  H
  H102     1.0000 0.86630  0.91670  0.13110  Biso   1.000  H
  H103     1.0000 0.88680  0.11250  0.09070  Biso   1.000  H
  H104     1.0000 0.86810  0.13950  0.20110  Biso   1.000  H
  H105     1.0000 0.90120  0.94410  0.54940  Biso   1.000  H
  H106     1.0000 0.89710  0.93230  0.43940  Biso   1.000  H
  H107     1.0000 0.82600  0.12900  0.42130  Biso   1.000  H
  H108     1.0000 0.82980  0.13340  0.53360  Biso   1.000  H
  H109     1.0000 0.91400  0.95270  0.79470  Biso   1.000  H
  H110     1.0000 0.91010  0.94680  0.90610  Biso   1.000  H
  H111     1.0000 0.82150  0.13690  0.90010  Biso   1.000  H
  H112     1.0000 0.82730  0.13800  0.79030  Biso   1.000  H
  H113     1.0000 0.61300  0.86050  0.20520  Biso   1.000  H
  H114     1.0000 0.60780  0.88660  0.09210  Biso   1.000  H
  H115     1.0000 0.61850  0.08360  0.13640  Biso   1.000  H
  H116     1.0000 0.62610  0.05770  0.24770  Biso   1.000  H
  H117     1.0000 0.66530  0.86520  0.54160  Biso   1.000  H
  H118     1.0000 0.66340  0.86910  0.42850  Biso   1.000  H
  H119     1.0000 0.59440  0.06650  0.44140  Biso   1.000  H
  H120     1.0000 0.59800  0.05480  0.55150  Biso   1.000  H
  H121     1.0000 0.70090  0.86660  0.80180  Biso   1.000  H
  H122     1.0000 0.69580  0.86590  0.91310  Biso   1.000  H
  H123     1.0000 0.60270  0.05380  0.90590  Biso   1.000  H
  H124     1.0000 0.61140  0.05060  0.79360  Biso   1.000  H
  H125     1.0000 0.76450  0.78180  0.65640  Biso   1.000  H
  H126     1.0000 0.83500  0.66880  0.65110  Biso   1.000  H
  H127     1.0000 0.74830  0.21760  0.65460  Biso   1.000  H
  H128     1.0000 0.67810  0.33110  0.65380  Biso   1.000  H
  C145     1.0000 0.84090  0.06630  0.30070  Biso   1.000  C
  C146     1.0000 0.87880  0.99330  0.02910  Biso   1.000  C
  C147     1.0000 0.85660  0.04260  0.23190  Biso   1.000  C
  C148     1.0000 0.85580  0.97640  0.21120  Biso   1.000  C
  C149     1.0000 0.86480  0.96220  0.14440  Biso   1.000  C
  C150     1.0000 0.87130  0.01130  0.09930  Biso   1.000  C
  C151     1.0000 0.87670  0.07780  0.12050  Biso   1.000  C
  C152     1.0000 0.86720  0.09410  0.18740  Biso   1.000  C
  C153     1.0000 0.88430  0.98160  0.52340  Biso   1.000  C
  C154     1.0000 0.88300  0.97430  0.45750  Biso   1.000  C
  C155     1.0000 0.86090  0.02930  0.41700  Biso   1.000  C
  C156     1.0000 0.84070  0.09030  0.44630  Biso   1.000  C
  C157     1.0000 0.84310  0.09200  0.51400  Biso   1.000  C
  C158     1.0000 0.89530  0.99130  0.81650  Biso   1.000  C
  C159     1.0000 0.89350  0.98710  0.88410  Biso   1.000  C
  C160     1.0000 0.86760  0.04200  0.91760  Biso   1.000  C
  C161     1.0000 0.84190  0.09810  0.87950  Biso   1.000  C
  C162     1.0000 0.84520  0.09860  0.81320  Biso   1.000  C
  C163     1.0000 0.64390  0.93360  0.30710  Biso   1.000  C
  C164     1.0000 0.61630  0.00510  0.03240  Biso   1.000  C
  C165     1.0000 0.62840  0.95670  0.23660  Biso   1.000  C
  C166     1.0000 0.61760  0.90570  0.19150  Biso   1.000  C
  C167     1.0000 0.61320  0.92150  0.12320  Biso   1.000  C
  C168     1.0000 0.61700  0.98810  0.10330  Biso   1.000  C
  C169     1.0000 0.61990  0.03810  0.14960  Biso   1.000  C
  C170     1.0000 0.62500  0.02260  0.21680  Biso   1.000  C
  C171     1.0000 0.65170  0.90670  0.52090  Biso   1.000  C
  C172     1.0000 0.65050  0.90790  0.45240  Biso   1.000  C
  C173     1.0000 0.62890  0.97000  0.42130  Biso   1.000  C
  C174     1.0000 0.60960  0.02440  0.46040  Biso   1.000  C
  C175     1.0000 0.61270  0.01700  0.52680  Biso   1.000  C
  C176     1.0000 0.67890  0.90510  0.82210  Biso   1.000  C
  C177     1.0000 0.67630  0.90460  0.88960  Biso   1.000  C
  C178     1.0000 0.64520  0.96020  0.92290  Biso   1.000  C
  C179     1.0000 0.62220  0.01410  0.88630  Biso   1.000  C
  C180     1.0000 0.62700  0.01150  0.81790  Biso   1.000  C
  C181     1.0000 0.87110  0.90100  0.66910  Biso   1.000  C
  C182     1.0000 0.49150  0.34520  0.66630  Biso   1.000  C
  C183     1.0000 0.88620  0.82610  0.66560  Biso   1.000  C
  C184     1.0000 0.82630  0.77500  0.65920  Biso   1.000  C
  C185     1.0000 0.86710  0.70940  0.65730  Biso   1.000  C
  C186     1.0000 0.95760  0.71260  0.66540  Biso   1.000  C
  C187     1.0000 0.64500  0.09980  0.66900  Biso   1.000  C
  C188     1.0000 0.02380  0.65480  0.67050  Biso   1.000  C
  C189     1.0000 0.62790  0.17340  0.66540  Biso   1.000  C
  C190     1.0000 0.68730  0.22460  0.65840  Biso   1.000  C
  C191     1.0000 0.64670  0.29030  0.65760  Biso   1.000  C
  C192     1.0000 0.55790  0.28680  0.66300  Biso   1.000  C
  S7       1.0000 0.52116  0.20434  0.66976  Biso   1.000  S
  S8       1.0000 0.99487  0.79556  0.67159  Biso   1.000  S
  N25      1.0000 0.86330  0.01900  0.34920  Biso   1.000  N
  N26      1.0000 0.86280  0.03920  0.55340  Biso   1.000  N
  N27      1.0000 0.86460  0.04410  0.98500  Biso   1.000  N
  N28      1.0000 0.87240  0.04590  0.78000  Biso   1.000  N
  N29      1.0000 0.62320  0.97950  0.35360  Biso   1.000  N
  N30      1.0000 0.63510  0.95940  0.55910  Biso   1.000  N
  N31      1.0000 0.64690  0.95700  0.99170  Biso   1.000  N
  N32      1.0000 0.65230  0.95670  0.78570  Biso   1.000  N
  O37      1.0000 0.80640  0.12030  0.31115  Biso   1.000  O
  O38      1.0000 0.89790  0.93630  0.01290  Biso   1.000  O
  O39      1.0000 0.67510  0.87790  0.32060  Biso   1.000  O
  O40      1.0000 0.59190  0.06320  0.01320  Biso   1.000  O
  O41      1.0000 0.72180  0.07570  0.66590  Biso   1.000  O
  O42      1.0000 0.57610  0.06114  0.67430  Biso   1.000  O
  O43      1.0000 0.41050  0.33205  0.66870  Biso   1.000  O
  O44      1.0000 0.52110  0.40463  0.66395  Biso   1.000  O
  O45      1.0000 0.79260  0.92217  0.66770  Biso   1.000  O
  O46      1.0000 0.93820  0.93873  0.67300  Biso   1.000  O
  O47      1.0000 0.10570  0.66705  0.67330  Biso   1.000  O
  O48      1.0000 0.99260  0.59491  0.66777  Biso   1.000  O
