data_image0
_cell_length_a       22.6778
_cell_length_b       24.1597
_cell_length_c       25.3477
_cell_angle_alpha    66.5806
_cell_angle_beta     81.054
_cell_angle_gamma    88.037

_symmetry_space_group_name_H-M    P 1
_symmetry_int_tables_number       1

loop_
  _symmetry_equiv_pos_as_xyz
  'x, y, z'

loop_
  _atom_site_label
  _atom_site_occupancy
  _atom_site_fract_x
  _atom_site_fract_y
  _atom_site_fract_z
  _atom_site_thermal_displace_type
  _atom_site_B_iso_or_equiv
  _atom_site_type_symbol
  Zn1      1.0000 0.77416  0.16353  0.50638  Biso   1.000  Zn
  Zn2      1.0000 0.61937  0.13799  0.54098  Biso   1.000  Zn
  Zn3      1.0000 0.71445  0.49848  0.89743  Biso   1.000  Zn
  Zn4      1.0000 0.56130  0.47108  0.91728  Biso   1.000  Zn
  H1       1.0000 0.05210  0.23040  0.50830  Biso   1.000  H
  H2       1.0000 0.33460  0.16820  0.51520  Biso   1.000  H
  H3       1.0000 0.98730  0.40580  0.91530  Biso   1.000  H
  H4       1.0000 0.27780  0.39980  0.00560  Biso   1.000  H
  H5       1.0000 0.14290  0.17390  0.52350  Biso   1.000  H
  H6       1.0000 0.24150  0.17880  0.53690  Biso   1.000  H
  H7       1.0000 0.27320  0.31790  0.37730  Biso   1.000  H
  H8       1.0000 0.17770  0.30990  0.36590  Biso   1.000  H
  H9       1.0000 0.85670  0.20820  0.55970  Biso   1.000  H
  H10      1.0000 0.95410  0.22810  0.55350  Biso   1.000  H
  H11      1.0000 0.98670  0.19090  0.40970  Biso   1.000  H
  H12      1.0000 0.88520  0.16960  0.42490  Biso   1.000  H
  H13      1.0000 0.49820  0.07940  0.57710  Biso   1.000  H
  H14      1.0000 0.40070  0.10010  0.55420  Biso   1.000  H
  H15      1.0000 0.44880  0.27260  0.46770  Biso   1.000  H
  H16      1.0000 0.54700  0.24670  0.48620  Biso   1.000  H
  H17      1.0000 0.07970  0.37900  0.05610  Biso   1.000  H
  H18      1.0000 0.18290  0.37610  0.03770  Biso   1.000  H
  H19      1.0000 0.17780  0.44560  0.86590  Biso   1.000  H
  H20      1.0000 0.07450  0.44850  0.88420  Biso   1.000  H
  H21      1.0000 0.81640  0.44580  0.85220  Biso   1.000  H
  H22      1.0000 0.92190  0.42790  0.86130  Biso   1.000  H
  H23      1.0000 0.88970  0.46470  0.99990  Biso   1.000  H
  H24      1.0000 0.79370  0.49090  0.97890  Biso   1.000  H
  H25      1.0000 0.46860  0.44360  0.85870  Biso   1.000  H
  H26      1.0000 0.36600  0.43280  0.86910  Biso   1.000  H
  H27      1.0000 0.36530  0.40620  0.03770  Biso   1.000  H
  H28      1.0000 0.46710  0.42380  0.01660  Biso   1.000  H
  H29      1.0000 0.80140  0.94390  0.54420  Biso   1.000  H
  H30      1.0000 0.79160  0.84700  0.61110  Biso   1.000  H
  H31      1.0000 0.73200  0.90270  0.73830  Biso   1.000  H
  H32      1.0000 0.74290  0.99940  0.66930  Biso   1.000  H
  H33      1.0000 0.71730  0.66510  0.74880  Biso   1.000  H
  H34      1.0000 0.72970  0.76270  0.67770  Biso   1.000  H
  H35      1.0000 0.77860  0.81570  0.79360  Biso   1.000  H
  H36      1.0000 0.76540  0.71710  0.86380  Biso   1.000  H
  H37      1.0000 0.63330  0.94080  0.57800  Biso   1.000  H
  H38      1.0000 0.61800  0.83490  0.62970  Biso   1.000  H
  H39      1.0000 0.55590  0.86300  0.77280  Biso   1.000  H
  H40      1.0000 0.56870  0.96240  0.72530  Biso   1.000  H
  H41      1.0000 0.55390  0.64690  0.72600  Biso   1.000  H
  H42      1.0000 0.56810  0.74790  0.67390  Biso   1.000  H
  H43      1.0000 0.59420  0.76910  0.81820  Biso   1.000  H
  H44      1.0000 0.58700  0.66620  0.86830  Biso   1.000  H
  H45      1.0000 0.77240  0.27570  0.59910  Biso   1.000  H
  H46      1.0000 0.76370  0.32310  0.66090  Biso   1.000  H
  H47      1.0000 0.58840  0.29090  0.69590  Biso   1.000  H
  H48      1.0000 0.59860  0.24880  0.62730  Biso   1.000  H
  H49      1.0000 0.57620  0.38170  0.81230  Biso   1.000  H
  H50      1.0000 0.58350  0.33490  0.74980  Biso   1.000  H
  H51      1.0000 0.75410  0.36390  0.72060  Biso   1.000  H
  H52      1.0000 0.74900  0.40580  0.78460  Biso   1.000  H
  H53      1.0000 0.77030  0.24570  0.32120  Biso   1.000  H
  H54      1.0000 0.75120  0.30620  0.23040  Biso   1.000  H
  H55      1.0000 0.57780  0.29800  0.28580  Biso   1.000  H
  H56      1.0000 0.59650  0.23820  0.38120  Biso   1.000  H
  H57      1.0000 0.71990  0.44020  0.06450  Biso   1.000  H
  H58      1.0000 0.73150  0.39520  0.16120  Biso   1.000  H
  H59      1.0000 0.56640  0.32060  0.19640  Biso   1.000  H
  H60      1.0000 0.55370  0.38240  0.10040  Biso   1.000  H
  C1       1.0000 0.08850  0.23430  0.43150  Biso   1.000  C
  C2       1.0000 0.33190  0.24320  0.46670  Biso   1.000  C
  C3       1.0000 0.14820  0.24020  0.44570  Biso   1.000  C
  C4       1.0000 0.16920  0.20230  0.49420  Biso   1.000  C
  C5       1.0000 0.22920  0.20390  0.50210  Biso   1.000  C
  C6       1.0000 0.27070  0.24470  0.45580  Biso   1.000  C
  C7       1.0000 0.24800  0.28760  0.40580  Biso   1.000  C
  C8       1.0000 0.19080  0.28390  0.40000  Biso   1.000  C
  C9       1.0000 0.88290  0.20470  0.52920  Biso   1.000  C
  C10      1.0000 0.94130  0.21720  0.52570  Biso   1.000  C
  C11      1.0000 0.98210  0.21360  0.47990  Biso   1.000  C
  C12      1.0000 0.96140  0.19490  0.44050  Biso   1.000  C
  C13      1.0000 0.90000  0.18260  0.45030  Biso   1.000  C
  C14      1.0000 0.48950  0.11800  0.55220  Biso   1.000  C
  C15      1.0000 0.43020  0.13060  0.53920  Biso   1.000  C
  C16      1.0000 0.41690  0.18950  0.50360  Biso   1.000  C
  C17      1.0000 0.45800  0.23240  0.48710  Biso   1.000  C
  C18      1.0000 0.51750  0.21640  0.49960  Biso   1.000  C
  C19      1.0000 0.00010  0.42180  0.97690  Biso   1.000  C
  C20      1.0000 0.25730  0.40730  0.93450  Biso   1.000  C
  C21      1.0000 0.06680  0.41400  0.97200  Biso   1.000  C
  C22      1.0000 0.09930  0.39230  0.01790  Biso   1.000  C
  C23      1.0000 0.16120  0.39060  0.00690  Biso   1.000  C
  C24      1.0000 0.19060  0.41050  0.95000  Biso   1.000  C
  C25      1.0000 0.15810  0.43220  0.90400  Biso   1.000  C
  C26      1.0000 0.09620  0.43400  0.91500  Biso   1.000  C
  C27      1.0000 0.83170  0.45070  0.88210  Biso   1.000  C
  C28      1.0000 0.89540  0.43710  0.88830  Biso   1.000  C
  C29      1.0000 0.91160  0.43950  0.93770  Biso   1.000  C
  C30      1.0000 0.87720  0.45970  0.96890  Biso   1.000  C
  C31      1.0000 0.81840  0.47500  0.95590  Biso   1.000  C
  C32      1.0000 0.44600  0.44020  0.89380  Biso   1.000  C
  C33      1.0000 0.38540  0.43080  0.89950  Biso   1.000  C
  C34      1.0000 0.35620  0.41800  0.95570  Biso   1.000  C
  C35      1.0000 0.38550  0.41570  0.00020  Biso   1.000  C
  C36      1.0000 0.44630  0.42810  0.98640  Biso   1.000  C
  C37      1.0000 0.77650  0.04320  0.55660  Biso   1.000  C
  C38      1.0000 0.77020  0.98310  0.59870  Biso   1.000  C
  C39      1.0000 0.78660  0.93620  0.58290  Biso   1.000  C
  C40      1.0000 0.78140  0.87800  0.62360  Biso   1.000  C
  C41      1.0000 0.76160  0.86250  0.68290  Biso   1.000  C
  C42      1.0000 0.74610  0.90980  0.69960  Biso   1.000  C
  C43      1.0000 0.75200  0.96800  0.65720  Biso   1.000  C
  C44      1.0000 0.73470  0.61970  0.85880  Biso   1.000  C
  C45      1.0000 0.74230  0.68290  0.81080  Biso   1.000  C
  C46      1.0000 0.73060  0.69580  0.75790  Biso   1.000  C
  C47      1.0000 0.73750  0.75510  0.71490  Biso   1.000  C
  C48      1.0000 0.75550  0.80100  0.72700  Biso   1.000  C
  C49      1.0000 0.76610  0.78550  0.78340  Biso   1.000  C
  C50      1.0000 0.75880  0.72600  0.82600  Biso   1.000  C
  C51      1.0000 0.60760  0.02780  0.61470  Biso   1.000  C
  C52      1.0000 0.59980  0.96250  0.64670  Biso   1.000  C
  C53      1.0000 0.61700  0.92470  0.61720  Biso   1.000  C
  C54      1.0000 0.60880  0.86050  0.64900  Biso   1.000  C
  C55      1.0000 0.58830  0.83770  0.70550  Biso   1.000  C
  C56      1.0000 0.57180  0.87870  0.73350  Biso   1.000  C
  C57      1.0000 0.57850  0.93750  0.70530  Biso   1.000  C
  C58      1.0000 0.56470  0.58010  0.83700  Biso   1.000  C
  C59      1.0000 0.57060  0.64550  0.80110  Biso   1.000  C
  C60      1.0000 0.56370  0.67120  0.74430  Biso   1.000  C
  C61      1.0000 0.57080  0.73210  0.71340  Biso   1.000  C
  C62      1.0000 0.58200  0.77200  0.73920  Biso   1.000  C
  C63      1.0000 0.58730  0.74480  0.79900  Biso   1.000  C
  C64      1.0000 0.58250  0.68310  0.82920  Biso   1.000  C
  C65      1.0000 0.69040  0.22260  0.57110  Biso   1.000  C
  C66      1.0000 0.68560  0.25760  0.60670  Biso   1.000  C
  C67      1.0000 0.73470  0.27980  0.61750  Biso   1.000  C
  C68      1.0000 0.72920  0.30810  0.65510  Biso   1.000  C
  C69      1.0000 0.67570  0.31560  0.68490  Biso   1.000  C
  C70      1.0000 0.62590  0.29010  0.67540  Biso   1.000  C
  C71      1.0000 0.63260  0.26320  0.63480  Biso   1.000  C
  C72      1.0000 0.65090  0.42120  0.85250  Biso   1.000  C
  C73      1.0000 0.66010  0.39660  0.80890  Biso   1.000  C
  C74      1.0000 0.61420  0.37690  0.79490  Biso   1.000  C
  C75      1.0000 0.61840  0.34910  0.75570  Biso   1.000  C
  C76      1.0000 0.67000  0.34200  0.72640  Biso   1.000  C
  C77      1.0000 0.71630  0.36580  0.74020  Biso   1.000  C
  C78      1.0000 0.71410  0.39150  0.77860  Biso   1.000  C
  C79      1.0000 0.69880  0.19850  0.42160  Biso   1.000  C
  C80      1.0000 0.68630  0.23700  0.36250  Biso   1.000  C
  C81      1.0000 0.73130  0.25700  0.31590  Biso   1.000  C
  C82      1.0000 0.71940  0.29390  0.26090  Biso   1.000  C
  C83      1.0000 0.66290  0.31330  0.24880  Biso   1.000  C
  C84      1.0000 0.61690  0.28990  0.29290  Biso   1.000  C
  C85      1.0000 0.62840  0.25240  0.35090  Biso   1.000  C
  C86      1.0000 0.62730  0.44510  0.01120  Biso   1.000  C
  C87      1.0000 0.63600  0.41270  0.07390  Biso   1.000  C
  C88      1.0000 0.68850  0.41710  0.09180  Biso   1.000  C
  C89      1.0000 0.69670  0.38840  0.14920  Biso   1.000  C
  C90      1.0000 0.65180  0.34920  0.18870  Biso   1.000  C
  C91      1.0000 0.59760  0.34570  0.17060  Biso   1.000  C
  C92      1.0000 0.59080  0.38130  0.11200  Biso   1.000  C
  N1       1.0000 0.04250  0.22670  0.47840  Biso   1.000  N
  N2       1.0000 0.86010  0.18810  0.49350  Biso   1.000  N
  N3       1.0000 0.35770  0.19940  0.49560  Biso   1.000  N
  N4       1.0000 0.53180  0.16020  0.52940  Biso   1.000  N
  N5       1.0000 0.97080  0.41980  0.94020  Biso   1.000  N
  N6       1.0000 0.79790  0.46850  0.91600  Biso   1.000  N
  N7       1.0000 0.29350  0.40710  0.97020  Biso   1.000  N
  N8       1.0000 0.47630  0.44520  0.93440  Biso   1.000  N
  O1       1.0000 0.07890  0.23990  0.38450  Biso   1.000  O
  O2       1.0000 0.36150  0.29330  0.43460  Biso   1.000  O
  O3       1.0000 0.98080  0.42840  0.02480  Biso   1.000  O
  O4       1.0000 0.27760  0.41420  0.88150  Biso   1.000  O
  O5       1.0000 0.75410  0.08650  0.57220  Biso   1.000  O
  O6       1.0000 0.79930  0.05870  0.50480  Biso   1.000  O
  O7       1.0000 0.72050  0.57910  0.83940  Biso   1.000  O
  O8       1.0000 0.74360  0.60500  0.90950  Biso   1.000  O
  O9       1.0000 0.62210  0.04960  0.55850  Biso   1.000  O
  O10      1.0000 0.59580  0.06310  0.64060  Biso   1.000  O
  O11      1.0000 0.57590  0.55730  0.88850  Biso   1.000  O
  O12      1.0000 0.55020  0.54550  0.81220  Biso   1.000  O
  O13      1.0000 0.74130  0.21790  0.54420  Biso   1.000  O
  O14      1.0000 0.64390  0.19340  0.57220  Biso   1.000  O
  O15      1.0000 0.69610  0.44990  0.85470  Biso   1.000  O
  O16      1.0000 0.60200  0.42180  0.88090  Biso   1.000  O
  O17      1.0000 0.75130  0.19650  0.43040  Biso   1.000  O
  O18      1.0000 0.65140  0.17630  0.45720  Biso   1.000  O
  O19      1.0000 0.67490  0.47010  0.97690  Biso   1.000  O
  O20      1.0000 0.57900  0.44030  0.99570  Biso   1.000  O
  Zn5      1.0000 0.88043  0.15109  0.71063  Biso   1.000  Zn
  Zn6      1.0000 0.02642  0.18741  0.67591  Biso   1.000  Zn
  Zn7      1.0000 0.11957  0.84891  0.28937  Biso   1.000  Zn
  Zn8      1.0000 0.97358  0.81259  0.32409  Biso   1.000  Zn
  H61      1.0000 0.60110  0.09100  0.70900  Biso   1.000  H
  H62      1.0000 0.29390  0.16670  0.73580  Biso   1.000  H
  H63      1.0000 0.52310  0.08250  0.69070  Biso   1.000  H
  H64      1.0000 0.42900  0.08500  0.66470  Biso   1.000  H
  H65      1.0000 0.36570  0.16280  0.77490  Biso   1.000  H
  H66      1.0000 0.45980  0.16030  0.80080  Biso   1.000  H
  H67      1.0000 0.79450  0.10590  0.66030  Biso   1.000  H
  H68      1.0000 0.69740  0.08860  0.66530  Biso   1.000  H
  H69      1.0000 0.66710  0.14940  0.79480  Biso   1.000  H
  H70      1.0000 0.76790  0.16380  0.78490  Biso   1.000  H
  H71      1.0000 0.13380  0.11850  0.64200  Biso   1.000  H
  H72      1.0000 0.23500  0.11740  0.64890  Biso   1.000  H
  H73      1.0000 0.19880  0.17560  0.77750  Biso   1.000  H
  H74      1.0000 0.10380  0.19990  0.75050  Biso   1.000  H
  H75      1.0000 0.90740  0.31990  0.55980  Biso   1.000  H
  H76      1.0000 0.91870  0.41980  0.49440  Biso   1.000  H
  H77      1.0000 0.88460  0.46800  0.63190  Biso   1.000  H
  H78      1.0000 0.87600  0.36630  0.69390  Biso   1.000  H
  H79      1.0000 0.89940  0.65570  0.51530  Biso   1.000  H
  H80      1.0000 0.89190  0.55550  0.57780  Biso   1.000  H
  H81      1.0000 0.93890  0.51080  0.44520  Biso   1.000  H
  H82      1.0000 0.95940  0.61230  0.38350  Biso   1.000  H
  H83      1.0000 0.88800  0.05100  0.60060  Biso   1.000  H
  H84      1.0000 0.90660  0.00460  0.53570  Biso   1.000  H
  H85      1.0000 0.08000  0.03170  0.52130  Biso   1.000  H
  H86      1.0000 0.06180  0.08380  0.58070  Biso   1.000  H
  H87      1.0000 0.88950  0.04350  0.88960  Biso   1.000  H
  H88      1.0000 0.90970  0.99270  0.98390  Biso   1.000  H
  H89      1.0000 0.06490  0.07190  0.94290  Biso   1.000  H
  H90      1.0000 0.05140  0.11640  0.84410  Biso   1.000  H
  H91      1.0000 0.39890  0.90900  0.29100  Biso   1.000  H
  H92      1.0000 0.70610  0.83330  0.26420  Biso   1.000  H
  H93      1.0000 0.47690  0.91750  0.30930  Biso   1.000  H
  H94      1.0000 0.57100  0.91500  0.33530  Biso   1.000  H
  H95      1.0000 0.63430  0.83720  0.22510  Biso   1.000  H
  H96      1.0000 0.54020  0.83970  0.19920  Biso   1.000  H
  H97      1.0000 0.20550  0.89410  0.33970  Biso   1.000  H
  H98      1.0000 0.30260  0.91140  0.33470  Biso   1.000  H
  H99      1.0000 0.33290  0.85060  0.20520  Biso   1.000  H
  H100     1.0000 0.23210  0.83620  0.21510  Biso   1.000  H
  H101     1.0000 0.86620  0.88150  0.35800  Biso   1.000  H
  H102     1.0000 0.76500  0.88260  0.35110  Biso   1.000  H
  H103     1.0000 0.80120  0.82440  0.22250  Biso   1.000  H
  H104     1.0000 0.89620  0.80010  0.24950  Biso   1.000  H
  H105     1.0000 0.09260  0.68010  0.44020  Biso   1.000  H
  H106     1.0000 0.08130  0.58020  0.50560  Biso   1.000  H
  H107     1.0000 0.11540  0.53200  0.36810  Biso   1.000  H
  H108     1.0000 0.12400  0.63370  0.30610  Biso   1.000  H
  H109     1.0000 0.10060  0.34430  0.48470  Biso   1.000  H
  H110     1.0000 0.10810  0.44450  0.42220  Biso   1.000  H
  H111     1.0000 0.06110  0.48920  0.55480  Biso   1.000  H
  H112     1.0000 0.04060  0.38770  0.61650  Biso   1.000  H
  H113     1.0000 0.11200  0.94900  0.39940  Biso   1.000  H
  H114     1.0000 0.09340  0.99540  0.46430  Biso   1.000  H
  H115     1.0000 0.92000  0.96830  0.47870  Biso   1.000  H
  H116     1.0000 0.93820  0.91620  0.41930  Biso   1.000  H
  H117     1.0000 0.11050  0.95650  0.11040  Biso   1.000  H
  H118     1.0000 0.09030  0.00730  0.01610  Biso   1.000  H
  H119     1.0000 0.93510  0.92810  0.05710  Biso   1.000  H
  H120     1.0000 0.94860  0.88360  0.15590  Biso   1.000  H
  C93      1.0000 0.56210  0.12460  0.76290  Biso   1.000  C
  C94      1.0000 0.32670  0.11090  0.70760  Biso   1.000  C
  C95      1.0000 0.50080  0.12110  0.74830  Biso   1.000  C
  C96      1.0000 0.49150  0.09860  0.70760  Biso   1.000  C
  C97      1.0000 0.43520  0.10010  0.69200  Biso   1.000  C
  C98      1.0000 0.38810  0.12410  0.71730  Biso   1.000  C
  C99      1.0000 0.39730  0.14670  0.75800  Biso   1.000  C
  C100     1.0000 0.45360  0.14520  0.77360  Biso   1.000  C
  C101     1.0000 0.76810  0.11440  0.68790  Biso   1.000  C
  C102     1.0000 0.71060  0.10460  0.68940  Biso   1.000  C
  C103     1.0000 0.67000  0.12000  0.73030  Biso   1.000  C
  C104     1.0000 0.69260  0.14080  0.76670  Biso   1.000  C
  C105     1.0000 0.75300  0.14860  0.76100  Biso   1.000  C
  C106     1.0000 0.14820  0.13570  0.66470  Biso   1.000  C
  C107     1.0000 0.20790  0.13050  0.67260  Biso   1.000  C
  C108     1.0000 0.22690  0.14380  0.71320  Biso   1.000  C
  C109     1.0000 0.18740  0.16830  0.74710  Biso   1.000  C
  C110     1.0000 0.13040  0.18070  0.73190  Biso   1.000  C
  C111     1.0000 0.88760  0.26870  0.67200  Biso   1.000  C
  C112     1.0000 0.89320  0.33290  0.63310  Biso   1.000  C
  C113     1.0000 0.90410  0.35000  0.57420  Biso   1.000  C
  C114     1.0000 0.91040  0.40990  0.53430  Biso   1.000  C
  C115     1.0000 0.90350  0.45690  0.55780  Biso   1.000  C
  C116     1.0000 0.89030  0.43900  0.61620  Biso   1.000  C
  C117     1.0000 0.88510  0.37710  0.65400  Biso   1.000  C
  C118     1.0000 0.94850  0.70600  0.40490  Biso   1.000  C
  C119     1.0000 0.93500  0.64200  0.44480  Biso   1.000  C
  C120     1.0000 0.91090  0.62610  0.50130  Biso   1.000  C
  C121     1.0000 0.90340  0.56540  0.53820  Biso   1.000  C
  C122     1.0000 0.91200  0.51960  0.51940  Biso   1.000  C
  C123     1.0000 0.93250  0.53960  0.46120  Biso   1.000  C
  C124     1.0000 0.94480  0.60140  0.42280  Biso   1.000  C
  C125     1.0000 0.96190  0.10020  0.64300  Biso   1.000  C
  C126     1.0000 0.97370  0.06750  0.60320  Biso   1.000  C
  C127     1.0000 0.92720  0.04670  0.58570  Biso   1.000  C
  C128     1.0000 0.93860  0.01930  0.54570  Biso   1.000  C
  C129     1.0000 0.99400  0.01370  0.52160  Biso   1.000  C
  C130     1.0000 0.04100  0.03610  0.53660  Biso   1.000  C
  C131     1.0000 0.03000  0.06520  0.57450  Biso   1.000  C
  C132     1.0000 0.95400  0.12100  0.79750  Biso   1.000  C
  C133     1.0000 0.96770  0.08710  0.85640  Biso   1.000  C
  C134     1.0000 0.92670  0.04870  0.89830  Biso   1.000  C
  C135     1.0000 0.93980  0.01640  0.95520  Biso   1.000  C
  C136     1.0000 0.99390  0.01880  0.96920  Biso   1.000  C
  C137     1.0000 0.03140  0.06150  0.93140  Biso   1.000  C
  C138     1.0000 0.02100  0.09240  0.87210  Biso   1.000  C
  C139     1.0000 0.43790  0.87540  0.23710  Biso   1.000  C
  C140     1.0000 0.67330  0.88910  0.29240  Biso   1.000  C
  C141     1.0000 0.49920  0.87890  0.25170  Biso   1.000  C
  C142     1.0000 0.50850  0.90140  0.29240  Biso   1.000  C
  C143     1.0000 0.56480  0.89990  0.30800  Biso   1.000  C
  C144     1.0000 0.61190  0.87590  0.28270  Biso   1.000  C
  C145     1.0000 0.60270  0.85330  0.24200  Biso   1.000  C
  C146     1.0000 0.54640  0.85480  0.22640  Biso   1.000  C
  C147     1.0000 0.23190  0.88560  0.31210  Biso   1.000  C
  C148     1.0000 0.28940  0.89540  0.31060  Biso   1.000  C
  C149     1.0000 0.33000  0.88000  0.26970  Biso   1.000  C
  C150     1.0000 0.30740  0.85920  0.23330  Biso   1.000  C
  C151     1.0000 0.24700  0.85140  0.23900  Biso   1.000  C
  C152     1.0000 0.85180  0.86430  0.33530  Biso   1.000  C
  C153     1.0000 0.79210  0.86950  0.32740  Biso   1.000  C
  C154     1.0000 0.77310  0.85620  0.28680  Biso   1.000  C
  C155     1.0000 0.81260  0.83170  0.25290  Biso   1.000  C
  C156     1.0000 0.86960  0.81930  0.26810  Biso   1.000  C
  C157     1.0000 0.11240  0.73130  0.32800  Biso   1.000  C
  C158     1.0000 0.10680  0.66710  0.36690  Biso   1.000  C
  C159     1.0000 0.09590  0.65000  0.42580  Biso   1.000  C
  C160     1.0000 0.08960  0.59010  0.46570  Biso   1.000  C
  C161     1.0000 0.09650  0.54310  0.44220  Biso   1.000  C
  C162     1.0000 0.10970  0.56100  0.38380  Biso   1.000  C
  C163     1.0000 0.11490  0.62290  0.34600  Biso   1.000  C
  C164     1.0000 0.05150  0.29400  0.59510  Biso   1.000  C
  C165     1.0000 0.06500  0.35800  0.55520  Biso   1.000  C
  C166     1.0000 0.08910  0.37390  0.49870  Biso   1.000  C
  C167     1.0000 0.09660  0.43460  0.46180  Biso   1.000  C
  C168     1.0000 0.08800  0.48040  0.48060  Biso   1.000  C
  C169     1.0000 0.06750  0.46040  0.53880  Biso   1.000  C
  C170     1.0000 0.05520  0.39860  0.57720  Biso   1.000  C
  C171     1.0000 0.03810  0.89980  0.35700  Biso   1.000  C
  C172     1.0000 0.02630  0.93250  0.39680  Biso   1.000  C
  C173     1.0000 0.07280  0.95330  0.41430  Biso   1.000  C
  C174     1.0000 0.06140  0.98070  0.45430  Biso   1.000  C
  C175     1.0000 0.00600  0.98630  0.47840  Biso   1.000  C
  C176     1.0000 0.95900  0.96390  0.46340  Biso   1.000  C
  C177     1.0000 0.97000  0.93480  0.42550  Biso   1.000  C
  C178     1.0000 0.04600  0.87900  0.20250  Biso   1.000  C
  C179     1.0000 0.03230  0.91290  0.14360  Biso   1.000  C
  C180     1.0000 0.07330  0.95130  0.10170  Biso   1.000  C
  C181     1.0000 0.06020  0.98360  0.04480  Biso   1.000  C
  C182     1.0000 0.00610  0.98120  0.03080  Biso   1.000  C
  C183     1.0000 0.96860  0.93850  0.06860  Biso   1.000  C
  C184     1.0000 0.97900  0.90760  0.12790  Biso   1.000  C
  N9       1.0000 0.60930  0.10880  0.73050  Biso   1.000  N
  N10      1.0000 0.79220  0.13500  0.72160  Biso   1.000  N
  N11      1.0000 0.28400  0.14290  0.72050  Biso   1.000  N
  N12      1.0000 0.11260  0.16500  0.68960  Biso   1.000  N
  N13      1.0000 0.39070  0.89120  0.26950  Biso   1.000  N
  N14      1.0000 0.20780  0.86500  0.27840  Biso   1.000  N
  N15      1.0000 0.71600  0.85710  0.27950  Biso   1.000  N
  N16      1.0000 0.88740  0.83500  0.31040  Biso   1.000  N
  O21      1.0000 0.56760  0.14890  0.79920  Biso   1.000  O
  O22      1.0000 0.31450  0.07040  0.68990  Biso   1.000  O
  O23      1.0000 0.90830  0.22950  0.65170  Biso   1.000  O
  O24      1.0000 0.86380  0.25090  0.72350  Biso   1.000  O
  O25      1.0000 0.94220  0.74860  0.42420  Biso   1.000  O
  O26      1.0000 0.96540  0.72140  0.35090  Biso   1.000  O
  O27      1.0000 0.91030  0.10280  0.66560  Biso   1.000  O
  O28      1.0000 0.00550  0.12530  0.65050  Biso   1.000  O
  O29      1.0000 0.90460  0.11110  0.78620  Biso   1.000  O
  O30      1.0000 0.99380  0.15780  0.76020  Biso   1.000  O
  O31      1.0000 0.43240  0.85110  0.20080  Biso   1.000  O
  O32      1.0000 0.68550  0.92960  0.31010  Biso   1.000  O
  O33      1.0000 0.09170  0.77050  0.34830  Biso   1.000  O
  O34      1.0000 0.13620  0.74910  0.27650  Biso   1.000  O
  O35      1.0000 0.05780  0.25140  0.57580  Biso   1.000  O
  O36      1.0000 0.03460  0.27860  0.64910  Biso   1.000  O
  O37      1.0000 0.08970  0.89720  0.33440  Biso   1.000  O
  O38      1.0000 0.99450  0.87470  0.34950  Biso   1.000  O
  O39      1.0000 0.09540  0.88890  0.21380  Biso   1.000  O
  O40      1.0000 0.00620  0.84220  0.23980  Biso   1.000  O
  Zn9      1.0000 0.22584  0.83647  0.49362  Biso   1.000  Zn
  Zn10     1.0000 0.38063  0.86201  0.45902  Biso   1.000  Zn
  Zn11     1.0000 0.28555  0.50152  0.10257  Biso   1.000  Zn
  Zn12     1.0000 0.43870  0.52892  0.08272  Biso   1.000  Zn
  H121     1.0000 0.94790  0.76960  0.49170  Biso   1.000  H
  H122     1.0000 0.66540  0.83180  0.48480  Biso   1.000  H
  H123     1.0000 0.01270  0.59420  0.08470  Biso   1.000  H
  H124     1.0000 0.72220  0.60020  0.99440  Biso   1.000  H
  H125     1.0000 0.85710  0.82610  0.47650  Biso   1.000  H
  H126     1.0000 0.75850  0.82120  0.46310  Biso   1.000  H
  H127     1.0000 0.72680  0.68210  0.62270  Biso   1.000  H
  H128     1.0000 0.82230  0.69010  0.63410  Biso   1.000  H
  H129     1.0000 0.14330  0.79180  0.44030  Biso   1.000  H
  H130     1.0000 0.04590  0.77190  0.44650  Biso   1.000  H
  H131     1.0000 0.01330  0.80910  0.59030  Biso   1.000  H
  H132     1.0000 0.11480  0.83040  0.57510  Biso   1.000  H
  H133     1.0000 0.50180  0.92060  0.42290  Biso   1.000  H
  H134     1.0000 0.59930  0.89990  0.44580  Biso   1.000  H
  H135     1.0000 0.55120  0.72740  0.53230  Biso   1.000  H
  H136     1.0000 0.45300  0.75330  0.51380  Biso   1.000  H
  H137     1.0000 0.92030  0.62100  0.94390  Biso   1.000  H
  H138     1.0000 0.81710  0.62390  0.96230  Biso   1.000  H
  H139     1.0000 0.82220  0.55440  0.13410  Biso   1.000  H
  H140     1.0000 0.92550  0.55150  0.11580  Biso   1.000  H
  H141     1.0000 0.18360  0.55420  0.14780  Biso   1.000  H
  H142     1.0000 0.07810  0.57210  0.13870  Biso   1.000  H
  H143     1.0000 0.11030  0.53530  0.00010  Biso   1.000  H
  H144     1.0000 0.20630  0.50910  0.02110  Biso   1.000  H
  H145     1.0000 0.53140  0.55640  0.14130  Biso   1.000  H
  H146     1.0000 0.63400  0.56720  0.13090  Biso   1.000  H
  H147     1.0000 0.63470  0.59380  0.96230  Biso   1.000  H
  H148     1.0000 0.53290  0.57620  0.98340  Biso   1.000  H
  H149     1.0000 0.19860  0.05610  0.45580  Biso   1.000  H
  H150     1.0000 0.20840  0.15300  0.38890  Biso   1.000  H
  H151     1.0000 0.26800  0.09730  0.26170  Biso   1.000  H
  H152     1.0000 0.25710  0.00060  0.33070  Biso   1.000  H
  H153     1.0000 0.28270  0.33490  0.25120  Biso   1.000  H
  H154     1.0000 0.27030  0.23730  0.32230  Biso   1.000  H
  H155     1.0000 0.22140  0.18430  0.20640  Biso   1.000  H
  H156     1.0000 0.23460  0.28290  0.13620  Biso   1.000  H
  H157     1.0000 0.36670  0.05920  0.42200  Biso   1.000  H
  H158     1.0000 0.38200  0.16510  0.37030  Biso   1.000  H
  H159     1.0000 0.44410  0.13700  0.22720  Biso   1.000  H
  H160     1.0000 0.43130  0.03760  0.27470  Biso   1.000  H
  H161     1.0000 0.44610  0.35310  0.27400  Biso   1.000  H
  H162     1.0000 0.43190  0.25210  0.32610  Biso   1.000  H
  H163     1.0000 0.40580  0.23090  0.18180  Biso   1.000  H
  H164     1.0000 0.41300  0.33380  0.13170  Biso   1.000  H
  H165     1.0000 0.22760  0.72430  0.40090  Biso   1.000  H
  H166     1.0000 0.23630  0.67690  0.33910  Biso   1.000  H
  H167     1.0000 0.41160  0.70910  0.30410  Biso   1.000  H
  H168     1.0000 0.40140  0.75120  0.37270  Biso   1.000  H
  H169     1.0000 0.42380  0.61830  0.18770  Biso   1.000  H
  H170     1.0000 0.41650  0.66510  0.25020  Biso   1.000  H
  H171     1.0000 0.24590  0.63610  0.27940  Biso   1.000  H
  H172     1.0000 0.25100  0.59420  0.21540  Biso   1.000  H
  H173     1.0000 0.22970  0.75430  0.67880  Biso   1.000  H
  H174     1.0000 0.24880  0.69380  0.76960  Biso   1.000  H
  H175     1.0000 0.42220  0.70200  0.71420  Biso   1.000  H
  H176     1.0000 0.40350  0.76180  0.61880  Biso   1.000  H
  H177     1.0000 0.28010  0.55980  0.93550  Biso   1.000  H
  H178     1.0000 0.26850  0.60480  0.83880  Biso   1.000  H
  H179     1.0000 0.43360  0.67940  0.80360  Biso   1.000  H
  H180     1.0000 0.44630  0.61760  0.89960  Biso   1.000  H
  C185     1.0000 0.91150  0.76570  0.56850  Biso   1.000  C
  C186     1.0000 0.66810  0.75680  0.53330  Biso   1.000  C
  C187     1.0000 0.85180  0.75980  0.55430  Biso   1.000  C
  C188     1.0000 0.83080  0.79770  0.50580  Biso   1.000  C
  C189     1.0000 0.77080  0.79610  0.49790  Biso   1.000  C
  C190     1.0000 0.72930  0.75530  0.54420  Biso   1.000  C
  C191     1.0000 0.75200  0.71240  0.59420  Biso   1.000  C
  C192     1.0000 0.80920  0.71610  0.60000  Biso   1.000  C
  C193     1.0000 0.11710  0.79530  0.47080  Biso   1.000  C
  C194     1.0000 0.05870  0.78280  0.47430  Biso   1.000  C
  C195     1.0000 0.01790  0.78640  0.52010  Biso   1.000  C
  C196     1.0000 0.03860  0.80510  0.55950  Biso   1.000  C
  C197     1.0000 0.10000  0.81740  0.54970  Biso   1.000  C
  C198     1.0000 0.51050  0.88200  0.44780  Biso   1.000  C
  C199     1.0000 0.56980  0.86940  0.46080  Biso   1.000  C
  C200     1.0000 0.58310  0.81050  0.49640  Biso   1.000  C
  C201     1.0000 0.54200  0.76760  0.51290  Biso   1.000  C
  C202     1.0000 0.48250  0.78360  0.50040  Biso   1.000  C
  C203     1.0000 0.99990  0.57820  0.02310  Biso   1.000  C
  C204     1.0000 0.74270  0.59270  0.06550  Biso   1.000  C
  C205     1.0000 0.93320  0.58600  0.02800  Biso   1.000  C
  C206     1.0000 0.90070  0.60770  0.98210  Biso   1.000  C
  C207     1.0000 0.83880  0.60940  0.99310  Biso   1.000  C
  C208     1.0000 0.80940  0.58950  0.05000  Biso   1.000  C
  C209     1.0000 0.84190  0.56780  0.09600  Biso   1.000  C
  C210     1.0000 0.90380  0.56600  0.08500  Biso   1.000  C
  C211     1.0000 0.16830  0.54930  0.11790  Biso   1.000  C
  C212     1.0000 0.10460  0.56290  0.11170  Biso   1.000  C
  C213     1.0000 0.08840  0.56050  0.06230  Biso   1.000  C
  C214     1.0000 0.12280  0.54030  0.03110  Biso   1.000  C
  C215     1.0000 0.18160  0.52500  0.04410  Biso   1.000  C
  C216     1.0000 0.55400  0.55980  0.10620  Biso   1.000  C
  C217     1.0000 0.61460  0.56920  0.10050  Biso   1.000  C
  C218     1.0000 0.64380  0.58200  0.04430  Biso   1.000  C
  C219     1.0000 0.61450  0.58430  0.99980  Biso   1.000  C
  C220     1.0000 0.55370  0.57190  0.01360  Biso   1.000  C
  C221     1.0000 0.22350  0.95680  0.44340  Biso   1.000  C
  C222     1.0000 0.22980  0.01690  0.40130  Biso   1.000  C
  C223     1.0000 0.21340  0.06380  0.41710  Biso   1.000  C
  C224     1.0000 0.21860  0.12200  0.37640  Biso   1.000  C
  C225     1.0000 0.23840  0.13750  0.31710  Biso   1.000  C
  C226     1.0000 0.25390  0.09020  0.30040  Biso   1.000  C
  C227     1.0000 0.24800  0.03200  0.34280  Biso   1.000  C
  C228     1.0000 0.26530  0.38030  0.14120  Biso   1.000  C
  C229     1.0000 0.25770  0.31710  0.18920  Biso   1.000  C
  C230     1.0000 0.26940  0.30420  0.24210  Biso   1.000  C
  C231     1.0000 0.26250  0.24490  0.28510  Biso   1.000  C
  C232     1.0000 0.24450  0.19900  0.27300  Biso   1.000  C
  C233     1.0000 0.23390  0.21450  0.21660  Biso   1.000  C
  C234     1.0000 0.24120  0.27400  0.17400  Biso   1.000  C
  C235     1.0000 0.39240  0.97220  0.38530  Biso   1.000  C
  C236     1.0000 0.40020  0.03750  0.35330  Biso   1.000  C
  C237     1.0000 0.38300  0.07530  0.38280  Biso   1.000  C
  C238     1.0000 0.39120  0.13950  0.35100  Biso   1.000  C
  C239     1.0000 0.41170  0.16230  0.29450  Biso   1.000  C
  C240     1.0000 0.42820  0.12130  0.26650  Biso   1.000  C
  C241     1.0000 0.42150  0.06250  0.29470  Biso   1.000  C
  C242     1.0000 0.43530  0.41990  0.16300  Biso   1.000  C
  C243     1.0000 0.42940  0.35450  0.19890  Biso   1.000  C
  C244     1.0000 0.43630  0.32880  0.25570  Biso   1.000  C
  C245     1.0000 0.42920  0.26790  0.28660  Biso   1.000  C
  C246     1.0000 0.41800  0.22800  0.26080  Biso   1.000  C
  C247     1.0000 0.41270  0.25520  0.20100  Biso   1.000  C
  C248     1.0000 0.41750  0.31690  0.17080  Biso   1.000  C
  C249     1.0000 0.30960  0.77740  0.42890  Biso   1.000  C
  C250     1.0000 0.31440  0.74240  0.39330  Biso   1.000  C
  C251     1.0000 0.26530  0.72020  0.38250  Biso   1.000  C
  C252     1.0000 0.27080  0.69190  0.34490  Biso   1.000  C
  C253     1.0000 0.32430  0.68440  0.31510  Biso   1.000  C
  C254     1.0000 0.37410  0.70990  0.32460  Biso   1.000  C
  C255     1.0000 0.36740  0.73680  0.36520  Biso   1.000  C
  C256     1.0000 0.34910  0.57880  0.14750  Biso   1.000  C
  C257     1.0000 0.33990  0.60340  0.19110  Biso   1.000  C
  C258     1.0000 0.38580  0.62310  0.20510  Biso   1.000  C
  C259     1.0000 0.38160  0.65090  0.24430  Biso   1.000  C
  C260     1.0000 0.33000  0.65800  0.27360  Biso   1.000  C
  C261     1.0000 0.28370  0.63420  0.25980  Biso   1.000  C
  C262     1.0000 0.28590  0.60850  0.22140  Biso   1.000  C
  C263     1.0000 0.30120  0.80150  0.57840  Biso   1.000  C
  C264     1.0000 0.31370  0.76300  0.63750  Biso   1.000  C
  C265     1.0000 0.26870  0.74300  0.68410  Biso   1.000  C
  C266     1.0000 0.28060  0.70610  0.73910  Biso   1.000  C
  C267     1.0000 0.33710  0.68670  0.75120  Biso   1.000  C
  C268     1.0000 0.38310  0.71010  0.70710  Biso   1.000  C
  C269     1.0000 0.37160  0.74760  0.64910  Biso   1.000  C
  C270     1.0000 0.37270  0.55490  0.98880  Biso   1.000  C
  C271     1.0000 0.36400  0.58730  0.92610  Biso   1.000  C
  C272     1.0000 0.31150  0.58290  0.90820  Biso   1.000  C
  C273     1.0000 0.30330  0.61160  0.85080  Biso   1.000  C
  C274     1.0000 0.34820  0.65080  0.81130  Biso   1.000  C
  C275     1.0000 0.40240  0.65430  0.82940  Biso   1.000  C
  C276     1.0000 0.40920  0.61870  0.88800  Biso   1.000  C
  N17      1.0000 0.95750  0.77330  0.52160  Biso   1.000  N
  N18      1.0000 0.13990  0.81190  0.50650  Biso   1.000  N
  N19      1.0000 0.64230  0.80060  0.50440  Biso   1.000  N
  N20      1.0000 0.46820  0.83980  0.47060  Biso   1.000  N
  N21      1.0000 0.02920  0.58020  0.05980  Biso   1.000  N
  N22      1.0000 0.20210  0.53150  0.08400  Biso   1.000  N
  N23      1.0000 0.70650  0.59290  0.02980  Biso   1.000  N
  N24      1.0000 0.52370  0.55480  0.06560  Biso   1.000  N
  O41      1.0000 0.92110  0.76010  0.61550  Biso   1.000  O
  O42      1.0000 0.63850  0.70670  0.56540  Biso   1.000  O
  O43      1.0000 0.01920  0.57160  0.97520  Biso   1.000  O
  O44      1.0000 0.72240  0.58580  0.11850  Biso   1.000  O
  O45      1.0000 0.24590  0.91350  0.42780  Biso   1.000  O
  O46      1.0000 0.20070  0.94130  0.49520  Biso   1.000  O
  O47      1.0000 0.27950  0.42090  0.16060  Biso   1.000  O
  O48      1.0000 0.25640  0.39500  0.09050  Biso   1.000  O
  O49      1.0000 0.37790  0.95040  0.44150  Biso   1.000  O
  O50      1.0000 0.40420  0.93690  0.35940  Biso   1.000  O
  O51      1.0000 0.42410  0.44270  0.11150  Biso   1.000  O
  O52      1.0000 0.44980  0.45450  0.18780  Biso   1.000  O
  O53      1.0000 0.25870  0.78210  0.45580  Biso   1.000  O
  O54      1.0000 0.35610  0.80660  0.42780  Biso   1.000  O
  O55      1.0000 0.30390  0.55010  0.14530  Biso   1.000  O
  O56      1.0000 0.39800  0.57820  0.11910  Biso   1.000  O
  O57      1.0000 0.24870  0.80350  0.56960  Biso   1.000  O
  O58      1.0000 0.34860  0.82370  0.54280  Biso   1.000  O
  O59      1.0000 0.32510  0.52990  0.02310  Biso   1.000  O
  O60      1.0000 0.42100  0.55970  0.00430  Biso   1.000  O
