data_image0
_cell_length_a       9.6682
_cell_length_b       11.2151
_cell_length_c       14.4362
_cell_angle_alpha    91.2589
_cell_angle_beta     90
_cell_angle_gamma    90

_symmetry_space_group_name_H-M    P 1
_symmetry_int_tables_number       1

loop_
  _symmetry_equiv_pos_as_xyz
  'x, y, z'

loop_
  _atom_site_label
  _atom_site_occupancy
  _atom_site_fract_x
  _atom_site_fract_y
  _atom_site_fract_z
  _atom_site_thermal_displace_type
  _atom_site_B_iso_or_equiv
  _atom_site_type_symbol
  Zn1      1.0000 0.91715  0.75658  0.13099  Biso   1.000  Zn
  Zn2      1.0000 0.09961  0.73933  0.31541  Biso   1.000  Zn
  Zn3      1.0000 0.41715  0.74342  0.36901  Biso   1.000  Zn
  Zn4      1.0000 0.59961  0.76067  0.18459  Biso   1.000  Zn
  Zn5      1.0000 0.08285  0.24342  0.86901  Biso   1.000  Zn
  Zn6      1.0000 0.90039  0.26067  0.68459  Biso   1.000  Zn
  Zn7      1.0000 0.58285  0.25658  0.63099  Biso   1.000  Zn
  Zn8      1.0000 0.40039  0.23933  0.81541  Biso   1.000  Zn
  Zn9      1.0000 0.00000  0.50000  0.00000  Biso   1.000  Zn
  Zn10     1.0000 0.50000  0.00000  0.50000  Biso   1.000  Zn
  Zn11     1.0000 0.00000  0.00000  0.00000  Biso   1.000  Zn
  Zn12     1.0000 0.50000  0.50000  0.50000  Biso   1.000  Zn
  H1       1.0000 0.74370  0.86730  0.36420  Biso   1.000  H
  H2       1.0000 0.01940  0.47170  0.26820  Biso   1.000  H
  H3       1.0000 0.61060  0.56360  0.03390  Biso   1.000  H
  H4       1.0000 0.18420  0.98470  0.23730  Biso   1.000  H
  H5       1.0000 0.18080  0.69660  0.93860  Biso   1.000  H
  H6       1.0000 0.69650  0.99390  0.00590  Biso   1.000  H
  H7       1.0000 0.24370  0.63270  0.13580  Biso   1.000  H
  H8       1.0000 0.51940  0.02830  0.23180  Biso   1.000  H
  H9       1.0000 0.11060  0.93640  0.46610  Biso   1.000  H
  H10      1.0000 0.68420  0.51530  0.26270  Biso   1.000  H
  H11      1.0000 0.68080  0.80340  0.56140  Biso   1.000  H
  H12      1.0000 0.19650  0.50610  0.49410  Biso   1.000  H
  H13      1.0000 0.25630  0.13270  0.63580  Biso   1.000  H
  H14      1.0000 0.98060  0.52830  0.73180  Biso   1.000  H
  H15      1.0000 0.38940  0.43640  0.96610  Biso   1.000  H
  H16      1.0000 0.81580  0.01530  0.76270  Biso   1.000  H
  H17      1.0000 0.81920  0.30340  0.06140  Biso   1.000  H
  H18      1.0000 0.30350  0.00610  0.99410  Biso   1.000  H
  H19      1.0000 0.75630  0.36730  0.86420  Biso   1.000  H
  H20      1.0000 0.48060  0.97170  0.76820  Biso   1.000  H
  H21      1.0000 0.88940  0.06360  0.53390  Biso   1.000  H
  H22      1.0000 0.31580  0.48470  0.73730  Biso   1.000  H
  H23      1.0000 0.31920  0.19660  0.43860  Biso   1.000  H
  H24      1.0000 0.80350  0.49390  0.50590  Biso   1.000  H
  C1       1.0000 0.81770  0.83570  0.32800  Biso   1.000  C
  C2       1.0000 0.00230  0.51460  0.21340  Biso   1.000  C
  C3       1.0000 0.70620  0.57870  0.04360  Biso   1.000  C
  C4       1.0000 0.12590  0.95600  0.18880  Biso   1.000  C
  C5       1.0000 0.11550  0.74180  0.97380  Biso   1.000  C
  C6       1.0000 0.71310  0.93130  0.04770  Biso   1.000  C
  C7       1.0000 0.31770  0.66430  0.17200  Biso   1.000  C
  C8       1.0000 0.50230  0.98540  0.28660  Biso   1.000  C
  C9       1.0000 0.20620  0.92130  0.45640  Biso   1.000  C
  C10      1.0000 0.62590  0.54400  0.31120  Biso   1.000  C
  C11      1.0000 0.61550  0.75820  0.52620  Biso   1.000  C
  C12      1.0000 0.21310  0.56870  0.45230  Biso   1.000  C
  C13      1.0000 0.18230  0.16430  0.67200  Biso   1.000  C
  C14      1.0000 0.99770  0.48540  0.78660  Biso   1.000  C
  C15      1.0000 0.29380  0.42130  0.95640  Biso   1.000  C
  C16      1.0000 0.87410  0.04400  0.81120  Biso   1.000  C
  C17      1.0000 0.88450  0.25820  0.02620  Biso   1.000  C
  C18      1.0000 0.28690  0.06870  0.95230  Biso   1.000  C
  C19      1.0000 0.68230  0.33570  0.82800  Biso   1.000  C
  C20      1.0000 0.49770  0.01460  0.71340  Biso   1.000  C
  C21      1.0000 0.79380  0.07870  0.54360  Biso   1.000  C
  C22      1.0000 0.37410  0.45600  0.68880  Biso   1.000  C
  C23      1.0000 0.38450  0.24180  0.47380  Biso   1.000  C
  C24      1.0000 0.78690  0.43130  0.54770  Biso   1.000  C
  O1       1.0000 0.79270  0.81421  0.24281  Biso   1.000  O
  O2       1.0000 0.92950  0.81942  0.36892  Biso   1.000  O
  O3       1.0000 0.99490  0.62772  0.22192  Biso   1.000  O
  O4       1.0000 0.98950  0.45506  0.14096  Biso   1.000  O
  O5       1.0000 0.73730  0.65293  0.10843  Biso   1.000  O
  O6       1.0000 0.78800  0.52449  0.99219  Biso   1.000  O
  O7       1.0000 0.07970  0.84933  0.19593  Biso   1.000  O
  O8       1.0000 0.10240  0.02475  0.12555  Biso   1.000  O
  O9       1.0000 0.03080  0.68339  0.02539  Biso   1.000  O
  O10      1.0000 0.11870  0.85055  0.96655  Biso   1.000  O
  O11      1.0000 0.83910  0.89754  0.05714  Biso   1.000  O
  O12      1.0000 0.61110  0.88986  0.08786  Biso   1.000  O
  O13      1.0000 0.29270  0.68579  0.25719  Biso   1.000  O
  O14      1.0000 0.42950  0.68058  0.13108  Biso   1.000  O
  O15      1.0000 0.49490  0.87228  0.27808  Biso   1.000  O
  O16      1.0000 0.48950  0.04494  0.35904  Biso   1.000  O
  O17      1.0000 0.23730  0.84707  0.39157  Biso   1.000  O
  O18      1.0000 0.28800  0.97551  0.50781  Biso   1.000  O
  O19      1.0000 0.57970  0.65067  0.30407  Biso   1.000  O
  O20      1.0000 0.60240  0.47525  0.37445  Biso   1.000  O
  O21      1.0000 0.53080  0.81661  0.47461  Biso   1.000  O
  O22      1.0000 0.61870  0.64945  0.53345  Biso   1.000  O
  O23      1.0000 0.33910  0.60246  0.44286  Biso   1.000  O
  O24      1.0000 0.11110  0.61014  0.41214  Biso   1.000  O
  O25      1.0000 0.20730  0.18579  0.75719  Biso   1.000  O
  O26      1.0000 0.07050  0.18058  0.63108  Biso   1.000  O
  O27      1.0000 0.00510  0.37228  0.77808  Biso   1.000  O
  O28      1.0000 0.01050  0.54494  0.85904  Biso   1.000  O
  O29      1.0000 0.26270  0.34707  0.89157  Biso   1.000  O
  O30      1.0000 0.21200  0.47551  0.00781  Biso   1.000  O
  O31      1.0000 0.92030  0.15067  0.80407  Biso   1.000  O
  O32      1.0000 0.89760  0.97525  0.87445  Biso   1.000  O
  O33      1.0000 0.96920  0.31661  0.97461  Biso   1.000  O
  O34      1.0000 0.88130  0.14945  0.03345  Biso   1.000  O
  O35      1.0000 0.16090  0.10246  0.94286  Biso   1.000  O
  O36      1.0000 0.38890  0.11014  0.91214  Biso   1.000  O
  O37      1.0000 0.70730  0.31421  0.74281  Biso   1.000  O
  O38      1.0000 0.57050  0.31942  0.86892  Biso   1.000  O
  O39      1.0000 0.50510  0.12772  0.72192  Biso   1.000  O
  O40      1.0000 0.51050  0.95506  0.64096  Biso   1.000  O
  O41      1.0000 0.76270  0.15293  0.60843  Biso   1.000  O
  O42      1.0000 0.71200  0.02449  0.49219  Biso   1.000  O
  O43      1.0000 0.42030  0.34933  0.69593  Biso   1.000  O
  O44      1.0000 0.39760  0.52475  0.62555  Biso   1.000  O
  O45      1.0000 0.46920  0.18339  0.52539  Biso   1.000  O
  O46      1.0000 0.38130  0.35055  0.46655  Biso   1.000  O
  O47      1.0000 0.66090  0.39754  0.55714  Biso   1.000  O
  O48      1.0000 0.88890  0.38986  0.58786  Biso   1.000  O
