data_image0
_cell_length_a       9.825
_cell_length_b       11.2958
_cell_length_c       14.7329
_cell_angle_alpha    91.4943
_cell_angle_beta     90
_cell_angle_gamma    90

_symmetry_space_group_name_H-M    P 1
_symmetry_int_tables_number       1

loop_
  _symmetry_equiv_pos_as_xyz
  'x, y, z'

loop_
  _atom_site_label
  _atom_site_occupancy
  _atom_site_fract_x
  _atom_site_fract_y
  _atom_site_fract_z
  _atom_site_thermal_displace_type
  _atom_site_B_iso_or_equiv
  _atom_site_type_symbol
  Zn1      1.0000 0.92633  0.75695  0.13171  Biso   1.000  Zn
  Zn2      1.0000 0.11504  0.74172  0.30792  Biso   1.000  Zn
  Zn3      1.0000 0.42633  0.74305  0.36829  Biso   1.000  Zn
  Zn4      1.0000 0.61504  0.75828  0.19208  Biso   1.000  Zn
  Zn5      1.0000 0.07367  0.24305  0.86829  Biso   1.000  Zn
  Zn6      1.0000 0.88496  0.25828  0.69208  Biso   1.000  Zn
  Zn7      1.0000 0.57367  0.25695  0.63171  Biso   1.000  Zn
  Zn8      1.0000 0.38496  0.24172  0.80792  Biso   1.000  Zn
  Zn9      1.0000 0.00000  0.50000  0.00000  Biso   1.000  Zn
  Zn10     1.0000 0.50000  1.00000  0.50000  Biso   1.000  Zn
  Zn11     1.0000 0.00000  0.00000  0.00000  Biso   1.000  Zn
  Zn12     1.0000 0.50000  0.50000  0.50000  Biso   1.000  Zn
  H1       1.0000 0.76270  0.85550  0.36820  Biso   1.000  H
  H2       1.0000 0.04980  0.47810  0.25990  Biso   1.000  H
  H3       1.0000 0.61810  0.56080  0.04620  Biso   1.000  H
  H4       1.0000 0.20740  0.97910  0.22280  Biso   1.000  H
  H5       1.0000 0.16360  0.69580  0.92880  Biso   1.000  H
  H6       1.0000 0.70650  0.99810  0.02180  Biso   1.000  H
  H7       1.0000 0.26270  0.64450  0.13180  Biso   1.000  H
  H8       1.0000 0.54980  0.02190  0.24010  Biso   1.000  H
  H9       1.0000 0.11810  0.93920  0.45380  Biso   1.000  H
  H10      1.0000 0.70740  0.52090  0.27720  Biso   1.000  H
  H11      1.0000 0.66360  0.80420  0.57120  Biso   1.000  H
  H12      1.0000 0.20650  0.50190  0.47820  Biso   1.000  H
  H13      1.0000 0.23730  0.14450  0.63180  Biso   1.000  H
  H14      1.0000 0.95020  0.52190  0.74010  Biso   1.000  H
  H15      1.0000 0.38190  0.43920  0.95380  Biso   1.000  H
  H16      1.0000 0.79260  0.02090  0.77720  Biso   1.000  H
  H17      1.0000 0.83640  0.30420  0.07120  Biso   1.000  H
  H18      1.0000 0.29350  0.00190  0.97820  Biso   1.000  H
  H19      1.0000 0.73730  0.35550  0.86820  Biso   1.000  H
  H20      1.0000 0.45020  0.97810  0.75990  Biso   1.000  H
  H21      1.0000 0.88190  0.06080  0.54620  Biso   1.000  H
  H22      1.0000 0.29260  0.47910  0.72280  Biso   1.000  H
  H23      1.0000 0.33640  0.19580  0.42880  Biso   1.000  H
  H24      1.0000 0.79350  0.49810  0.52180  Biso   1.000  H
  C1       1.0000 0.83460  0.82650  0.33080  Biso   1.000  C
  C2       1.0000 0.02360  0.51900  0.20710  Biso   1.000  C
  C3       1.0000 0.71270  0.57670  0.05210  Biso   1.000  C
  C4       1.0000 0.14190  0.95220  0.17950  Biso   1.000  C
  C5       1.0000 0.10570  0.74160  0.96760  Biso   1.000  C
  C6       1.0000 0.72480  0.93430  0.06070  Biso   1.000  C
  C7       1.0000 0.33460  0.67350  0.16920  Biso   1.000  C
  C8       1.0000 0.52360  0.98100  0.29290  Biso   1.000  C
  C9       1.0000 0.21270  0.92330  0.44790  Biso   1.000  C
  C10      1.0000 0.64190  0.54780  0.32050  Biso   1.000  C
  C11      1.0000 0.60570  0.75840  0.53240  Biso   1.000  C
  C12      1.0000 0.22480  0.56570  0.43930  Biso   1.000  C
  C13      1.0000 0.16540  0.17350  0.66920  Biso   1.000  C
  C14      1.0000 0.97640  0.48100  0.79290  Biso   1.000  C
  C15      1.0000 0.28730  0.42330  0.94790  Biso   1.000  C
  C16      1.0000 0.85810  0.04780  0.82050  Biso   1.000  C
  C17      1.0000 0.89430  0.25840  0.03240  Biso   1.000  C
  C18      1.0000 0.27520  0.06570  0.93930  Biso   1.000  C
  C19      1.0000 0.66540  0.32650  0.83080  Biso   1.000  C
  C20      1.0000 0.47640  0.01900  0.70710  Biso   1.000  C
  C21      1.0000 0.78730  0.07670  0.55210  Biso   1.000  C
  C22      1.0000 0.35810  0.45220  0.67950  Biso   1.000  C
  C23      1.0000 0.39430  0.24160  0.46760  Biso   1.000  C
  C24      1.0000 0.77520  0.43430  0.56070  Biso   1.000  C
  O1       1.0000 0.80720  0.80729  0.24739  Biso   1.000  O
  O2       1.0000 0.94650  0.81079  0.36809  Biso   1.000  O
  O3       1.0000 0.01280  0.63001  0.21531  Biso   1.000  O
  O4       1.0000 0.00360  0.45780  0.13760  Biso   1.000  O
  O5       1.0000 0.74830  0.65500  0.11210  Biso   1.000  O
  O6       1.0000 0.79080  0.51993  0.00093  Biso   1.000  O
  O7       1.0000 0.08730  0.85116  0.19316  Biso   1.000  O
  O8       1.0000 0.11850  0.01780  0.11630  Biso   1.000  O
  O9       1.0000 0.02930  0.68501  0.02351  Biso   1.000  O
  O10      1.0000 0.10940  0.84928  0.96078  Biso   1.000  O
  O11      1.0000 0.84850  0.89969  0.06489  Biso   1.000  O
  O12      1.0000 0.62660  0.89376  0.10186  Biso   1.000  O
  O13      1.0000 0.30720  0.69271  0.25261  Biso   1.000  O
  O14      1.0000 0.44650  0.68921  0.13191  Biso   1.000  O
  O15      1.0000 0.51280  0.86999  0.28469  Biso   1.000  O
  O16      1.0000 0.50360  0.04220  0.36240  Biso   1.000  O
  O17      1.0000 0.24830  0.84500  0.38790  Biso   1.000  O
  O18      1.0000 0.29080  0.98007  0.49907  Biso   1.000  O
  O19      1.0000 0.58730  0.64884  0.30684  Biso   1.000  O
  O20      1.0000 0.61850  0.48220  0.38370  Biso   1.000  O
  O21      1.0000 0.52930  0.81499  0.47649  Biso   1.000  O
  O22      1.0000 0.60940  0.65072  0.53922  Biso   1.000  O
  O23      1.0000 0.34850  0.60031  0.43511  Biso   1.000  O
  O24      1.0000 0.12660  0.60624  0.39814  Biso   1.000  O
  O25      1.0000 0.19280  0.19271  0.75261  Biso   1.000  O
  O26      1.0000 0.05350  0.18921  0.63191  Biso   1.000  O
  O27      1.0000 0.98720  0.36999  0.78469  Biso   1.000  O
  O28      1.0000 0.99640  0.54220  0.86240  Biso   1.000  O
  O29      1.0000 0.25170  0.34500  0.88790  Biso   1.000  O
  O30      1.0000 0.20920  0.48007  0.99907  Biso   1.000  O
  O31      1.0000 0.91270  0.14884  0.80684  Biso   1.000  O
  O32      1.0000 0.88150  0.98220  0.88370  Biso   1.000  O
  O33      1.0000 0.97070  0.31499  0.97649  Biso   1.000  O
  O34      1.0000 0.89060  0.15072  0.03922  Biso   1.000  O
  O35      1.0000 0.15150  0.10031  0.93511  Biso   1.000  O
  O36      1.0000 0.37340  0.10624  0.89814  Biso   1.000  O
  O37      1.0000 0.69280  0.30729  0.74739  Biso   1.000  O
  O38      1.0000 0.55350  0.31079  0.86809  Biso   1.000  O
  O39      1.0000 0.48720  0.13001  0.71531  Biso   1.000  O
  O40      1.0000 0.49640  0.95780  0.63760  Biso   1.000  O
  O41      1.0000 0.75170  0.15500  0.61210  Biso   1.000  O
  O42      1.0000 0.70920  0.01993  0.50093  Biso   1.000  O
  O43      1.0000 0.41270  0.35116  0.69316  Biso   1.000  O
  O44      1.0000 0.38150  0.51780  0.61630  Biso   1.000  O
  O45      1.0000 0.47070  0.18501  0.52351  Biso   1.000  O
  O46      1.0000 0.39060  0.34928  0.46078  Biso   1.000  O
  O47      1.0000 0.65150  0.39969  0.56489  Biso   1.000  O
  O48      1.0000 0.87340  0.39376  0.60186  Biso   1.000  O
