data_image0
_cell_length_a       14.9179
_cell_length_b       16.766
_cell_length_c       17.8057
_cell_angle_alpha    61.9134
_cell_angle_beta     65.2343
_cell_angle_gamma    90

_symmetry_space_group_name_H-M    P 1
_symmetry_int_tables_number       1

loop_
  _symmetry_equiv_pos_as_xyz
  'x, y, z'

loop_
  _atom_site_label
  _atom_site_occupancy
  _atom_site_fract_x
  _atom_site_fract_y
  _atom_site_fract_z
  _atom_site_thermal_displace_type
  _atom_site_B_iso_or_equiv
  _atom_site_type_symbol
  Cu1      1.0000 0.00000  0.00000  0.50000  Biso   1.000  Cu
  Cu2      1.0000 0.50000  0.00000  0.50000  Biso   1.000  Cu
  H1       1.0000 0.97610  0.19470  0.41580  Biso   1.000  H
  H2       1.0000 0.06300  0.34480  0.35320  Biso   1.000  H
  H3       1.0000 0.28940  0.23970  0.39740  Biso   1.000  H
  H4       1.0000 0.19530  0.08920  0.46380  Biso   1.000  H
  H5       1.0000 0.27650  0.40250  0.36460  Biso   1.000  H
  H6       1.0000 0.19930  0.44620  0.32440  Biso   1.000  H
  H7       1.0000 0.37810  0.54980  0.94440  Biso   1.000  H
  H8       1.0000 0.05190  0.17980  0.20160  Biso   1.000  H
  H9       1.0000 0.04940  0.23840  0.05520  Biso   1.000  H
  H10      1.0000 0.60810  0.88950  0.41580  Biso   1.000  H
  H11      1.0000 0.58380  0.80200  0.35320  Biso   1.000  H
  H12      1.0000 0.31320  0.86290  0.39740  Biso   1.000  H
  H13      1.0000 0.34090  0.94700  0.46380  Biso   1.000  H
  H14      1.0000 0.35890  0.73290  0.36460  Biso   1.000  H
  H15      1.0000 0.47630  0.72940  0.32440  Biso   1.000  H
  H16      1.0000 0.67750  0.00580  0.94440  Biso   1.000  H
  H17      1.0000 0.74650  0.11860  0.20160  Biso   1.000  H
  H18      1.0000 0.89540  0.20640  0.05520  Biso   1.000  H
  H19      1.0000 0.02390  0.80530  0.58420  Biso   1.000  H
  H20      1.0000 0.93700  0.65520  0.64680  Biso   1.000  H
  H21      1.0000 0.71060  0.76030  0.60260  Biso   1.000  H
  H22      1.0000 0.80470  0.91080  0.53620  Biso   1.000  H
  H23      1.0000 0.72350  0.59750  0.63540  Biso   1.000  H
  H24      1.0000 0.80070  0.55380  0.67560  Biso   1.000  H
  H25      1.0000 0.62190  0.45020  0.05560  Biso   1.000  H
  H26      1.0000 0.94810  0.82020  0.79840  Biso   1.000  H
  H27      1.0000 0.95060  0.76160  0.94480  Biso   1.000  H
  H28      1.0000 0.39190  0.11050  0.58420  Biso   1.000  H
  H29      1.0000 0.41620  0.19800  0.64680  Biso   1.000  H
  H30      1.0000 0.68680  0.13710  0.60260  Biso   1.000  H
  H31      1.0000 0.65910  0.05300  0.53620  Biso   1.000  H
  H32      1.0000 0.64110  0.26710  0.63540  Biso   1.000  H
  H33      1.0000 0.52370  0.27060  0.67560  Biso   1.000  H
  H34      1.0000 0.32250  0.99420  0.05560  Biso   1.000  H
  H35      1.0000 0.25350  0.88140  0.79840  Biso   1.000  H
  H36      1.0000 0.10460  0.79360  0.94480  Biso   1.000  H
  C1       1.0000 0.04060  0.20330  0.41300  Biso   1.000  C
  C2       1.0000 0.09250  0.29380  0.37440  Biso   1.000  C
  C3       1.0000 0.18610  0.30770  0.36740  Biso   1.000  C
  C4       1.0000 0.22440  0.23160  0.40100  Biso   1.000  C
  C5       1.0000 0.16770  0.14120  0.44080  Biso   1.000  C
  C6       1.0000 0.24550  0.40380  0.32460  Biso   1.000  C
  C7       1.0000 0.42430  0.42770  0.20040  Biso   1.000  C
  C8       1.0000 0.30830  0.47830  0.14600  Biso   1.000  C
  C9       1.0000 0.40480  0.49390  0.06220  Biso   1.000  C
  C10      1.0000 0.42660  0.53010  0.96640  Biso   1.000  C
  C11      1.0000 0.52490  0.53460  0.90640  Biso   1.000  C
  C12      1.0000 0.90540  0.08340  0.38120  Biso   1.000  C
  C13      1.0000 0.90110  0.11530  0.28780  Biso   1.000  C
  C14      1.0000 0.98990  0.16760  0.20140  Biso   1.000  C
  C15      1.0000 0.98860  0.20210  0.11460  Biso   1.000  C
  C16      1.0000 0.54640  0.88370  0.41300  Biso   1.000  C
  C17      1.0000 0.53310  0.83180  0.37440  Biso   1.000  C
  C18      1.0000 0.44650  0.82490  0.36740  Biso   1.000  C
  C19      1.0000 0.37460  0.86740  0.40100  Biso   1.000  C
  C20      1.0000 0.39150  0.91800  0.44080  Biso   1.000  C
  C21      1.0000 0.42990  0.77160  0.32460  Biso   1.000  C
  C22      1.0000 0.37530  0.87190  0.20040  Biso   1.000  C
  C23      1.0000 0.54570  0.87570  0.14600  Biso   1.000  C
  C24      1.0000 0.53300  0.94390  0.06220  Biso   1.000  C
  C25      1.0000 0.60700  0.00350  0.96640  Biso   1.000  C
  C26      1.0000 0.56870  0.05900  0.90640  Biso   1.000  C
  C27      1.0000 0.71340  0.03540  0.38120  Biso   1.000  C
  C28      1.0000 0.81110  0.09690  0.28780  Biso   1.000  C
  C29      1.0000 0.80870  0.13100  0.20140  Biso   1.000  C
  C30      1.0000 0.89680  0.18330  0.11460  Biso   1.000  C
  C31      1.0000 0.95940  0.79670  0.58700  Biso   1.000  C
  C32      1.0000 0.90750  0.70620  0.62560  Biso   1.000  C
  C33      1.0000 0.81390  0.69230  0.63260  Biso   1.000  C
  C34      1.0000 0.77560  0.76840  0.59900  Biso   1.000  C
  C35      1.0000 0.83230  0.85880  0.55920  Biso   1.000  C
  C36      1.0000 0.75450  0.59620  0.67540  Biso   1.000  C
  C37      1.0000 0.57570  0.57230  0.79960  Biso   1.000  C
  C38      1.0000 0.69170  0.52170  0.85400  Biso   1.000  C
  C39      1.0000 0.59520  0.50610  0.93780  Biso   1.000  C
  C40      1.0000 0.57340  0.46990  0.03360  Biso   1.000  C
  C41      1.0000 0.47510  0.46540  0.09360  Biso   1.000  C
  C42      1.0000 0.09460  0.91660  0.61880  Biso   1.000  C
  C43      1.0000 0.09890  0.88470  0.71220  Biso   1.000  C
  C44      1.0000 0.01010  0.83240  0.79860  Biso   1.000  C
  C45      1.0000 0.01140  0.79790  0.88540  Biso   1.000  C
  C46      1.0000 0.45360  0.11630  0.58700  Biso   1.000  C
  C47      1.0000 0.46690  0.16820  0.62560  Biso   1.000  C
  C48      1.0000 0.55350  0.17510  0.63260  Biso   1.000  C
  C49      1.0000 0.62540  0.13260  0.59900  Biso   1.000  C
  C50      1.0000 0.60850  0.08200  0.55920  Biso   1.000  C
  C51      1.0000 0.57010  0.22840  0.67540  Biso   1.000  C
  C52      1.0000 0.62470  0.12810  0.79960  Biso   1.000  C
  C53      1.0000 0.45430  0.12430  0.85400  Biso   1.000  C
  C54      1.0000 0.46700  0.05610  0.93780  Biso   1.000  C
  C55      1.0000 0.39300  0.99650  0.03360  Biso   1.000  C
  C56      1.0000 0.43130  0.94100  0.09360  Biso   1.000  C
  C57      1.0000 0.28660  0.96460  0.61880  Biso   1.000  C
  C58      1.0000 0.18890  0.90310  0.71220  Biso   1.000  C
  C59      1.0000 0.19130  0.86900  0.79860  Biso   1.000  C
  C60      1.0000 0.10320  0.81670  0.88540  Biso   1.000  C
  N1       1.0000 0.07660  0.12750  0.44640  Biso   1.000  N
  N2       1.0000 0.32604  0.43854  0.22512  Biso   1.000  N
  N3       1.0000 0.47700  0.92610  0.44640  Biso   1.000  N
  N4       1.0000 0.44884  0.83634  0.22512  Biso   1.000  N
  N5       1.0000 0.92340  0.87250  0.55360  Biso   1.000  N
  N6       1.0000 0.67396  0.56146  0.77488  Biso   1.000  N
  N7       1.0000 0.52300  0.07390  0.55360  Biso   1.000  N
  N8       1.0000 0.55116  0.16366  0.77488  Biso   1.000  N
  O1       1.0000 0.97817  0.04717  0.38766  Biso   1.000  O
  O2       1.0000 0.83958  0.09598  0.44324  Biso   1.000  O
  O3       1.0000 0.45833  0.39483  0.25614  Biso   1.000  O
  O4       1.0000 0.22826  0.49416  0.14868  Biso   1.000  O
  O5       1.0000 0.63417  0.06517  0.38766  Biso   1.000  O
  O6       1.0000 0.71718  0.96078  0.44324  Biso   1.000  O
  O7       1.0000 0.28553  0.84903  0.25614  Biso   1.000  O
  O8       1.0000 0.62306  0.85716  0.14868  Biso   1.000  O
  O9       1.0000 0.02183  0.95283  0.61234  Biso   1.000  O
  O10      1.0000 0.16042  0.90402  0.55676  Biso   1.000  O
  O11      1.0000 0.54167  0.60517  0.74386  Biso   1.000  O
  O12      1.0000 0.77174  0.50584  0.85132  Biso   1.000  O
  O13      1.0000 0.36583  0.93483  0.61234  Biso   1.000  O
  O14      1.0000 0.28282  0.03922  0.55676  Biso   1.000  O
  O15      1.0000 0.71447  0.15097  0.74386  Biso   1.000  O
  O16      1.0000 0.37694  0.14284  0.85132  Biso   1.000  O
  Cu3      1.0000 0.50000  0.50000  0.50000  Biso   1.000  Cu
  Cu4      1.0000 0.00000  0.50000  0.50000  Biso   1.000  Cu
  H37      1.0000 0.52390  0.61050  0.58420  Biso   1.000  H
  H38      1.0000 0.43700  0.69800  0.64680  Biso   1.000  H
  H39      1.0000 0.21060  0.63710  0.60260  Biso   1.000  H
  H40      1.0000 0.30470  0.55300  0.53620  Biso   1.000  H
  H41      1.0000 0.22350  0.76710  0.63540  Biso   1.000  H
  H42      1.0000 0.30070  0.77060  0.67560  Biso   1.000  H
  H43      1.0000 0.12190  0.49420  0.05560  Biso   1.000  H
  H44      1.0000 0.44810  0.38140  0.79840  Biso   1.000  H
  H45      1.0000 0.45060  0.29360  0.94480  Biso   1.000  H
  H46      1.0000 0.89190  0.30530  0.58420  Biso   1.000  H
  H47      1.0000 0.91620  0.15520  0.64680  Biso   1.000  H
  H48      1.0000 0.18680  0.26030  0.60260  Biso   1.000  H
  H49      1.0000 0.15910  0.41080  0.53620  Biso   1.000  H
  H50      1.0000 0.14110  0.09750  0.63540  Biso   1.000  H
  H51      1.0000 0.02370  0.05380  0.67560  Biso   1.000  H
  H52      1.0000 0.82250  0.95020  0.05560  Biso   1.000  H
  H53      1.0000 0.75350  0.32020  0.79840  Biso   1.000  H
  H54      1.0000 0.60460  0.26160  0.94480  Biso   1.000  H
  H55      1.0000 0.47610  0.38950  0.41580  Biso   1.000  H
  H56      1.0000 0.56300  0.30200  0.35320  Biso   1.000  H
  H57      1.0000 0.78940  0.36290  0.39740  Biso   1.000  H
  H58      1.0000 0.69530  0.44700  0.46380  Biso   1.000  H
  H59      1.0000 0.77650  0.23290  0.36460  Biso   1.000  H
  H60      1.0000 0.69930  0.22940  0.32440  Biso   1.000  H
  H61      1.0000 0.87810  0.50580  0.94440  Biso   1.000  H
  H62      1.0000 0.55190  0.61860  0.20160  Biso   1.000  H
  H63      1.0000 0.54940  0.70640  0.05520  Biso   1.000  H
  H64      1.0000 0.10810  0.69470  0.41580  Biso   1.000  H
  H65      1.0000 0.08380  0.84480  0.35320  Biso   1.000  H
  H66      1.0000 0.81320  0.73970  0.39740  Biso   1.000  H
  H67      1.0000 0.84090  0.58920  0.46380  Biso   1.000  H
  H68      1.0000 0.85890  0.90250  0.36460  Biso   1.000  H
  H69      1.0000 0.97630  0.94620  0.32440  Biso   1.000  H
  H70      1.0000 0.17750  0.04980  0.94440  Biso   1.000  H
  H71      1.0000 0.24650  0.67980  0.20160  Biso   1.000  H
  H72      1.0000 0.39540  0.73840  0.05520  Biso   1.000  H
  C61      1.0000 0.45940  0.61630  0.58700  Biso   1.000  C
  C62      1.0000 0.40750  0.66820  0.62560  Biso   1.000  C
  C63      1.0000 0.31390  0.67510  0.63260  Biso   1.000  C
  C64      1.0000 0.27560  0.63260  0.59900  Biso   1.000  C
  C65      1.0000 0.33230  0.58200  0.55920  Biso   1.000  C
  C66      1.0000 0.25450  0.72840  0.67540  Biso   1.000  C
  C67      1.0000 0.07570  0.62810  0.79960  Biso   1.000  C
  C68      1.0000 0.19170  0.62430  0.85400  Biso   1.000  C
  C69      1.0000 0.09520  0.55610  0.93780  Biso   1.000  C
  C70      1.0000 0.07340  0.49650  0.03360  Biso   1.000  C
  C71      1.0000 0.97510  0.44100  0.09360  Biso   1.000  C
  C72      1.0000 0.59460  0.46460  0.61880  Biso   1.000  C
  C73      1.0000 0.59890  0.40310  0.71220  Biso   1.000  C
  C74      1.0000 0.51010  0.36900  0.79860  Biso   1.000  C
  C75      1.0000 0.51140  0.31670  0.88540  Biso   1.000  C
  C76      1.0000 0.95360  0.29670  0.58700  Biso   1.000  C
  C77      1.0000 0.96690  0.20620  0.62560  Biso   1.000  C
  C78      1.0000 0.05350  0.19230  0.63260  Biso   1.000  C
  C79      1.0000 0.12540  0.26840  0.59900  Biso   1.000  C
  C80      1.0000 0.10850  0.35880  0.55920  Biso   1.000  C
  C81      1.0000 0.07010  0.09620  0.67540  Biso   1.000  C
  C82      1.0000 0.12470  0.07230  0.79960  Biso   1.000  C
  C83      1.0000 0.95430  0.02170  0.85400  Biso   1.000  C
  C84      1.0000 0.96700  0.00610  0.93780  Biso   1.000  C
  C85      1.0000 0.89300  0.96990  0.03360  Biso   1.000  C
  C86      1.0000 0.93130  0.96540  0.09360  Biso   1.000  C
  C87      1.0000 0.78660  0.41660  0.61880  Biso   1.000  C
  C88      1.0000 0.68890  0.38470  0.71220  Biso   1.000  C
  C89      1.0000 0.69130  0.33240  0.79860  Biso   1.000  C
  C90      1.0000 0.60320  0.29790  0.88540  Biso   1.000  C
  C91      1.0000 0.54060  0.38370  0.41300  Biso   1.000  C
  C92      1.0000 0.59250  0.33180  0.37440  Biso   1.000  C
  C93      1.0000 0.68610  0.32490  0.36740  Biso   1.000  C
  C94      1.0000 0.72440  0.36740  0.40100  Biso   1.000  C
  C95      1.0000 0.66770  0.41800  0.44080  Biso   1.000  C
  C96      1.0000 0.74550  0.27160  0.32460  Biso   1.000  C
  C97      1.0000 0.92430  0.37190  0.20040  Biso   1.000  C
  C98      1.0000 0.80830  0.37570  0.14600  Biso   1.000  C
  C99      1.0000 0.90480  0.44390  0.06220  Biso   1.000  C
  C100     1.0000 0.92660  0.50350  0.96640  Biso   1.000  C
  C101     1.0000 0.02490  0.55900  0.90640  Biso   1.000  C
  C102     1.0000 0.40540  0.53540  0.38120  Biso   1.000  C
  C103     1.0000 0.40110  0.59690  0.28780  Biso   1.000  C
  C104     1.0000 0.48990  0.63100  0.20140  Biso   1.000  C
  C105     1.0000 0.48860  0.68330  0.11460  Biso   1.000  C
  C106     1.0000 0.04640  0.70330  0.41300  Biso   1.000  C
  C107     1.0000 0.03310  0.79380  0.37440  Biso   1.000  C
  C108     1.0000 0.94650  0.80770  0.36740  Biso   1.000  C
  C109     1.0000 0.87460  0.73160  0.40100  Biso   1.000  C
  C110     1.0000 0.89150  0.64120  0.44080  Biso   1.000  C
  C111     1.0000 0.92990  0.90380  0.32460  Biso   1.000  C
  C112     1.0000 0.87530  0.92770  0.20040  Biso   1.000  C
  C113     1.0000 0.04570  0.97830  0.14600  Biso   1.000  C
  C114     1.0000 0.03300  0.99390  0.06220  Biso   1.000  C
  C115     1.0000 0.10700  0.03010  0.96640  Biso   1.000  C
  C116     1.0000 0.06870  0.03460  0.90640  Biso   1.000  C
  C117     1.0000 0.21340  0.58340  0.38120  Biso   1.000  C
  C118     1.0000 0.31110  0.61530  0.28780  Biso   1.000  C
  C119     1.0000 0.30870  0.66760  0.20140  Biso   1.000  C
  C120     1.0000 0.39680  0.70210  0.11460  Biso   1.000  C
  N9       1.0000 0.42340  0.57390  0.55360  Biso   1.000  N
  N10      1.0000 0.17396  0.66366  0.77488  Biso   1.000  N
  N11      1.0000 0.02300  0.37250  0.55360  Biso   1.000  N
  N12      1.0000 0.05116  0.06146  0.77488  Biso   1.000  N
  N13      1.0000 0.57660  0.42610  0.44640  Biso   1.000  N
  N14      1.0000 0.82604  0.33634  0.22512  Biso   1.000  N
  N15      1.0000 0.97700  0.62750  0.44640  Biso   1.000  N
  N16      1.0000 0.94884  0.93854  0.22512  Biso   1.000  N
  O17      1.0000 0.52183  0.43483  0.61234  Biso   1.000  O
  O18      1.0000 0.66042  0.53922  0.55676  Biso   1.000  O
  O19      1.0000 0.04167  0.65097  0.74386  Biso   1.000  O
  O20      1.0000 0.27174  0.64284  0.85132  Biso   1.000  O
  O21      1.0000 0.86583  0.45283  0.61234  Biso   1.000  O
  O22      1.0000 0.78282  0.40402  0.55676  Biso   1.000  O
  O23      1.0000 0.21447  0.10517  0.74386  Biso   1.000  O
  O24      1.0000 0.87694  0.00584  0.85132  Biso   1.000  O
  O25      1.0000 0.47817  0.56517  0.38766  Biso   1.000  O
  O26      1.0000 0.33958  0.46078  0.44324  Biso   1.000  O
  O27      1.0000 0.95833  0.34903  0.25614  Biso   1.000  O
  O28      1.0000 0.72826  0.35716  0.14868  Biso   1.000  O
  O29      1.0000 0.13417  0.54717  0.38766  Biso   1.000  O
  O30      1.0000 0.21718  0.59598  0.44324  Biso   1.000  O
  O31      1.0000 0.78553  0.89483  0.25614  Biso   1.000  O
  O32      1.0000 0.12306  0.99416  0.14868  Biso   1.000  O
