data_image0
_cell_length_a       15.3107
_cell_length_b       16.7284
_cell_length_c       17.7882
_cell_angle_alpha    118.048
_cell_angle_beta     115.491
_cell_angle_gamma    89.9999

_symmetry_space_group_name_H-M    P 1
_symmetry_int_tables_number       1

loop_
  _symmetry_equiv_pos_as_xyz
  'x, y, z'

loop_
  _atom_site_label
  _atom_site_occupancy
  _atom_site_fract_x
  _atom_site_fract_y
  _atom_site_fract_z
  _atom_site_thermal_displace_type
  _atom_site_B_iso_or_equiv
  _atom_site_type_symbol
  Cu1      1.0000 0.00000  0.50000  0.50000  Biso   1.000  Cu
  Cu2      1.0000 0.50000  0.50000  0.50000  Biso   1.000  Cu
  H1       1.0000 0.10710  0.38800  0.58340  Biso   1.000  H
  H2       1.0000 0.08580  0.30220  0.64780  Biso   1.000  H
  H3       1.0000 0.81700  0.36080  0.60100  Biso   1.000  H
  H4       1.0000 0.84510  0.44590  0.53880  Biso   1.000  H
  H5       1.0000 0.98080  0.22760  0.67780  Biso   1.000  H
  H6       1.0000 0.86510  0.22870  0.63560  Biso   1.000  H
  H7       1.0000 0.17470  0.50670  0.06100  Biso   1.000  H
  H8       1.0000 0.74800  0.38260  0.20020  Biso   1.000  H
  H9       1.0000 0.60090  0.29260  0.05320  Biso   1.000  H
  H10      1.0000 0.94520  0.32380  0.26140  Biso   1.000  H
  H11      1.0000 0.05320  0.38350  0.30100  Biso   1.000  H
  H12      1.0000 0.03730  0.27650  0.27240  Biso   1.000  H
  H13      1.0000 0.05580  0.42170  0.43040  Biso   1.000  H
  H14      1.0000 0.47630  0.69540  0.58340  Biso   1.000  H
  H15      1.0000 0.56200  0.84560  0.64780  Biso   1.000  H
  H16      1.0000 0.78400  0.74020  0.60100  Biso   1.000  H
  H17      1.0000 0.69370  0.59290  0.53880  Biso   1.000  H
  H18      1.0000 0.69700  0.95020  0.67780  Biso   1.000  H
  H19      1.0000 0.77050  0.90690  0.63560  Biso   1.000  H
  H20      1.0000 0.88630  0.05430  0.06100  Biso   1.000  H
  H21      1.0000 0.45220  0.31760  0.20020  Biso   1.000  H
  H22      1.0000 0.45230  0.26060  0.05320  Biso   1.000  H
  H23      1.0000 0.31620  0.43760  0.26140  Biso   1.000  H
  H24      1.0000 0.24780  0.41750  0.30100  Biso   1.000  H
  H25      1.0000 0.23510  0.49590  0.27240  Biso   1.000  H
  H26      1.0000 0.37460  0.50870  0.43040  Biso   1.000  H
  H27      1.0000 0.89290  0.61200  0.41660  Biso   1.000  H
  H28      1.0000 0.91420  0.69780  0.35220  Biso   1.000  H
  H29      1.0000 0.18300  0.63920  0.39900  Biso   1.000  H
  H30      1.0000 0.15490  0.55410  0.46120  Biso   1.000  H
  H31      1.0000 0.01920  0.77240  0.32220  Biso   1.000  H
  H32      1.0000 0.13490  0.77130  0.36440  Biso   1.000  H
  H33      1.0000 0.82530  0.49330  0.93900  Biso   1.000  H
  H34      1.0000 0.25200  0.61740  0.79980  Biso   1.000  H
  H35      1.0000 0.39910  0.70740  0.94680  Biso   1.000  H
  H36      1.0000 0.05480  0.67620  0.73860  Biso   1.000  H
  H37      1.0000 0.94680  0.61650  0.69900  Biso   1.000  H
  H38      1.0000 0.96270  0.72350  0.72760  Biso   1.000  H
  H39      1.0000 0.94420  0.57830  0.56960  Biso   1.000  H
  H40      1.0000 0.52370  0.30460  0.41660  Biso   1.000  H
  H41      1.0000 0.43800  0.15440  0.35220  Biso   1.000  H
  H42      1.0000 0.21600  0.25980  0.39900  Biso   1.000  H
  H43      1.0000 0.30630  0.40710  0.46120  Biso   1.000  H
  H44      1.0000 0.30300  0.04980  0.32220  Biso   1.000  H
  H45      1.0000 0.22950  0.09310  0.36440  Biso   1.000  H
  H46      1.0000 0.11370  0.94570  0.93900  Biso   1.000  H
  H47      1.0000 0.54780  0.68240  0.79980  Biso   1.000  H
  H48      1.0000 0.54770  0.73940  0.94680  Biso   1.000  H
  H49      1.0000 0.68380  0.56240  0.73860  Biso   1.000  H
  H50      1.0000 0.75220  0.58250  0.69900  Biso   1.000  H
  H51      1.0000 0.76490  0.50410  0.72760  Biso   1.000  H
  H52      1.0000 0.62540  0.49130  0.56960  Biso   1.000  H
  C1       1.0000 0.04773  0.38273  0.58746  Biso   1.000  C
  C2       1.0000 0.03542  0.33122  0.62584  Biso   1.000  C
  C3       1.0000 0.94922  0.32212  0.63204  Biso   1.000  C
  C4       1.0000 0.87728  0.36588  0.59836  Biso   1.000  C
  C5       1.0000 0.89454  0.41634  0.56128  Biso   1.000  C
  C6       1.0000 0.93439  0.26869  0.67618  Biso   1.000  C
  C7       1.0000 0.04816  0.37556  0.85632  Biso   1.000  C
  C8       1.0000 0.87929  0.36959  0.79818  Biso   1.000  C
  C9       1.0000 0.03439  0.44379  0.94018  Biso   1.000  C
  C10      1.0000 0.10536  0.50396  0.03672  Biso   1.000  C
  C11      1.0000 0.06702  0.55972  0.09484  Biso   1.000  C
  C12      1.0000 0.78329  0.46759  0.38298  Biso   1.000  C
  C13      1.0000 0.68904  0.40524  0.28908  Biso   1.000  C
  C14      1.0000 0.68783  0.36983  0.20066  Biso   1.000  C
  C15      1.0000 0.60063  0.31623  0.11326  Biso   1.000  C
  C16      1.0000 0.01740  0.33450  0.30060  Biso   1.000  C
  C17      1.0000 0.53973  0.70473  0.58746  Biso   1.000  C
  C18      1.0000 0.59042  0.79462  0.62584  Biso   1.000  C
  C19      1.0000 0.68282  0.80992  0.63204  Biso   1.000  C
  C20      1.0000 0.72108  0.73248  0.59836  Biso   1.000  C
  C21      1.0000 0.66674  0.64494  0.56128  Biso   1.000  C
  C22      1.0000 0.74179  0.90749  0.67618  Biso   1.000  C
  C23      1.0000 0.80816  0.98076  0.85632  Biso   1.000  C
  C24      1.0000 0.91889  0.92859  0.79818  Biso   1.000  C
  C25      1.0000 0.90579  0.99639  0.94018  Biso   1.000  C
  C26      1.0000 0.93136  0.03276  0.03672  Biso   1.000  C
  C27      1.0000 0.02782  0.03512  0.09484  Biso   1.000  C
  C28      1.0000 0.59969  0.41539  0.38298  Biso   1.000  C
  C29      1.0000 0.60004  0.38384  0.28908  Biso   1.000  C
  C30      1.0000 0.51283  0.33083  0.20066  Biso   1.000  C
  C31      1.0000 0.51263  0.29703  0.11326  Biso   1.000  C
  C32      1.0000 0.28320  0.46610  0.30060  Biso   1.000  C
  C33      1.0000 0.95227  0.61727  0.41254  Biso   1.000  C
  C34      1.0000 0.96458  0.66878  0.37416  Biso   1.000  C
  C35      1.0000 0.05078  0.67788  0.36796  Biso   1.000  C
  C36      1.0000 0.12272  0.63412  0.40164  Biso   1.000  C
  C37      1.0000 0.10546  0.58366  0.43872  Biso   1.000  C
  C38      1.0000 0.06561  0.73131  0.32382  Biso   1.000  C
  C39      1.0000 0.95184  0.62444  0.14368  Biso   1.000  C
  C40      1.0000 0.12071  0.63041  0.20182  Biso   1.000  C
  C41      1.0000 0.96561  0.55621  0.05982  Biso   1.000  C
  C42      1.0000 0.89464  0.49604  0.96328  Biso   1.000  C
  C43      1.0000 0.93298  0.44028  0.90516  Biso   1.000  C
  C44      1.0000 0.21671  0.53241  0.61702  Biso   1.000  C
  C45      1.0000 0.31096  0.59476  0.71092  Biso   1.000  C
  C46      1.0000 0.31217  0.63017  0.79934  Biso   1.000  C
  C47      1.0000 0.39937  0.68377  0.88674  Biso   1.000  C
  C48      1.0000 0.98260  0.66550  0.69940  Biso   1.000  C
  C49      1.0000 0.46027  0.29527  0.41254  Biso   1.000  C
  C50      1.0000 0.40958  0.20538  0.37416  Biso   1.000  C
  C51      1.0000 0.31718  0.19008  0.36796  Biso   1.000  C
  C52      1.0000 0.27892  0.26752  0.40164  Biso   1.000  C
  C53      1.0000 0.33326  0.35506  0.43872  Biso   1.000  C
  C54      1.0000 0.25821  0.09251  0.32382  Biso   1.000  C
  C55      1.0000 0.19184  0.01924  0.14368  Biso   1.000  C
  C56      1.0000 0.08111  0.07141  0.20182  Biso   1.000  C
  C57      1.0000 0.09421  0.00361  0.05982  Biso   1.000  C
  C58      1.0000 0.06864  0.96724  0.96328  Biso   1.000  C
  C59      1.0000 0.97218  0.96488  0.90516  Biso   1.000  C
  C60      1.0000 0.40031  0.58461  0.61702  Biso   1.000  C
  C61      1.0000 0.39996  0.61616  0.71092  Biso   1.000  C
  C62      1.0000 0.48717  0.66917  0.79934  Biso   1.000  C
  C63      1.0000 0.48737  0.70297  0.88674  Biso   1.000  C
  C64      1.0000 0.71680  0.53390  0.69940  Biso   1.000  C
  N1       1.0000 0.97863  0.42593  0.55526  Biso   1.000  N
  N2       1.0000 0.95294  0.33394  0.77528  Biso   1.000  N
  N3       1.0000 0.57663  0.62933  0.55526  Biso   1.000  N
  N4       1.0000 0.82234  0.94134  0.77528  Biso   1.000  N
  N5       1.0000 0.02137  0.57407  0.44474  Biso   1.000  N
  N6       1.0000 0.04706  0.66606  0.22472  Biso   1.000  N
  N7       1.0000 0.42337  0.37067  0.44474  Biso   1.000  N
  N8       1.0000 0.17766  0.05866  0.22472  Biso   1.000  N
  O1       1.0000 0.12508  0.35848  0.85596  Biso   1.000  O
  O2       1.0000 0.79123  0.34673  0.74026  Biso   1.000  O
  O3       1.0000 0.86270  0.43955  0.39020  Biso   1.000  O
  O4       1.0000 0.77907  0.54290  0.44536  Biso   1.000  O
  O5       1.0000 0.04132  0.36292  0.39664  Biso   1.000  O
  O6       1.0000 0.73088  0.99748  0.85596  Biso   1.000  O
  O7       1.0000 0.94903  0.89353  0.74026  Biso   1.000  O
  O8       1.0000 0.52750  0.45065  0.39020  Biso   1.000  O
  O9       1.0000 0.66629  0.40246  0.44536  Biso   1.000  O
  O10      1.0000 0.35532  0.53372  0.39664  Biso   1.000  O
  O11      1.0000 0.87492  0.64152  0.14404  Biso   1.000  O
  O12      1.0000 0.20877  0.65327  0.25974  Biso   1.000  O
  O13      1.0000 0.13730  0.56045  0.60980  Biso   1.000  O
  O14      1.0000 0.22093  0.45710  0.55464  Biso   1.000  O
  O15      1.0000 0.95868  0.63708  0.60336  Biso   1.000  O
  O16      1.0000 0.26912  0.00252  0.14404  Biso   1.000  O
  O17      1.0000 0.05097  0.10647  0.25974  Biso   1.000  O
  O18      1.0000 0.47250  0.54935  0.60980  Biso   1.000  O
  O19      1.0000 0.33371  0.59754  0.55464  Biso   1.000  O
  O20      1.0000 0.64468  0.46628  0.60336  Biso   1.000  O
  Cu3      1.0000 0.50000  0.00000  0.50000  Biso   1.000  Cu
  Cu4      1.0000 0.00000  0.00000  0.50000  Biso   1.000  Cu
  H53      1.0000 0.39290  0.80460  0.41660  Biso   1.000  H
  H54      1.0000 0.41420  0.65440  0.35220  Biso   1.000  H
  H55      1.0000 0.68300  0.75980  0.39900  Biso   1.000  H
  H56      1.0000 0.65490  0.90710  0.46120  Biso   1.000  H
  H57      1.0000 0.51920  0.54980  0.32220  Biso   1.000  H
  H58      1.0000 0.63490  0.59310  0.36440  Biso   1.000  H
  H59      1.0000 0.32530  0.44570  0.93900  Biso   1.000  H
  H60      1.0000 0.75200  0.18240  0.79980  Biso   1.000  H
  H61      1.0000 0.89910  0.23940  0.94680  Biso   1.000  H
  H62      1.0000 0.55480  0.06240  0.73860  Biso   1.000  H
  H63      1.0000 0.44680  0.08250  0.69900  Biso   1.000  H
  H64      1.0000 0.46270  0.00410  0.72760  Biso   1.000  H
  H65      1.0000 0.44420  0.99130  0.56960  Biso   1.000  H
  H66      1.0000 0.02370  0.11200  0.41660  Biso   1.000  H
  H67      1.0000 0.93800  0.19780  0.35220  Biso   1.000  H
  H68      1.0000 0.71600  0.13920  0.39900  Biso   1.000  H
  H69      1.0000 0.80630  0.05410  0.46120  Biso   1.000  H
  H70      1.0000 0.80300  0.27240  0.32220  Biso   1.000  H
  H71      1.0000 0.72950  0.27130  0.36440  Biso   1.000  H
  H72      1.0000 0.61370  0.99330  0.93900  Biso   1.000  H
  H73      1.0000 0.04780  0.11740  0.79980  Biso   1.000  H
  H74      1.0000 0.04770  0.20740  0.94680  Biso   1.000  H
  H75      1.0000 0.18380  0.17620  0.73860  Biso   1.000  H
  H76      1.0000 0.25220  0.11650  0.69900  Biso   1.000  H
  H77      1.0000 0.26490  0.22350  0.72760  Biso   1.000  H
  H78      1.0000 0.12540  0.07830  0.56960  Biso   1.000  H
  H79      1.0000 0.60710  0.19540  0.58340  Biso   1.000  H
  H80      1.0000 0.58580  0.34560  0.64780  Biso   1.000  H
  H81      1.0000 0.31700  0.24020  0.60100  Biso   1.000  H
  H82      1.0000 0.34510  0.09290  0.53880  Biso   1.000  H
  H83      1.0000 0.48080  0.45020  0.67780  Biso   1.000  H
  H84      1.0000 0.36510  0.40690  0.63560  Biso   1.000  H
  H85      1.0000 0.67470  0.55430  0.06100  Biso   1.000  H
  H86      1.0000 0.24800  0.81760  0.20020  Biso   1.000  H
  H87      1.0000 0.10090  0.76060  0.05320  Biso   1.000  H
  H88      1.0000 0.44520  0.93760  0.26140  Biso   1.000  H
  H89      1.0000 0.55320  0.91750  0.30100  Biso   1.000  H
  H90      1.0000 0.53730  0.99590  0.27240  Biso   1.000  H
  H91      1.0000 0.55580  0.00870  0.43040  Biso   1.000  H
  H92      1.0000 0.97630  0.88800  0.58340  Biso   1.000  H
  H93      1.0000 0.06200  0.80220  0.64780  Biso   1.000  H
  H94      1.0000 0.28400  0.86080  0.60100  Biso   1.000  H
  H95      1.0000 0.19370  0.94590  0.53880  Biso   1.000  H
  H96      1.0000 0.19700  0.72760  0.67780  Biso   1.000  H
  H97      1.0000 0.27050  0.72870  0.63560  Biso   1.000  H
  H98      1.0000 0.38630  0.00670  0.06100  Biso   1.000  H
  H99      1.0000 0.95220  0.88260  0.20020  Biso   1.000  H
  H100     1.0000 0.95230  0.79260  0.05320  Biso   1.000  H
  H101     1.0000 0.81620  0.82380  0.26140  Biso   1.000  H
  H102     1.0000 0.74780  0.88350  0.30100  Biso   1.000  H
  H103     1.0000 0.73510  0.77650  0.27240  Biso   1.000  H
  H104     1.0000 0.87460  0.92170  0.43040  Biso   1.000  H
  C65      1.0000 0.45227  0.79527  0.41254  Biso   1.000  C
  C66      1.0000 0.46458  0.70538  0.37416  Biso   1.000  C
  C67      1.0000 0.55078  0.69008  0.36796  Biso   1.000  C
  C68      1.0000 0.62272  0.76752  0.40164  Biso   1.000  C
  C69      1.0000 0.60546  0.85506  0.43872  Biso   1.000  C
  C70      1.0000 0.56561  0.59251  0.32382  Biso   1.000  C
  C71      1.0000 0.45184  0.51924  0.14368  Biso   1.000  C
  C72      1.0000 0.62071  0.57141  0.20182  Biso   1.000  C
  C73      1.0000 0.46561  0.50361  0.05982  Biso   1.000  C
  C74      1.0000 0.39464  0.46724  0.96328  Biso   1.000  C
  C75      1.0000 0.43298  0.46488  0.90516  Biso   1.000  C
  C76      1.0000 0.71671  0.08461  0.61702  Biso   1.000  C
  C77      1.0000 0.81096  0.11616  0.71092  Biso   1.000  C
  C78      1.0000 0.81217  0.16917  0.79934  Biso   1.000  C
  C79      1.0000 0.89937  0.20297  0.88674  Biso   1.000  C
  C80      1.0000 0.48260  0.03390  0.69940  Biso   1.000  C
  C81      1.0000 0.96027  0.11727  0.41254  Biso   1.000  C
  C82      1.0000 0.90958  0.16878  0.37416  Biso   1.000  C
  C83      1.0000 0.81718  0.17788  0.36796  Biso   1.000  C
  C84      1.0000 0.77892  0.13412  0.40164  Biso   1.000  C
  C85      1.0000 0.83326  0.08366  0.43872  Biso   1.000  C
  C86      1.0000 0.75821  0.23131  0.32382  Biso   1.000  C
  C87      1.0000 0.69184  0.12444  0.14368  Biso   1.000  C
  C88      1.0000 0.58111  0.13041  0.20182  Biso   1.000  C
  C89      1.0000 0.59421  0.05621  0.05982  Biso   1.000  C
  C90      1.0000 0.56864  0.99604  0.96328  Biso   1.000  C
  C91      1.0000 0.47218  0.94028  0.90516  Biso   1.000  C
  C92      1.0000 0.90031  0.03241  0.61702  Biso   1.000  C
  C93      1.0000 0.89996  0.09476  0.71092  Biso   1.000  C
  C94      1.0000 0.98717  0.13017  0.79934  Biso   1.000  C
  C95      1.0000 0.98737  0.18377  0.88674  Biso   1.000  C
  C96      1.0000 0.21680  0.16550  0.69940  Biso   1.000  C
  C97      1.0000 0.54773  0.20473  0.58746  Biso   1.000  C
  C98      1.0000 0.53542  0.29462  0.62584  Biso   1.000  C
  C99      1.0000 0.44922  0.30992  0.63204  Biso   1.000  C
  C100     1.0000 0.37728  0.23248  0.59836  Biso   1.000  C
  C101     1.0000 0.39454  0.14494  0.56128  Biso   1.000  C
  C102     1.0000 0.43439  0.40749  0.67618  Biso   1.000  C
  C103     1.0000 0.54816  0.48076  0.85632  Biso   1.000  C
  C104     1.0000 0.37929  0.42859  0.79818  Biso   1.000  C
  C105     1.0000 0.53439  0.49639  0.94018  Biso   1.000  C
  C106     1.0000 0.60536  0.53276  0.03672  Biso   1.000  C
  C107     1.0000 0.56702  0.53512  0.09484  Biso   1.000  C
  C108     1.0000 0.28329  0.91539  0.38298  Biso   1.000  C
  C109     1.0000 0.18904  0.88384  0.28908  Biso   1.000  C
  C110     1.0000 0.18783  0.83083  0.20066  Biso   1.000  C
  C111     1.0000 0.10063  0.79703  0.11326  Biso   1.000  C
  C112     1.0000 0.51740  0.96610  0.30060  Biso   1.000  C
  C113     1.0000 0.03973  0.88273  0.58746  Biso   1.000  C
  C114     1.0000 0.09042  0.83122  0.62584  Biso   1.000  C
  C115     1.0000 0.18282  0.82212  0.63204  Biso   1.000  C
  C116     1.0000 0.22108  0.86588  0.59836  Biso   1.000  C
  C117     1.0000 0.16674  0.91634  0.56128  Biso   1.000  C
  C118     1.0000 0.24179  0.76869  0.67618  Biso   1.000  C
  C119     1.0000 0.30816  0.87556  0.85632  Biso   1.000  C
  C120     1.0000 0.41889  0.86959  0.79818  Biso   1.000  C
  C121     1.0000 0.40579  0.94379  0.94018  Biso   1.000  C
  C122     1.0000 0.43136  0.00396  0.03672  Biso   1.000  C
  C123     1.0000 0.52782  0.05972  0.09484  Biso   1.000  C
  C124     1.0000 0.09969  0.96759  0.38298  Biso   1.000  C
  C125     1.0000 0.10004  0.90524  0.28908  Biso   1.000  C
  C126     1.0000 0.01283  0.86983  0.20066  Biso   1.000  C
  C127     1.0000 0.01263  0.81623  0.11326  Biso   1.000  C
  C128     1.0000 0.78320  0.83450  0.30060  Biso   1.000  C
  N9       1.0000 0.52137  0.87067  0.44474  Biso   1.000  N
  N10      1.0000 0.54706  0.55866  0.22472  Biso   1.000  N
  N11      1.0000 0.92337  0.07407  0.44474  Biso   1.000  N
  N12      1.0000 0.67766  0.16606  0.22472  Biso   1.000  N
  N13      1.0000 0.47863  0.12933  0.55526  Biso   1.000  N
  N14      1.0000 0.45294  0.44134  0.77528  Biso   1.000  N
  N15      1.0000 0.07663  0.92593  0.55526  Biso   1.000  N
  N16      1.0000 0.32234  0.83394  0.77528  Biso   1.000  N
  O21      1.0000 0.37492  0.50252  0.14404  Biso   1.000  O
  O22      1.0000 0.70877  0.60647  0.25974  Biso   1.000  O
  O23      1.0000 0.63730  0.04935  0.60980  Biso   1.000  O
  O24      1.0000 0.72093  0.09754  0.55464  Biso   1.000  O
  O25      1.0000 0.45868  0.96628  0.60336  Biso   1.000  O
  O26      1.0000 0.76912  0.14152  0.14404  Biso   1.000  O
  O27      1.0000 0.55097  0.15327  0.25974  Biso   1.000  O
  O28      1.0000 0.97250  0.06045  0.60980  Biso   1.000  O
  O29      1.0000 0.83371  0.95710  0.55464  Biso   1.000  O
  O30      1.0000 0.14468  0.13708  0.60336  Biso   1.000  O
  O31      1.0000 0.62508  0.49748  0.85596  Biso   1.000  O
  O32      1.0000 0.29123  0.39353  0.74026  Biso   1.000  O
  O33      1.0000 0.36270  0.95065  0.39020  Biso   1.000  O
  O34      1.0000 0.27907  0.90246  0.44536  Biso   1.000  O
  O35      1.0000 0.54132  0.03372  0.39664  Biso   1.000  O
  O36      1.0000 0.23088  0.85848  0.85596  Biso   1.000  O
  O37      1.0000 0.44903  0.84673  0.74026  Biso   1.000  O
  O38      1.0000 0.02750  0.93955  0.39020  Biso   1.000  O
  O39      1.0000 0.16629  0.04290  0.44536  Biso   1.000  O
  O40      1.0000 0.85532  0.86292  0.39664  Biso   1.000  O
