data_image0
_cell_length_a       15.2841
_cell_length_b       16.7279
_cell_length_c       17.8374
_cell_angle_alpha    117.963
_cell_angle_beta     115.368
_cell_angle_gamma    90

_symmetry_space_group_name_H-M    P 1
_symmetry_int_tables_number       1

loop_
  _symmetry_equiv_pos_as_xyz
  'x, y, z'

loop_
  _atom_site_label
  _atom_site_occupancy
  _atom_site_fract_x
  _atom_site_fract_y
  _atom_site_fract_z
  _atom_site_thermal_displace_type
  _atom_site_B_iso_or_equiv
  _atom_site_type_symbol
  Cu1      1.0000 0.50000  0.00000  0.50000  Biso   1.000  Cu
  Cu2      1.0000 0.00000  0.00000  0.50000  Biso   1.000  Cu
  H1       1.0000 0.60710  0.88960  0.58400  Biso   1.000  H
  H2       1.0000 0.58470  0.80110  0.64720  Biso   1.000  H
  H3       1.0000 0.31670  0.86100  0.60160  Biso   1.000  H
  H4       1.0000 0.34580  0.94620  0.53800  Biso   1.000  H
  H5       1.0000 0.48020  0.72830  0.67820  Biso   1.000  H
  H6       1.0000 0.36460  0.73030  0.63680  Biso   1.000  H
  H7       1.0000 0.32540  0.99270  0.93900  Biso   1.000  H
  H8       1.0000 0.24880  0.88260  0.20160  Biso   1.000  H
  H9       1.0000 0.10100  0.79420  0.05460  Biso   1.000  H
  H10      1.0000 0.97690  0.19440  0.58400  Biso   1.000  H
  H11      1.0000 0.06250  0.34610  0.64720  Biso   1.000  H
  H12      1.0000 0.28490  0.24060  0.60160  Biso   1.000  H
  H13      1.0000 0.19220  0.09180  0.53800  Biso   1.000  H
  H14      1.0000 0.19800  0.44990  0.67820  Biso   1.000  H
  H15      1.0000 0.27220  0.40650  0.63680  Biso   1.000  H
  H16      1.0000 0.61360  0.44630  0.93900  Biso   1.000  H
  H17      1.0000 0.95280  0.81900  0.20160  Biso   1.000  H
  H18      1.0000 0.95360  0.76040  0.05460  Biso   1.000  H
  H19      1.0000 0.39290  0.11040  0.41600  Biso   1.000  H
  H20      1.0000 0.41530  0.19890  0.35280  Biso   1.000  H
  H21      1.0000 0.68330  0.13900  0.39840  Biso   1.000  H
  H22      1.0000 0.65420  0.05380  0.46200  Biso   1.000  H
  H23      1.0000 0.51980  0.27170  0.32180  Biso   1.000  H
  H24      1.0000 0.63540  0.26970  0.36320  Biso   1.000  H
  H25      1.0000 0.67460  0.00730  0.06100  Biso   1.000  H
  H26      1.0000 0.75120  0.11740  0.79840  Biso   1.000  H
  H27      1.0000 0.89900  0.20580  0.94540  Biso   1.000  H
  H28      1.0000 0.02310  0.80560  0.41600  Biso   1.000  H
  H29      1.0000 0.93750  0.65390  0.35280  Biso   1.000  H
  H30      1.0000 0.71510  0.75940  0.39840  Biso   1.000  H
  H31      1.0000 0.80780  0.90820  0.46200  Biso   1.000  H
  H32      1.0000 0.80200  0.55010  0.32180  Biso   1.000  H
  H33      1.0000 0.72780  0.59350  0.36320  Biso   1.000  H
  H34      1.0000 0.38640  0.55370  0.06100  Biso   1.000  H
  H35      1.0000 0.04720  0.18100  0.79840  Biso   1.000  H
  H36      1.0000 0.04640  0.23960  0.94540  Biso   1.000  H
  C1       1.0000 0.54739  0.88349  0.58758  Biso   1.000  C
  C2       1.0000 0.53496  0.83106  0.62612  Biso   1.000  C
  C3       1.0000 0.44927  0.82367  0.63294  Biso   1.000  C
  C4       1.0000 0.37720  0.86620  0.59900  Biso   1.000  C
  C5       1.0000 0.39507  0.91677  0.56094  Biso   1.000  C
  C6       1.0000 0.43406  0.76976  0.67692  Biso   1.000  C
  C7       1.0000 0.37951  0.87011  0.79882  Biso   1.000  C
  C8       1.0000 0.43359  0.94049  0.90598  Biso   1.000  C
  C9       1.0000 0.53455  0.94365  0.93970  Biso   1.000  C
  C10      1.0000 0.54763  0.87593  0.85626  Biso   1.000  C
  C11      1.0000 0.39481  0.99571  0.96342  Biso   1.000  C
  C12      1.0000 0.28237  0.96747  0.38254  Biso   1.000  C
  C13      1.0000 0.18981  0.90521  0.29042  Biso   1.000  C
  C14      1.0000 0.18856  0.87006  0.20212  Biso   1.000  C
  C15      1.0000 0.10060  0.81680  0.11420  Biso   1.000  C
  C16      1.0000 0.04019  0.20409  0.58758  Biso   1.000  C
  C17      1.0000 0.09116  0.29506  0.62612  Biso   1.000  C
  C18      1.0000 0.18367  0.30927  0.63294  Biso   1.000  C
  C19      1.0000 0.22180  0.23280  0.59900  Biso   1.000  C
  C20      1.0000 0.16587  0.14417  0.56094  Biso   1.000  C
  C21      1.0000 0.24286  0.40716  0.67692  Biso   1.000  C
  C22      1.0000 0.41931  0.42871  0.79882  Biso   1.000  C
  C23      1.0000 0.47239  0.46549  0.90598  Biso   1.000  C
  C24      1.0000 0.40515  0.49605  0.93970  Biso   1.000  C
  C25      1.0000 0.30863  0.48033  0.85626  Biso   1.000  C
  C26      1.0000 0.56861  0.46771  0.96342  Biso   1.000  C
  C27      1.0000 0.10017  0.91507  0.38254  Biso   1.000  C
  C28      1.0000 0.10061  0.88521  0.29042  Biso   1.000  C
  C29      1.0000 0.01356  0.83206  0.20212  Biso   1.000  C
  C30      1.0000 0.01360  0.79740  0.11420  Biso   1.000  C
  C31      1.0000 0.45261  0.11651  0.41242  Biso   1.000  C
  C32      1.0000 0.46504  0.16894  0.37388  Biso   1.000  C
  C33      1.0000 0.55073  0.17633  0.36706  Biso   1.000  C
  C34      1.0000 0.62280  0.13380  0.40100  Biso   1.000  C
  C35      1.0000 0.60493  0.08323  0.43906  Biso   1.000  C
  C36      1.0000 0.56594  0.23024  0.32308  Biso   1.000  C
  C37      1.0000 0.62049  0.12989  0.20118  Biso   1.000  C
  C38      1.0000 0.56641  0.05951  0.09402  Biso   1.000  C
  C39      1.0000 0.46545  0.05635  0.06030  Biso   1.000  C
  C40      1.0000 0.45237  0.12407  0.14374  Biso   1.000  C
  C41      1.0000 0.60519  0.00429  0.03658  Biso   1.000  C
  C42      1.0000 0.71763  0.03253  0.61746  Biso   1.000  C
  C43      1.0000 0.81019  0.09479  0.70958  Biso   1.000  C
  C44      1.0000 0.81144  0.12994  0.79788  Biso   1.000  C
  C45      1.0000 0.89940  0.18320  0.88580  Biso   1.000  C
  C46      1.0000 0.95981  0.79591  0.41242  Biso   1.000  C
  C47      1.0000 0.90884  0.70494  0.37388  Biso   1.000  C
  C48      1.0000 0.81633  0.69073  0.36706  Biso   1.000  C
  C49      1.0000 0.77820  0.76720  0.40100  Biso   1.000  C
  C50      1.0000 0.83413  0.85583  0.43906  Biso   1.000  C
  C51      1.0000 0.75714  0.59284  0.32308  Biso   1.000  C
  C52      1.0000 0.58069  0.57129  0.20118  Biso   1.000  C
  C53      1.0000 0.52761  0.53451  0.09402  Biso   1.000  C
  C54      1.0000 0.59485  0.50395  0.06030  Biso   1.000  C
  C55      1.0000 0.69137  0.51967  0.14374  Biso   1.000  C
  C56      1.0000 0.43139  0.53229  0.03658  Biso   1.000  C
  C57      1.0000 0.89983  0.08493  0.61746  Biso   1.000  C
  C58      1.0000 0.89939  0.11479  0.70958  Biso   1.000  C
  C59      1.0000 0.98644  0.16794  0.79788  Biso   1.000  C
  C60      1.0000 0.98640  0.20260  0.88580  Biso   1.000  C
  N1       1.0000 0.47813  0.92543  0.55546  Biso   1.000  N
  N2       1.0000 0.45295  0.83495  0.77570  Biso   1.000  N
  N3       1.0000 0.07733  0.13003  0.55546  Biso   1.000  N
  N4       1.0000 0.32275  0.44075  0.77570  Biso   1.000  N
  N5       1.0000 0.52187  0.07457  0.44454  Biso   1.000  N
  N6       1.0000 0.54705  0.16505  0.22430  Biso   1.000  N
  N7       1.0000 0.92267  0.86997  0.44454  Biso   1.000  N
  N8       1.0000 0.67725  0.55925  0.22430  Biso   1.000  N
  O1       1.0000 0.62470  0.85880  0.85560  Biso   1.000  O
  O2       1.0000 0.29141  0.84761  0.74202  Biso   1.000  O
  O3       1.0000 0.36232  0.93932  0.39024  Biso   1.000  O
  O4       1.0000 0.27945  0.04235  0.44510  Biso   1.000  O
  O5       1.0000 0.23090  0.49680  0.85560  Biso   1.000  O
  O6       1.0000 0.45061  0.39441  0.74202  Biso   1.000  O
  O7       1.0000 0.02792  0.95092  0.39024  Biso   1.000  O
  O8       1.0000 0.16565  0.90275  0.44510  Biso   1.000  O
  O9       1.0000 0.37530  0.14120  0.14440  Biso   1.000  O
  O10      1.0000 0.70859  0.15239  0.25798  Biso   1.000  O
  O11      1.0000 0.63768  0.06068  0.60976  Biso   1.000  O
  O12      1.0000 0.72055  0.95765  0.55490  Biso   1.000  O
  O13      1.0000 0.76910  0.50320  0.14440  Biso   1.000  O
  O14      1.0000 0.54939  0.60559  0.25798  Biso   1.000  O
  O15      1.0000 0.97208  0.04908  0.60976  Biso   1.000  O
  O16      1.0000 0.83435  0.09725  0.55490  Biso   1.000  O
  Cu3      1.0000 0.00000  0.50000  0.50000  Biso   1.000  Cu
  Cu4      1.0000 0.50000  0.50000  0.50000  Biso   1.000  Cu
  H37      1.0000 0.89290  0.30560  0.41600  Biso   1.000  H
  H38      1.0000 0.91530  0.15390  0.35280  Biso   1.000  H
  H39      1.0000 0.18330  0.25940  0.39840  Biso   1.000  H
  H40      1.0000 0.15420  0.40820  0.46200  Biso   1.000  H
  H41      1.0000 0.01980  0.05010  0.32180  Biso   1.000  H
  H42      1.0000 0.13540  0.09350  0.36320  Biso   1.000  H
  H43      1.0000 0.17460  0.05370  0.06100  Biso   1.000  H
  H44      1.0000 0.25120  0.68100  0.79840  Biso   1.000  H
  H45      1.0000 0.39900  0.73960  0.94540  Biso   1.000  H
  H46      1.0000 0.52310  0.61040  0.41600  Biso   1.000  H
  H47      1.0000 0.43750  0.69890  0.35280  Biso   1.000  H
  H48      1.0000 0.21510  0.63900  0.39840  Biso   1.000  H
  H49      1.0000 0.30780  0.55380  0.46200  Biso   1.000  H
  H50      1.0000 0.30200  0.77170  0.32180  Biso   1.000  H
  H51      1.0000 0.22780  0.76970  0.36320  Biso   1.000  H
  H52      1.0000 0.88640  0.50730  0.06100  Biso   1.000  H
  H53      1.0000 0.54720  0.61740  0.79840  Biso   1.000  H
  H54      1.0000 0.54640  0.70580  0.94540  Biso   1.000  H
  H55      1.0000 0.10710  0.69440  0.58400  Biso   1.000  H
  H56      1.0000 0.08470  0.84610  0.64720  Biso   1.000  H
  H57      1.0000 0.81670  0.74060  0.60160  Biso   1.000  H
  H58      1.0000 0.84580  0.59180  0.53800  Biso   1.000  H
  H59      1.0000 0.98020  0.94990  0.67820  Biso   1.000  H
  H60      1.0000 0.86460  0.90650  0.63680  Biso   1.000  H
  H61      1.0000 0.82540  0.94630  0.93900  Biso   1.000  H
  H62      1.0000 0.74880  0.31900  0.20160  Biso   1.000  H
  H63      1.0000 0.60100  0.26040  0.05460  Biso   1.000  H
  H64      1.0000 0.47690  0.38960  0.58400  Biso   1.000  H
  H65      1.0000 0.56250  0.30110  0.64720  Biso   1.000  H
  H66      1.0000 0.78490  0.36100  0.60160  Biso   1.000  H
  H67      1.0000 0.69220  0.44620  0.53800  Biso   1.000  H
  H68      1.0000 0.69800  0.22830  0.67820  Biso   1.000  H
  H69      1.0000 0.77220  0.23030  0.63680  Biso   1.000  H
  H70      1.0000 0.11360  0.49270  0.93900  Biso   1.000  H
  H71      1.0000 0.45280  0.38260  0.20160  Biso   1.000  H
  H72      1.0000 0.45360  0.29420  0.05460  Biso   1.000  H
  C61      1.0000 0.95261  0.29591  0.41242  Biso   1.000  C
  C62      1.0000 0.96504  0.20494  0.37388  Biso   1.000  C
  C63      1.0000 0.05073  0.19073  0.36706  Biso   1.000  C
  C64      1.0000 0.12280  0.26720  0.40100  Biso   1.000  C
  C65      1.0000 0.10493  0.35583  0.43906  Biso   1.000  C
  C66      1.0000 0.06594  0.09284  0.32308  Biso   1.000  C
  C67      1.0000 0.12049  0.07129  0.20118  Biso   1.000  C
  C68      1.0000 0.06641  0.03451  0.09402  Biso   1.000  C
  C69      1.0000 0.96545  0.00395  0.06030  Biso   1.000  C
  C70      1.0000 0.95237  0.01967  0.14374  Biso   1.000  C
  C71      1.0000 0.10519  0.03229  0.03658  Biso   1.000  C
  C72      1.0000 0.21763  0.58493  0.61746  Biso   1.000  C
  C73      1.0000 0.31019  0.61479  0.70958  Biso   1.000  C
  C74      1.0000 0.31144  0.66794  0.79788  Biso   1.000  C
  C75      1.0000 0.39940  0.70260  0.88580  Biso   1.000  C
  C76      1.0000 0.45981  0.61651  0.41242  Biso   1.000  C
  C77      1.0000 0.40884  0.66894  0.37388  Biso   1.000  C
  C78      1.0000 0.31633  0.67633  0.36706  Biso   1.000  C
  C79      1.0000 0.27820  0.63380  0.40100  Biso   1.000  C
  C80      1.0000 0.33413  0.58323  0.43906  Biso   1.000  C
  C81      1.0000 0.25714  0.73024  0.32308  Biso   1.000  C
  C82      1.0000 0.08069  0.62989  0.20118  Biso   1.000  C
  C83      1.0000 0.02761  0.55951  0.09402  Biso   1.000  C
  C84      1.0000 0.09485  0.55635  0.06030  Biso   1.000  C
  C85      1.0000 0.19137  0.62407  0.14374  Biso   1.000  C
  C86      1.0000 0.93139  0.50429  0.03658  Biso   1.000  C
  C87      1.0000 0.39983  0.53253  0.61746  Biso   1.000  C
  C88      1.0000 0.39939  0.59479  0.70958  Biso   1.000  C
  C89      1.0000 0.48644  0.62994  0.79788  Biso   1.000  C
  C90      1.0000 0.48640  0.68320  0.88580  Biso   1.000  C
  C91      1.0000 0.04739  0.70409  0.58758  Biso   1.000  C
  C92      1.0000 0.03496  0.79506  0.62612  Biso   1.000  C
  C93      1.0000 0.94927  0.80927  0.63294  Biso   1.000  C
  C94      1.0000 0.87720  0.73280  0.59900  Biso   1.000  C
  C95      1.0000 0.89507  0.64417  0.56094  Biso   1.000  C
  C96      1.0000 0.93406  0.90716  0.67692  Biso   1.000  C
  C97      1.0000 0.87951  0.92871  0.79882  Biso   1.000  C
  C98      1.0000 0.93359  0.96549  0.90598  Biso   1.000  C
  C99      1.0000 0.03455  0.99605  0.93970  Biso   1.000  C
  C100     1.0000 0.04763  0.98033  0.85626  Biso   1.000  C
  C101     1.0000 0.89481  0.96771  0.96342  Biso   1.000  C
  C102     1.0000 0.78237  0.41507  0.38254  Biso   1.000  C
  C103     1.0000 0.68981  0.38521  0.29042  Biso   1.000  C
  C104     1.0000 0.68856  0.33206  0.20212  Biso   1.000  C
  C105     1.0000 0.60060  0.29740  0.11420  Biso   1.000  C
  C106     1.0000 0.54019  0.38349  0.58758  Biso   1.000  C
  C107     1.0000 0.59116  0.33106  0.62612  Biso   1.000  C
  C108     1.0000 0.68367  0.32367  0.63294  Biso   1.000  C
  C109     1.0000 0.72180  0.36620  0.59900  Biso   1.000  C
  C110     1.0000 0.66587  0.41677  0.56094  Biso   1.000  C
  C111     1.0000 0.74286  0.26976  0.67692  Biso   1.000  C
  C112     1.0000 0.91931  0.37011  0.79882  Biso   1.000  C
  C113     1.0000 0.97239  0.44049  0.90598  Biso   1.000  C
  C114     1.0000 0.90515  0.44365  0.93970  Biso   1.000  C
  C115     1.0000 0.80863  0.37593  0.85626  Biso   1.000  C
  C116     1.0000 0.06861  0.49571  0.96342  Biso   1.000  C
  C117     1.0000 0.60017  0.46747  0.38254  Biso   1.000  C
  C118     1.0000 0.60061  0.40521  0.29042  Biso   1.000  C
  C119     1.0000 0.51356  0.37006  0.20212  Biso   1.000  C
  C120     1.0000 0.51360  0.31680  0.11420  Biso   1.000  C
  N9       1.0000 0.02187  0.36997  0.44454  Biso   1.000  N
  N10      1.0000 0.04705  0.05925  0.22430  Biso   1.000  N
  N11      1.0000 0.42267  0.57457  0.44454  Biso   1.000  N
  N12      1.0000 0.17725  0.66505  0.22430  Biso   1.000  N
  N13      1.0000 0.97813  0.63003  0.55546  Biso   1.000  N
  N14      1.0000 0.95295  0.94075  0.77570  Biso   1.000  N
  N15      1.0000 0.57733  0.42543  0.55546  Biso   1.000  N
  N16      1.0000 0.82275  0.33495  0.77570  Biso   1.000  N
  O17      1.0000 0.87530  0.00320  0.14440  Biso   1.000  O
  O18      1.0000 0.20859  0.10559  0.25798  Biso   1.000  O
  O19      1.0000 0.13768  0.54908  0.60976  Biso   1.000  O
  O20      1.0000 0.22055  0.59725  0.55490  Biso   1.000  O
  O21      1.0000 0.26910  0.64120  0.14440  Biso   1.000  O
  O22      1.0000 0.04939  0.65239  0.25798  Biso   1.000  O
  O23      1.0000 0.47208  0.56068  0.60976  Biso   1.000  O
  O24      1.0000 0.33435  0.45765  0.55490  Biso   1.000  O
  O25      1.0000 0.12470  0.99680  0.85560  Biso   1.000  O
  O26      1.0000 0.79141  0.89441  0.74202  Biso   1.000  O
  O27      1.0000 0.86232  0.45092  0.39024  Biso   1.000  O
  O28      1.0000 0.77945  0.40275  0.44510  Biso   1.000  O
  O29      1.0000 0.73090  0.35880  0.85560  Biso   1.000  O
  O30      1.0000 0.95061  0.34761  0.74202  Biso   1.000  O
  O31      1.0000 0.52792  0.43932  0.39024  Biso   1.000  O
  O32      1.0000 0.66565  0.54235  0.44510  Biso   1.000  O
