data_image0
_cell_length_a       7.94199
_cell_length_b       8.4643
_cell_length_c       19.644
_cell_angle_alpha    87.8699
_cell_angle_beta     85.4559
_cell_angle_gamma    62.0211

_symmetry_space_group_name_H-M    P 1
_symmetry_int_tables_number       1

loop_
  _symmetry_equiv_pos_as_xyz
  'x, y, z'

loop_
  _atom_site_label
  _atom_site_occupancy
  _atom_site_fract_x
  _atom_site_fract_y
  _atom_site_fract_z
  _atom_site_thermal_displace_type
  _atom_site_B_iso_or_equiv
  _atom_site_type_symbol
  Tb1      1.0000 0.79345  0.92574  0.48774  Biso   1.000  Tb
  Tb2      1.0000 0.28081  0.92574  0.01226  Biso   1.000  Tb
  Tb3      1.0000 0.20655  0.07426  0.51226  Biso   1.000  Tb
  Tb4      1.0000 0.71919  0.07426  0.98774  Biso   1.000  Tb
  H1       1.0000 0.83920  0.60080  0.56420  Biso   1.000  H
  H2       1.0000 0.65050  0.72560  0.57520  Biso   1.000  H
  H3       1.0000 0.24470  0.53380  0.32180  Biso   1.000  H
  H4       1.0000 0.05570  0.55160  0.29520  Biso   1.000  H
  H5       1.0000 0.00970  0.80680  0.23450  Biso   1.000  H
  H6       1.0000 0.67880  0.52900  0.46100  Biso   1.000  H
  H7       1.0000 0.85120  0.43920  0.40650  Biso   1.000  H
  H8       1.0000 0.64080  0.45680  0.32530  Biso   1.000  H
  H9       1.0000 0.46800  0.54600  0.37980  Biso   1.000  H
  H10      1.0000 0.50590  0.75980  0.30240  Biso   1.000  H
  H11      1.0000 0.69640  0.71400  0.33620  Biso   1.000  H
  H12      1.0000 0.56000  0.60080  0.93580  Biso   1.000  H
  H13      1.0000 0.62390  0.72560  0.92480  Biso   1.000  H
  H14      1.0000 0.22150  0.53380  0.17820  Biso   1.000  H
  H15      1.0000 0.39270  0.55160  0.20480  Biso   1.000  H
  H16      1.0000 0.18350  0.80680  0.26550  Biso   1.000  H
  H17      1.0000 0.79220  0.52900  0.03900  Biso   1.000  H
  H18      1.0000 0.70960  0.43920  0.09350  Biso   1.000  H
  H19      1.0000 0.90240  0.45680  0.17470  Biso   1.000  H
  H20      1.0000 0.98600  0.54600  0.12020  Biso   1.000  H
  H21      1.0000 0.73430  0.75980  0.19760  Biso   1.000  H
  H22      1.0000 0.58960  0.71400  0.16380  Biso   1.000  H
  H23      1.0000 0.16080  0.39920  0.43580  Biso   1.000  H
  H24      1.0000 0.34950  0.27440  0.42480  Biso   1.000  H
  H25      1.0000 0.75530  0.46620  0.67820  Biso   1.000  H
  H26      1.0000 0.94430  0.44840  0.70480  Biso   1.000  H
  H27      1.0000 0.99030  0.19320  0.76550  Biso   1.000  H
  H28      1.0000 0.32120  0.47100  0.53900  Biso   1.000  H
  H29      1.0000 0.14880  0.56080  0.59350  Biso   1.000  H
  H30      1.0000 0.35920  0.54320  0.67470  Biso   1.000  H
  H31      1.0000 0.53200  0.45400  0.62020  Biso   1.000  H
  H32      1.0000 0.49410  0.24020  0.69760  Biso   1.000  H
  H33      1.0000 0.30360  0.28600  0.66380  Biso   1.000  H
  H34      1.0000 0.44000  0.39920  0.06420  Biso   1.000  H
  H35      1.0000 0.37610  0.27440  0.07520  Biso   1.000  H
  H36      1.0000 0.77850  0.46620  0.82180  Biso   1.000  H
  H37      1.0000 0.60730  0.44840  0.79520  Biso   1.000  H
  H38      1.0000 0.81650  0.19320  0.73450  Biso   1.000  H
  H39      1.0000 0.20780  0.47100  0.96100  Biso   1.000  H
  H40      1.0000 0.29040  0.56080  0.90650  Biso   1.000  H
  H41      1.0000 0.09760  0.54320  0.82530  Biso   1.000  H
  H42      1.0000 0.01400  0.45400  0.87980  Biso   1.000  H
  H43      1.0000 0.26570  0.24020  0.80240  Biso   1.000  H
  H44      1.0000 0.41040  0.28600  0.83620  Biso   1.000  H
  C1       1.0000 0.00600  0.72660  0.37190  Biso   1.000  C
  C2       1.0000 0.11730  0.61900  0.30960  Biso   1.000  C
  C3       1.0000 0.75250  0.26920  0.44380  Biso   1.000  C
  C4       1.0000 0.72720  0.44980  0.42180  Biso   1.000  C
  C5       1.0000 0.59260  0.53460  0.36490  Biso   1.000  C
  C6       1.0000 0.57090  0.72120  0.34430  Biso   1.000  C
  C7       1.0000 0.45940  0.85380  0.39960  Biso   1.000  C
  C8       1.0000 0.26740  0.72660  0.12810  Biso   1.000  C
  C9       1.0000 0.26370  0.61900  0.19040  Biso   1.000  C
  C10      1.0000 0.97830  0.26920  0.05620  Biso   1.000  C
  C11      1.0000 0.82300  0.44980  0.07820  Biso   1.000  C
  C12      1.0000 0.87280  0.53460  0.13510  Biso   1.000  C
  C13      1.0000 0.70790  0.72120  0.15570  Biso   1.000  C
  C14      1.0000 0.68680  0.85380  0.10040  Biso   1.000  C
  C15      1.0000 0.99400  0.27340  0.62810  Biso   1.000  C
  C16      1.0000 0.88270  0.38100  0.69040  Biso   1.000  C
  C17      1.0000 0.24750  0.73080  0.55620  Biso   1.000  C
  C18      1.0000 0.27280  0.55020  0.57820  Biso   1.000  C
  C19      1.0000 0.40740  0.46540  0.63510  Biso   1.000  C
  C20      1.0000 0.42910  0.27880  0.65570  Biso   1.000  C
  C21      1.0000 0.54060  0.14620  0.60040  Biso   1.000  C
  C22      1.0000 0.73260  0.27340  0.87190  Biso   1.000  C
  C23      1.0000 0.73630  0.38100  0.80960  Biso   1.000  C
  C24      1.0000 0.02170  0.73080  0.94380  Biso   1.000  C
  C25      1.0000 0.17700  0.55020  0.92180  Biso   1.000  C
  C26      1.0000 0.12720  0.46540  0.86490  Biso   1.000  C
  C27      1.0000 0.29210  0.27880  0.84430  Biso   1.000  C
  C28      1.0000 0.31320  0.14620  0.89960  Biso   1.000  C
  C29      1.0000 0.13440  0.73120  0.25000  Biso   1.000  C
  C30      1.0000 0.86560  0.26880  0.75000  Biso   1.000  C
  O1       1.0000 0.90670  0.89220  0.36920  Biso   1.000  O
  O2       1.0000 0.01110  0.64480  0.42830  Biso   1.000  O
  O3       1.0000 0.61930  0.22660  0.44130  Biso   1.000  O
  O4       1.0000 0.91040  0.15560  0.46640  Biso   1.000  O
  O5       1.0000 0.53900  0.91040  0.43940  Biso   1.000  O
  O6       1.0000 0.28200  0.90580  0.40830  Biso   1.000  O
  O7       1.0000 0.76050  0.71100  0.56060  Biso   1.000  O
  O8       1.0000 0.20110  0.89220  0.13080  Biso   1.000  O
  O9       1.0000 0.34410  0.64480  0.07170  Biso   1.000  O
  O10      1.0000 0.15410  0.22660  0.05870  Biso   1.000  O
  O11      1.0000 0.93400  0.15560  0.03360  Biso   1.000  O
  O12      1.0000 0.55060  0.91040  0.06060  Biso   1.000  O
  O13      1.0000 0.81220  0.90580  0.09170  Biso   1.000  O
  O14      1.0000 0.52850  0.71100  0.93940  Biso   1.000  O
  O15      1.0000 0.09330  0.10780  0.63080  Biso   1.000  O
  O16      1.0000 0.98890  0.35520  0.57170  Biso   1.000  O
  O17      1.0000 0.38070  0.77340  0.55870  Biso   1.000  O
  O18      1.0000 0.08960  0.84440  0.53360  Biso   1.000  O
  O19      1.0000 0.46100  0.08960  0.56060  Biso   1.000  O
  O20      1.0000 0.71800  0.09420  0.59170  Biso   1.000  O
  O21      1.0000 0.23950  0.28900  0.43940  Biso   1.000  O
  O22      1.0000 0.79890  0.10780  0.86920  Biso   1.000  O
  O23      1.0000 0.65590  0.35520  0.92830  Biso   1.000  O
  O24      1.0000 0.84590  0.77340  0.94130  Biso   1.000  O
  O25      1.0000 0.06600  0.84440  0.96640  Biso   1.000  O
  O26      1.0000 0.44940  0.08960  0.93940  Biso   1.000  O
  O27      1.0000 0.18780  0.09420  0.90830  Biso   1.000  O
  O28      1.0000 0.47150  0.28900  0.06060  Biso   1.000  O
