data_image0
_cell_length_a       12.265
_cell_length_b       12.265
_cell_length_c       12.421
_cell_angle_alpha    90
_cell_angle_beta     90
_cell_angle_gamma    90

_symmetry_space_group_name_H-M    P 1
_symmetry_int_tables_number       1

loop_
  _symmetry_equiv_pos_as_xyz
  'x, y, z'

loop_
  _atom_site_label
  _atom_site_occupancy
  _atom_site_fract_x
  _atom_site_fract_y
  _atom_site_fract_z
  _atom_site_thermal_displace_type
  _atom_site_B_iso_or_equiv
  _atom_site_type_symbol
  Eu1      1.0000 0.00000  0.00000  0.00000  Biso   1.000  Eu
  Na1      1.0000 0.52890  0.27240  0.49080  Biso   1.000  Na
  Na2      1.0000 0.47110  0.72760  0.49080  Biso   1.000  Na
  Na3      1.0000 0.27240  0.47110  0.50920  Biso   1.000  Na
  Na4      1.0000 0.72760  0.52890  0.50920  Biso   1.000  Na
  Na5      1.0000 0.00000  0.50000  0.48800  Biso   1.000  Na
  Na6      1.0000 0.50000  0.00000  0.51200  Biso   1.000  Na
  H1       1.0000 0.89280  0.28010  0.87680  Biso   1.000  H
  H2       1.0000 0.88290  0.35060  0.70500  Biso   1.000  H
  H3       1.0000 0.77790  0.05550  0.59780  Biso   1.000  H
  H4       1.0000 0.60850  0.97960  0.73260  Biso   1.000  H
  H5       1.0000 0.66630  0.67450  0.83820  Biso   1.000  H
  H6       1.0000 0.84560  0.72360  0.87610  Biso   1.000  H
  H7       1.0000 0.10720  0.71990  0.87680  Biso   1.000  H
  H8       1.0000 0.11710  0.64940  0.70500  Biso   1.000  H
  H9       1.0000 0.22210  0.94450  0.59780  Biso   1.000  H
  H10      1.0000 0.39150  0.02040  0.73260  Biso   1.000  H
  H11      1.0000 0.33370  0.32550  0.83820  Biso   1.000  H
  H12      1.0000 0.15440  0.27640  0.87610  Biso   1.000  H
  H13      1.0000 0.28010  0.10720  0.12320  Biso   1.000  H
  H14      1.0000 0.35060  0.11710  0.29500  Biso   1.000  H
  H15      1.0000 0.05550  0.22210  0.40220  Biso   1.000  H
  H16      1.0000 0.97960  0.39150  0.26740  Biso   1.000  H
  H17      1.0000 0.67450  0.33370  0.16180  Biso   1.000  H
  H18      1.0000 0.72360  0.15440  0.12390  Biso   1.000  H
  H19      1.0000 0.71990  0.89280  0.12320  Biso   1.000  H
  H20      1.0000 0.64940  0.88290  0.29500  Biso   1.000  H
  H21      1.0000 0.94450  0.77790  0.40220  Biso   1.000  H
  H22      1.0000 0.02040  0.60850  0.26740  Biso   1.000  H
  H23      1.0000 0.32550  0.66630  0.16180  Biso   1.000  H
  H24      1.0000 0.27640  0.84560  0.12390  Biso   1.000  H
  C1       1.0000 0.86790  0.23530  0.81940  Biso   1.000  C
  C2       1.0000 0.86320  0.27680  0.71800  Biso   1.000  C
  C3       1.0000 0.82910  0.21020  0.63270  Biso   1.000  C
  C4       1.0000 0.80030  0.10250  0.65440  Biso   1.000  C
  C5       1.0000 0.80480  0.06480  0.75940  Biso   1.000  C
  C6       1.0000 0.76340  0.95560  0.78670  Biso   1.000  C
  C7       1.0000 0.65680  0.92630  0.76100  Biso   1.000  C
  C8       1.0000 0.62050  0.82110  0.77630  Biso   1.000  C
  C9       1.0000 0.69090  0.74620  0.82270  Biso   1.000  C
  C10      1.0000 0.79710  0.77610  0.84650  Biso   1.000  C
  C11      1.0000 0.13210  0.76470  0.81940  Biso   1.000  C
  C12      1.0000 0.13680  0.72320  0.71800  Biso   1.000  C
  C13      1.0000 0.17090  0.78980  0.63270  Biso   1.000  C
  C14      1.0000 0.19970  0.89750  0.65440  Biso   1.000  C
  C15      1.0000 0.19520  0.93520  0.75940  Biso   1.000  C
  C16      1.0000 0.23660  0.04440  0.78670  Biso   1.000  C
  C17      1.0000 0.34320  0.07370  0.76100  Biso   1.000  C
  C18      1.0000 0.37950  0.17890  0.77630  Biso   1.000  C
  C19      1.0000 0.30910  0.25380  0.82270  Biso   1.000  C
  C20      1.0000 0.20290  0.22390  0.84650  Biso   1.000  C
  C21      1.0000 0.23530  0.13210  0.18060  Biso   1.000  C
  C22      1.0000 0.27680  0.13680  0.28200  Biso   1.000  C
  C23      1.0000 0.21020  0.17090  0.36730  Biso   1.000  C
  C24      1.0000 0.10250  0.19970  0.34560  Biso   1.000  C
  C25      1.0000 0.06480  0.19520  0.24060  Biso   1.000  C
  C26      1.0000 0.95560  0.23660  0.21330  Biso   1.000  C
  C27      1.0000 0.92630  0.34320  0.23900  Biso   1.000  C
  C28      1.0000 0.82110  0.37950  0.22370  Biso   1.000  C
  C29      1.0000 0.74620  0.30910  0.17730  Biso   1.000  C
  C30      1.0000 0.77610  0.20290  0.15350  Biso   1.000  C
  C31      1.0000 0.76470  0.86790  0.18060  Biso   1.000  C
  C32      1.0000 0.72320  0.86320  0.28200  Biso   1.000  C
  C33      1.0000 0.78980  0.82910  0.36730  Biso   1.000  C
  C34      1.0000 0.89750  0.80030  0.34560  Biso   1.000  C
  C35      1.0000 0.93520  0.80480  0.24060  Biso   1.000  C
  C36      1.0000 0.04440  0.76340  0.21330  Biso   1.000  C
  C37      1.0000 0.07370  0.65680  0.23900  Biso   1.000  C
  C38      1.0000 0.17890  0.62050  0.22370  Biso   1.000  C
  C39      1.0000 0.25380  0.69090  0.17730  Biso   1.000  C
  C40      1.0000 0.22390  0.79710  0.15350  Biso   1.000  C
  S1       1.0000 0.81724  0.26471  0.50030  Biso   1.000  S
  S2       1.0000 0.48511  0.78728  0.73870  Biso   1.000  S
  S3       1.0000 0.18276  0.73529  0.50030  Biso   1.000  S
  S4       1.0000 0.51489  0.21272  0.73870  Biso   1.000  S
  S5       1.0000 0.26471  0.18276  0.49970  Biso   1.000  S
  S6       1.0000 0.78728  0.51489  0.26130  Biso   1.000  S
  S7       1.0000 0.73529  0.81724  0.49970  Biso   1.000  S
  S8       1.0000 0.21272  0.48511  0.26130  Biso   1.000  S
  N1       1.0000 0.83800  0.13180  0.83950  Biso   1.000  N
  N2       1.0000 0.83250  0.87810  0.82830  Biso   1.000  N
  N3       1.0000 0.16200  0.86820  0.83950  Biso   1.000  N
  N4       1.0000 0.16750  0.12190  0.82830  Biso   1.000  N
  N5       1.0000 0.13180  0.16200  0.16050  Biso   1.000  N
  N6       1.0000 0.87810  0.16750  0.17170  Biso   1.000  N
  N7       1.0000 0.86820  0.83800  0.16050  Biso   1.000  N
  N8       1.0000 0.12190  0.83250  0.17170  Biso   1.000  N
  Cl1      1.0000 0.50000  0.50000  0.50000  Biso   1.000  Cl
  O1       1.0000 0.84260  0.09520  0.93980  Biso   1.000  O
  O2       1.0000 0.93390  0.90330  0.84520  Biso   1.000  O
  O3       1.0000 0.91410  0.33020  0.48680  Biso   1.000  O
  O4       1.0000 0.81020  0.17210  0.42850  Biso   1.000  O
  O5       1.0000 0.71780  0.33030  0.50200  Biso   1.000  O
  O6       1.0000 0.45900  0.85930  0.65050  Biso   1.000  O
  O7       1.0000 0.49090  0.67510  0.70400  Biso   1.000  O
  O8       1.0000 0.41760  0.80480  0.83180  Biso   1.000  O
  O9       1.0000 0.11600  0.41560  0.61550  Biso   1.000  O
  O10      1.0000 0.51080  0.34770  0.32100  Biso   1.000  O
  O11      1.0000 0.15740  0.90480  0.93980  Biso   1.000  O
  O12      1.0000 0.06610  0.09670  0.84520  Biso   1.000  O
  O13      1.0000 0.08590  0.66980  0.48680  Biso   1.000  O
  O14      1.0000 0.18980  0.82790  0.42850  Biso   1.000  O
  O15      1.0000 0.28220  0.66970  0.50200  Biso   1.000  O
  O16      1.0000 0.54100  0.14070  0.65050  Biso   1.000  O
  O17      1.0000 0.50910  0.32490  0.70400  Biso   1.000  O
  O18      1.0000 0.58240  0.19520  0.83180  Biso   1.000  O
  O19      1.0000 0.88400  0.58440  0.61550  Biso   1.000  O
  O20      1.0000 0.48920  0.65230  0.32100  Biso   1.000  O
  O21      1.0000 0.09520  0.15740  0.06020  Biso   1.000  O
  O22      1.0000 0.90330  0.06610  0.15480  Biso   1.000  O
  O23      1.0000 0.33020  0.08590  0.51320  Biso   1.000  O
  O24      1.0000 0.17210  0.18980  0.57150  Biso   1.000  O
  O25      1.0000 0.33030  0.28220  0.49800  Biso   1.000  O
  O26      1.0000 0.85930  0.54100  0.34950  Biso   1.000  O
  O27      1.0000 0.67510  0.50910  0.29600  Biso   1.000  O
  O28      1.0000 0.80480  0.58240  0.16820  Biso   1.000  O
  O29      1.0000 0.41560  0.88400  0.38450  Biso   1.000  O
  O30      1.0000 0.34770  0.48920  0.67900  Biso   1.000  O
  O31      1.0000 0.90480  0.84260  0.06020  Biso   1.000  O
  O32      1.0000 0.09670  0.93390  0.15480  Biso   1.000  O
  O33      1.0000 0.66980  0.91410  0.51320  Biso   1.000  O
  O34      1.0000 0.82790  0.81020  0.57150  Biso   1.000  O
  O35      1.0000 0.66970  0.71780  0.49800  Biso   1.000  O
  O36      1.0000 0.14070  0.45900  0.34950  Biso   1.000  O
  O37      1.0000 0.32490  0.49090  0.29600  Biso   1.000  O
  O38      1.0000 0.19520  0.41760  0.16820  Biso   1.000  O
  O39      1.0000 0.58440  0.11600  0.38450  Biso   1.000  O
  O40      1.0000 0.65230  0.51080  0.67900  Biso   1.000  O
