data_image0
_cell_length_a       12.234
_cell_length_b       12.234
_cell_length_c       12.373
_cell_angle_alpha    90
_cell_angle_beta     90
_cell_angle_gamma    90

_symmetry_space_group_name_H-M    P 1
_symmetry_int_tables_number       1

loop_
  _symmetry_equiv_pos_as_xyz
  'x, y, z'

loop_
  _atom_site_label
  _atom_site_occupancy
  _atom_site_fract_x
  _atom_site_fract_y
  _atom_site_fract_z
  _atom_site_thermal_displace_type
  _atom_site_B_iso_or_equiv
  _atom_site_type_symbol
  Na1      1.0000 0.47130  0.72180  0.50670  Biso   1.000  Na
  Na2      1.0000 0.52870  0.27820  0.50670  Biso   1.000  Na
  Na3      1.0000 0.72180  0.52870  0.49330  Biso   1.000  Na
  Na4      1.0000 0.27820  0.47130  0.49330  Biso   1.000  Na
  Na5      1.0000 0.50000  0.00000  0.48700  Biso   1.000  Na
  Na6      1.0000 0.00000  0.50000  0.51300  Biso   1.000  Na
  Gd1      1.0000 0.00000  0.00000  0.00000  Biso   1.000  Gd
  H1       1.0000 0.71990  0.89270  0.87720  Biso   1.000  H
  H2       1.0000 0.64920  0.88430  0.70530  Biso   1.000  H
  H3       1.0000 0.94380  0.77980  0.59770  Biso   1.000  H
  H4       1.0000 0.01970  0.61070  0.73440  Biso   1.000  H
  H5       1.0000 0.32470  0.66750  0.84080  Biso   1.000  H
  H6       1.0000 0.27520  0.84450  0.87660  Biso   1.000  H
  H7       1.0000 0.28010  0.10730  0.87720  Biso   1.000  H
  H8       1.0000 0.35080  0.11570  0.70530  Biso   1.000  H
  H9       1.0000 0.05620  0.22020  0.59770  Biso   1.000  H
  H10      1.0000 0.98030  0.38930  0.73440  Biso   1.000  H
  H11      1.0000 0.67530  0.33250  0.84080  Biso   1.000  H
  H12      1.0000 0.72480  0.15550  0.87660  Biso   1.000  H
  H13      1.0000 0.89270  0.28010  0.12280  Biso   1.000  H
  H14      1.0000 0.88430  0.35080  0.29470  Biso   1.000  H
  H15      1.0000 0.77980  0.05620  0.40230  Biso   1.000  H
  H16      1.0000 0.61070  0.98030  0.26560  Biso   1.000  H
  H17      1.0000 0.66750  0.67530  0.15920  Biso   1.000  H
  H18      1.0000 0.84450  0.72480  0.12340  Biso   1.000  H
  H19      1.0000 0.10730  0.71990  0.12280  Biso   1.000  H
  H20      1.0000 0.11570  0.64920  0.29470  Biso   1.000  H
  H21      1.0000 0.22020  0.94380  0.40230  Biso   1.000  H
  H22      1.0000 0.38930  0.01970  0.26560  Biso   1.000  H
  H23      1.0000 0.33250  0.32470  0.15920  Biso   1.000  H
  H24      1.0000 0.15550  0.27520  0.12340  Biso   1.000  H
  C1       1.0000 0.76360  0.86830  0.82060  Biso   1.000  C
  C2       1.0000 0.72120  0.86380  0.71830  Biso   1.000  C
  C3       1.0000 0.78860  0.82750  0.63300  Biso   1.000  C
  C4       1.0000 0.89730  0.80030  0.65360  Biso   1.000  C
  C5       1.0000 0.93470  0.80470  0.75910  Biso   1.000  C
  C6       1.0000 0.04520  0.76360  0.78590  Biso   1.000  C
  C7       1.0000 0.07270  0.65760  0.76180  Biso   1.000  C
  C8       1.0000 0.17850  0.61920  0.77760  Biso   1.000  C
  C9       1.0000 0.25430  0.69130  0.82500  Biso   1.000  C
  C10      1.0000 0.22390  0.79660  0.84770  Biso   1.000  C
  C11      1.0000 0.23640  0.13170  0.82060  Biso   1.000  C
  C12      1.0000 0.27880  0.13620  0.71830  Biso   1.000  C
  C13      1.0000 0.21140  0.17250  0.63300  Biso   1.000  C
  C14      1.0000 0.10270  0.19970  0.65360  Biso   1.000  C
  C15      1.0000 0.06530  0.19530  0.75910  Biso   1.000  C
  C16      1.0000 0.95480  0.23640  0.78590  Biso   1.000  C
  C17      1.0000 0.92730  0.34240  0.76180  Biso   1.000  C
  C18      1.0000 0.82150  0.38080  0.77760  Biso   1.000  C
  C19      1.0000 0.74570  0.30870  0.82500  Biso   1.000  C
  C20      1.0000 0.77610  0.20340  0.84770  Biso   1.000  C
  C21      1.0000 0.86830  0.23640  0.17940  Biso   1.000  C
  C22      1.0000 0.86380  0.27880  0.28170  Biso   1.000  C
  C23      1.0000 0.82750  0.21140  0.36700  Biso   1.000  C
  C24      1.0000 0.80030  0.10270  0.34640  Biso   1.000  C
  C25      1.0000 0.80470  0.06530  0.24090  Biso   1.000  C
  C26      1.0000 0.76360  0.95480  0.21410  Biso   1.000  C
  C27      1.0000 0.65760  0.92730  0.23820  Biso   1.000  C
  C28      1.0000 0.61920  0.82150  0.22240  Biso   1.000  C
  C29      1.0000 0.69130  0.74570  0.17500  Biso   1.000  C
  C30      1.0000 0.79660  0.77610  0.15230  Biso   1.000  C
  C31      1.0000 0.13170  0.76360  0.17940  Biso   1.000  C
  C32      1.0000 0.13620  0.72120  0.28170  Biso   1.000  C
  C33      1.0000 0.17250  0.78860  0.36700  Biso   1.000  C
  C34      1.0000 0.19970  0.89730  0.34640  Biso   1.000  C
  C35      1.0000 0.19530  0.93470  0.24090  Biso   1.000  C
  C36      1.0000 0.23640  0.04520  0.21410  Biso   1.000  C
  C37      1.0000 0.34240  0.07270  0.23820  Biso   1.000  C
  C38      1.0000 0.38080  0.17850  0.22240  Biso   1.000  C
  C39      1.0000 0.30870  0.25430  0.17500  Biso   1.000  C
  C40      1.0000 0.20340  0.22390  0.15230  Biso   1.000  C
  S1       1.0000 0.73415  0.81641  0.50020  Biso   1.000  S
  S2       1.0000 0.21338  0.48424  0.74035  Biso   1.000  S
  S3       1.0000 0.26585  0.18359  0.50020  Biso   1.000  S
  S4       1.0000 0.78662  0.51576  0.74035  Biso   1.000  S
  S5       1.0000 0.81641  0.26585  0.49980  Biso   1.000  S
  S6       1.0000 0.48424  0.78662  0.25965  Biso   1.000  S
  S7       1.0000 0.18359  0.73415  0.49980  Biso   1.000  S
  S8       1.0000 0.51576  0.21338  0.25965  Biso   1.000  S
  N1       1.0000 0.86820  0.83780  0.84080  Biso   1.000  N
  N2       1.0000 0.12250  0.83230  0.82920  Biso   1.000  N
  N3       1.0000 0.13180  0.16220  0.84080  Biso   1.000  N
  N4       1.0000 0.87750  0.16770  0.82920  Biso   1.000  N
  N5       1.0000 0.83780  0.13180  0.15920  Biso   1.000  N
  N6       1.0000 0.83230  0.87750  0.17080  Biso   1.000  N
  N7       1.0000 0.16220  0.86820  0.15920  Biso   1.000  N
  N8       1.0000 0.16770  0.12250  0.17080  Biso   1.000  N
  Cl1      1.0000 0.50000  0.50000  0.50000  Biso   1.000  Cl
  O1       1.0000 0.90570  0.84300  0.94090  Biso   1.000  O
  O2       1.0000 0.09680  0.93460  0.84630  Biso   1.000  O
  O3       1.0000 0.66890  0.91400  0.48750  Biso   1.000  O
  O4       1.0000 0.66740  0.71630  0.50380  Biso   1.000  O
  O5       1.0000 0.82600  0.80840  0.42780  Biso   1.000  O
  O6       1.0000 0.14370  0.46000  0.64990  Biso   1.000  O
  O7       1.0000 0.19240  0.41730  0.83370  Biso   1.000  O
  O8       1.0000 0.32840  0.48820  0.70680  Biso   1.000  O
  O9       1.0000 0.41720  0.88220  0.61680  Biso   1.000  O
  O10      1.0000 0.49100  0.65150  0.67960  Biso   1.000  O
  O11      1.0000 0.09430  0.15700  0.94090  Biso   1.000  O
  O12      1.0000 0.90320  0.06540  0.84630  Biso   1.000  O
  O13      1.0000 0.33110  0.08600  0.48750  Biso   1.000  O
  O14      1.0000 0.33260  0.28370  0.50380  Biso   1.000  O
  O15      1.0000 0.17400  0.19160  0.42780  Biso   1.000  O
  O16      1.0000 0.85630  0.54000  0.64990  Biso   1.000  O
  O17      1.0000 0.80760  0.58270  0.83370  Biso   1.000  O
  O18      1.0000 0.67160  0.51180  0.70680  Biso   1.000  O
  O19      1.0000 0.58280  0.11780  0.61680  Biso   1.000  O
  O20      1.0000 0.50900  0.34850  0.67960  Biso   1.000  O
  O21      1.0000 0.84300  0.09430  0.05910  Biso   1.000  O
  O22      1.0000 0.93460  0.90320  0.15370  Biso   1.000  O
  O23      1.0000 0.91400  0.33110  0.51250  Biso   1.000  O
  O24      1.0000 0.71630  0.33260  0.49620  Biso   1.000  O
  O25      1.0000 0.80840  0.17400  0.57220  Biso   1.000  O
  O26      1.0000 0.46000  0.85630  0.35010  Biso   1.000  O
  O27      1.0000 0.41730  0.80760  0.16630  Biso   1.000  O
  O28      1.0000 0.48820  0.67160  0.29320  Biso   1.000  O
  O29      1.0000 0.88220  0.58280  0.38320  Biso   1.000  O
  O30      1.0000 0.65150  0.50900  0.32040  Biso   1.000  O
  O31      1.0000 0.15700  0.90570  0.05910  Biso   1.000  O
  O32      1.0000 0.06540  0.09680  0.15370  Biso   1.000  O
  O33      1.0000 0.08600  0.66890  0.51250  Biso   1.000  O
  O34      1.0000 0.28370  0.66740  0.49620  Biso   1.000  O
  O35      1.0000 0.19160  0.82600  0.57220  Biso   1.000  O
  O36      1.0000 0.54000  0.14370  0.35010  Biso   1.000  O
  O37      1.0000 0.58270  0.19240  0.16630  Biso   1.000  O
  O38      1.0000 0.51180  0.32840  0.29320  Biso   1.000  O
  O39      1.0000 0.11780  0.41720  0.38320  Biso   1.000  O
  O40      1.0000 0.34850  0.49100  0.32040  Biso   1.000  O
