data_image0
_cell_length_a       12.213
_cell_length_b       12.213
_cell_length_c       12.345
_cell_angle_alpha    90
_cell_angle_beta     90
_cell_angle_gamma    90

_symmetry_space_group_name_H-M    P 1
_symmetry_int_tables_number       1

loop_
  _symmetry_equiv_pos_as_xyz
  'x, y, z'

loop_
  _atom_site_label
  _atom_site_occupancy
  _atom_site_fract_x
  _atom_site_fract_y
  _atom_site_fract_z
  _atom_site_thermal_displace_type
  _atom_site_B_iso_or_equiv
  _atom_site_type_symbol
  Na1      1.0000 0.27950  0.47170  0.50460  Biso   1.000  Na
  Na2      1.0000 0.72050  0.52830  0.50460  Biso   1.000  Na
  Na3      1.0000 0.47170  0.72050  0.49540  Biso   1.000  Na
  Na4      1.0000 0.52830  0.27950  0.49540  Biso   1.000  Na
  Na5      1.0000 0.50000  0.00000  0.51210  Biso   1.000  Na
  Na6      1.0000 0.00000  0.50000  0.48790  Biso   1.000  Na
  Dy1      1.0000 0.00000  0.00000  0.00000  Biso   1.000  Dy
  H1       1.0000 0.27940  0.10480  0.12340  Biso   1.000  H
  H2       1.0000 0.35040  0.11860  0.29490  Biso   1.000  H
  H3       1.0000 0.05820  0.22390  0.40120  Biso   1.000  H
  H4       1.0000 0.97920  0.39050  0.26610  Biso   1.000  H
  H5       1.0000 0.67480  0.33230  0.16140  Biso   1.000  H
  H6       1.0000 0.72520  0.15520  0.11950  Biso   1.000  H
  H7       1.0000 0.72060  0.89520  0.12340  Biso   1.000  H
  H8       1.0000 0.64960  0.88140  0.29490  Biso   1.000  H
  H9       1.0000 0.94180  0.77610  0.40120  Biso   1.000  H
  H10      1.0000 0.02080  0.60950  0.26610  Biso   1.000  H
  H11      1.0000 0.32520  0.66770  0.16140  Biso   1.000  H
  H12      1.0000 0.27480  0.84480  0.11950  Biso   1.000  H
  H13      1.0000 0.10480  0.72060  0.87660  Biso   1.000  H
  H14      1.0000 0.11860  0.64960  0.70510  Biso   1.000  H
  H15      1.0000 0.22390  0.94180  0.59880  Biso   1.000  H
  H16      1.0000 0.39050  0.02080  0.73390  Biso   1.000  H
  H17      1.0000 0.33230  0.32520  0.83860  Biso   1.000  H
  H18      1.0000 0.15520  0.27480  0.88050  Biso   1.000  H
  H19      1.0000 0.89520  0.27940  0.87660  Biso   1.000  H
  H20      1.0000 0.88140  0.35040  0.70510  Biso   1.000  H
  H21      1.0000 0.77610  0.05820  0.59880  Biso   1.000  H
  H22      1.0000 0.60950  0.97920  0.73390  Biso   1.000  H
  H23      1.0000 0.66770  0.67480  0.83860  Biso   1.000  H
  H24      1.0000 0.84480  0.72520  0.88050  Biso   1.000  H
  C1       1.0000 0.23560  0.13040  0.17960  Biso   1.000  C
  C2       1.0000 0.27760  0.13670  0.28210  Biso   1.000  C
  C3       1.0000 0.21100  0.17030  0.36640  Biso   1.000  C
  C4       1.0000 0.10360  0.20020  0.34550  Biso   1.000  C
  C5       1.0000 0.06510  0.19420  0.24010  Biso   1.000  C
  C6       1.0000 0.95550  0.23580  0.21250  Biso   1.000  C
  C7       1.0000 0.92700  0.34310  0.23770  Biso   1.000  C
  C8       1.0000 0.82110  0.37940  0.22070  Biso   1.000  C
  C9       1.0000 0.74580  0.30860  0.17520  Biso   1.000  C
  C10      1.0000 0.77600  0.20260  0.15030  Biso   1.000  C
  C11      1.0000 0.76440  0.86960  0.17960  Biso   1.000  C
  C12      1.0000 0.72240  0.86330  0.28210  Biso   1.000  C
  C13      1.0000 0.78900  0.82970  0.36640  Biso   1.000  C
  C14      1.0000 0.89640  0.79980  0.34550  Biso   1.000  C
  C15      1.0000 0.93490  0.80580  0.24010  Biso   1.000  C
  C16      1.0000 0.04450  0.76420  0.21250  Biso   1.000  C
  C17      1.0000 0.07300  0.65690  0.23770  Biso   1.000  C
  C18      1.0000 0.17890  0.62060  0.22070  Biso   1.000  C
  C19      1.0000 0.25420  0.69140  0.17520  Biso   1.000  C
  C20      1.0000 0.22400  0.79740  0.15030  Biso   1.000  C
  C21      1.0000 0.13040  0.76440  0.82040  Biso   1.000  C
  C22      1.0000 0.13670  0.72240  0.71790  Biso   1.000  C
  C23      1.0000 0.17030  0.78900  0.63360  Biso   1.000  C
  C24      1.0000 0.20020  0.89640  0.65450  Biso   1.000  C
  C25      1.0000 0.19420  0.93490  0.75990  Biso   1.000  C
  C26      1.0000 0.23580  0.04450  0.78750  Biso   1.000  C
  C27      1.0000 0.34310  0.07300  0.76230  Biso   1.000  C
  C28      1.0000 0.37940  0.17890  0.77930  Biso   1.000  C
  C29      1.0000 0.30860  0.25420  0.82480  Biso   1.000  C
  C30      1.0000 0.20260  0.22400  0.84970  Biso   1.000  C
  C31      1.0000 0.86960  0.23560  0.82040  Biso   1.000  C
  C32      1.0000 0.86330  0.27760  0.71790  Biso   1.000  C
  C33      1.0000 0.82970  0.21100  0.63360  Biso   1.000  C
  C34      1.0000 0.79980  0.10360  0.65450  Biso   1.000  C
  C35      1.0000 0.80580  0.06510  0.75990  Biso   1.000  C
  C36      1.0000 0.76420  0.95550  0.78750  Biso   1.000  C
  C37      1.0000 0.65690  0.92700  0.76230  Biso   1.000  C
  C38      1.0000 0.62060  0.82110  0.77930  Biso   1.000  C
  C39      1.0000 0.69140  0.74580  0.82480  Biso   1.000  C
  C40      1.0000 0.79740  0.77600  0.84970  Biso   1.000  C
  S1       1.0000 0.26520  0.18292  0.49998  Biso   1.000  S
  S2       1.0000 0.78663  0.51534  0.25906  Biso   1.000  S
  S3       1.0000 0.73480  0.81708  0.49998  Biso   1.000  S
  S4       1.0000 0.21337  0.48466  0.25906  Biso   1.000  S
  S5       1.0000 0.18292  0.73480  0.50002  Biso   1.000  S
  S6       1.0000 0.51534  0.21337  0.74094  Biso   1.000  S
  S7       1.0000 0.81708  0.26520  0.50002  Biso   1.000  S
  S8       1.0000 0.48466  0.78663  0.74094  Biso   1.000  S
  N1       1.0000 0.13260  0.16040  0.15910  Biso   1.000  N
  N2       1.0000 0.87810  0.16750  0.17000  Biso   1.000  N
  N3       1.0000 0.86740  0.83960  0.15910  Biso   1.000  N
  N4       1.0000 0.12190  0.83250  0.17000  Biso   1.000  N
  N5       1.0000 0.16040  0.86740  0.84090  Biso   1.000  N
  N6       1.0000 0.16750  0.12190  0.83000  Biso   1.000  N
  N7       1.0000 0.83960  0.13260  0.84090  Biso   1.000  N
  N8       1.0000 0.83250  0.87810  0.83000  Biso   1.000  N
  Cl1      1.0000 0.50000  0.50000  0.50000  Biso   1.000  Cl
  O1       1.0000 0.09490  0.15470  0.05830  Biso   1.000  O
  O2       1.0000 0.90370  0.06450  0.15260  Biso   1.000  O
  O3       1.0000 0.33050  0.08480  0.51360  Biso   1.000  O
  O4       1.0000 0.33150  0.28230  0.49740  Biso   1.000  O
  O5       1.0000 0.17300  0.19110  0.57240  Biso   1.000  O
  O6       1.0000 0.85720  0.54120  0.34880  Biso   1.000  O
  O7       1.0000 0.80650  0.58260  0.16580  Biso   1.000  O
  O8       1.0000 0.67300  0.50970  0.29150  Biso   1.000  O
  O9       1.0000 0.58350  0.11690  0.38240  Biso   1.000  O
  O10      1.0000 0.34370  0.48880  0.68030  Biso   1.000  O
  O11      1.0000 0.90510  0.84530  0.05830  Biso   1.000  O
  O12      1.0000 0.09630  0.93550  0.15260  Biso   1.000  O
  O13      1.0000 0.66950  0.91520  0.51360  Biso   1.000  O
  O14      1.0000 0.66850  0.71770  0.49740  Biso   1.000  O
  O15      1.0000 0.82700  0.80890  0.57240  Biso   1.000  O
  O16      1.0000 0.14280  0.45880  0.34880  Biso   1.000  O
  O17      1.0000 0.19350  0.41740  0.16580  Biso   1.000  O
  O18      1.0000 0.32700  0.49030  0.29150  Biso   1.000  O
  O19      1.0000 0.41650  0.88310  0.38240  Biso   1.000  O
  O20      1.0000 0.65630  0.51120  0.68030  Biso   1.000  O
  O21      1.0000 0.15470  0.90510  0.94170  Biso   1.000  O
  O22      1.0000 0.06450  0.09630  0.84740  Biso   1.000  O
  O23      1.0000 0.08480  0.66950  0.48640  Biso   1.000  O
  O24      1.0000 0.28230  0.66850  0.50260  Biso   1.000  O
  O25      1.0000 0.19110  0.82700  0.42760  Biso   1.000  O
  O26      1.0000 0.54120  0.14280  0.65120  Biso   1.000  O
  O27      1.0000 0.58260  0.19350  0.83420  Biso   1.000  O
  O28      1.0000 0.50970  0.32700  0.70850  Biso   1.000  O
  O29      1.0000 0.11690  0.41650  0.61760  Biso   1.000  O
  O30      1.0000 0.48880  0.65630  0.31970  Biso   1.000  O
  O31      1.0000 0.84530  0.09490  0.94170  Biso   1.000  O
  O32      1.0000 0.93550  0.90370  0.84740  Biso   1.000  O
  O33      1.0000 0.91520  0.33050  0.48640  Biso   1.000  O
  O34      1.0000 0.71770  0.33150  0.50260  Biso   1.000  O
  O35      1.0000 0.80890  0.17300  0.42760  Biso   1.000  O
  O36      1.0000 0.45880  0.85720  0.65120  Biso   1.000  O
  O37      1.0000 0.41740  0.80650  0.83420  Biso   1.000  O
  O38      1.0000 0.49030  0.67300  0.70850  Biso   1.000  O
  O39      1.0000 0.88310  0.58350  0.61760  Biso   1.000  O
  O40      1.0000 0.51120  0.34370  0.31970  Biso   1.000  O
