data_image0
_cell_length_a       12.245
_cell_length_b       12.245
_cell_length_c       12.407
_cell_angle_alpha    90
_cell_angle_beta     90
_cell_angle_gamma    90

_symmetry_space_group_name_H-M    P 1
_symmetry_int_tables_number       1

loop_
  _symmetry_equiv_pos_as_xyz
  'x, y, z'

loop_
  _atom_site_label
  _atom_site_occupancy
  _atom_site_fract_x
  _atom_site_fract_y
  _atom_site_fract_z
  _atom_site_thermal_displace_type
  _atom_site_B_iso_or_equiv
  _atom_site_type_symbol
  Tb1      1.0000 0.00000  0.00000  0.50000  Biso   1.000  Tb
  Na1      1.0000 0.52840  0.27310  0.99380  Biso   1.000  Na
  Na2      1.0000 0.47160  0.72690  0.99380  Biso   1.000  Na
  Na3      1.0000 0.27310  0.47160  0.00620  Biso   1.000  Na
  Na4      1.0000 0.72690  0.52840  0.00620  Biso   1.000  Na
  Na5      1.0000 0.00000  0.50000  0.98660  Biso   1.000  Na
  Na6      1.0000 0.50000  0.00000  0.01340  Biso   1.000  Na
  H1       1.0000 0.84340  0.72550  0.38180  Biso   1.000  H
  H2       1.0000 0.66660  0.67390  0.33990  Biso   1.000  H
  H3       1.0000 0.60800  0.98060  0.23340  Biso   1.000  H
  H4       1.0000 0.77670  0.05510  0.09670  Biso   1.000  H
  H5       1.0000 0.88800  0.34960  0.20210  Biso   1.000  H
  H6       1.0000 0.89680  0.28060  0.37670  Biso   1.000  H
  H7       1.0000 0.15660  0.27450  0.38180  Biso   1.000  H
  H8       1.0000 0.33340  0.32610  0.33990  Biso   1.000  H
  H9       1.0000 0.39200  0.01940  0.23340  Biso   1.000  H
  H10      1.0000 0.22330  0.94490  0.09670  Biso   1.000  H
  H11      1.0000 0.11200  0.65040  0.20210  Biso   1.000  H
  H12      1.0000 0.10320  0.71940  0.37670  Biso   1.000  H
  H13      1.0000 0.72550  0.15660  0.61820  Biso   1.000  H
  H14      1.0000 0.67390  0.33340  0.66010  Biso   1.000  H
  H15      1.0000 0.98060  0.39200  0.76660  Biso   1.000  H
  H16      1.0000 0.05510  0.22330  0.90330  Biso   1.000  H
  H17      1.0000 0.34960  0.11200  0.79790  Biso   1.000  H
  H18      1.0000 0.28060  0.10320  0.62330  Biso   1.000  H
  H19      1.0000 0.27450  0.84340  0.61820  Biso   1.000  H
  H20      1.0000 0.32610  0.66660  0.66010  Biso   1.000  H
  H21      1.0000 0.01940  0.60800  0.76660  Biso   1.000  H
  H22      1.0000 0.94490  0.77670  0.90330  Biso   1.000  H
  H23      1.0000 0.65040  0.88800  0.79790  Biso   1.000  H
  H24      1.0000 0.71940  0.89680  0.62330  Biso   1.000  H
  C1       1.0000 0.79550  0.77720  0.34980  Biso   1.000  C
  C2       1.0000 0.69070  0.74610  0.32530  Biso   1.000  C
  C3       1.0000 0.62020  0.82170  0.27900  Biso   1.000  C
  C4       1.0000 0.65630  0.92750  0.26250  Biso   1.000  C
  C5       1.0000 0.76410  0.95650  0.28860  Biso   1.000  C
  C6       1.0000 0.80590  0.06440  0.26070  Biso   1.000  C
  C7       1.0000 0.80050  0.10190  0.15300  Biso   1.000  C
  C8       1.0000 0.83100  0.20900  0.13190  Biso   1.000  C
  C9       1.0000 0.86700  0.27630  0.21620  Biso   1.000  C
  C10      1.0000 0.87160  0.23560  0.31950  Biso   1.000  C
  C11      1.0000 0.20450  0.22280  0.34980  Biso   1.000  C
  C12      1.0000 0.30930  0.25390  0.32530  Biso   1.000  C
  C13      1.0000 0.37980  0.17830  0.27900  Biso   1.000  C
  C14      1.0000 0.34370  0.07250  0.26250  Biso   1.000  C
  C15      1.0000 0.23590  0.04350  0.28860  Biso   1.000  C
  C16      1.0000 0.19410  0.93560  0.26070  Biso   1.000  C
  C17      1.0000 0.19950  0.89810  0.15300  Biso   1.000  C
  C18      1.0000 0.16900  0.79100  0.13190  Biso   1.000  C
  C19      1.0000 0.13300  0.72370  0.21620  Biso   1.000  C
  C20      1.0000 0.12840  0.76440  0.31950  Biso   1.000  C
  C21      1.0000 0.77720  0.20450  0.65020  Biso   1.000  C
  C22      1.0000 0.74610  0.30930  0.67470  Biso   1.000  C
  C23      1.0000 0.82170  0.37980  0.72100  Biso   1.000  C
  C24      1.0000 0.92750  0.34370  0.73750  Biso   1.000  C
  C25      1.0000 0.95650  0.23590  0.71140  Biso   1.000  C
  C26      1.0000 0.06440  0.19410  0.73930  Biso   1.000  C
  C27      1.0000 0.10190  0.19950  0.84700  Biso   1.000  C
  C28      1.0000 0.20900  0.16900  0.86810  Biso   1.000  C
  C29      1.0000 0.27630  0.13300  0.78380  Biso   1.000  C
  C30      1.0000 0.23560  0.12840  0.68050  Biso   1.000  C
  C31      1.0000 0.22280  0.79550  0.65020  Biso   1.000  C
  C32      1.0000 0.25390  0.69070  0.67470  Biso   1.000  C
  C33      1.0000 0.17830  0.62020  0.72100  Biso   1.000  C
  C34      1.0000 0.07250  0.65630  0.73750  Biso   1.000  C
  C35      1.0000 0.04350  0.76410  0.71140  Biso   1.000  C
  C36      1.0000 0.93560  0.80590  0.73930  Biso   1.000  C
  C37      1.0000 0.89810  0.80050  0.84700  Biso   1.000  C
  C38      1.0000 0.79100  0.83100  0.86810  Biso   1.000  C
  C39      1.0000 0.72370  0.86700  0.78380  Biso   1.000  C
  C40      1.0000 0.76440  0.87160  0.68050  Biso   1.000  C
  S1       1.0000 0.48512  0.78686  0.23882  Biso   1.000  S
  S2       1.0000 0.81882  0.26364  0.99960  Biso   1.000  S
  S3       1.0000 0.51488  0.21314  0.23882  Biso   1.000  S
  S4       1.0000 0.18118  0.73636  0.99960  Biso   1.000  S
  S5       1.0000 0.78686  0.51488  0.76118  Biso   1.000  S
  S6       1.0000 0.26364  0.18118  0.00040  Biso   1.000  S
  S7       1.0000 0.21314  0.48512  0.76118  Biso   1.000  S
  S8       1.0000 0.73636  0.81882  0.00040  Biso   1.000  S
  N1       1.0000 0.83200  0.87790  0.33020  Biso   1.000  N
  N2       1.0000 0.84010  0.13100  0.33990  Biso   1.000  N
  N3       1.0000 0.16800  0.12210  0.33020  Biso   1.000  N
  N4       1.0000 0.15990  0.86900  0.33990  Biso   1.000  N
  N5       1.0000 0.87790  0.16800  0.66980  Biso   1.000  N
  N6       1.0000 0.13100  0.15990  0.66010  Biso   1.000  N
  N7       1.0000 0.12210  0.83200  0.66980  Biso   1.000  N
  N8       1.0000 0.86900  0.84010  0.66010  Biso   1.000  N
  Cl1      1.0000 0.50000  0.50000  0.00000  Biso   1.000  Cl
  O1       1.0000 0.93420  0.90400  0.34680  Biso   1.000  O
  O2       1.0000 0.84480  0.09530  0.44060  Biso   1.000  O
  O3       1.0000 0.71940  0.32990  0.00380  Biso   1.000  O
  O4       1.0000 0.91630  0.32930  0.98600  Biso   1.000  O
  O5       1.0000 0.81190  0.17140  0.92860  Biso   1.000  O
  O6       1.0000 0.41670  0.80230  0.33150  Biso   1.000  O
  O7       1.0000 0.49110  0.67420  0.20200  Biso   1.000  O
  O8       1.0000 0.45930  0.85970  0.15100  Biso   1.000  O
  O9       1.0000 0.88500  0.58490  0.11580  Biso   1.000  O
  O10      1.0000 0.51250  0.34250  0.82330  Biso   1.000  O
  O11      1.0000 0.06580  0.09600  0.34680  Biso   1.000  O
  O12      1.0000 0.15520  0.90470  0.44060  Biso   1.000  O
  O13      1.0000 0.28060  0.67010  0.00380  Biso   1.000  O
  O14      1.0000 0.08370  0.67070  0.98600  Biso   1.000  O
  O15      1.0000 0.18810  0.82860  0.92860  Biso   1.000  O
  O16      1.0000 0.58330  0.19770  0.33150  Biso   1.000  O
  O17      1.0000 0.50890  0.32580  0.20200  Biso   1.000  O
  O18      1.0000 0.54070  0.14030  0.15100  Biso   1.000  O
  O19      1.0000 0.11500  0.41510  0.11580  Biso   1.000  O
  O20      1.0000 0.48750  0.65750  0.82330  Biso   1.000  O
  O21      1.0000 0.90400  0.06580  0.65320  Biso   1.000  O
  O22      1.0000 0.09530  0.15520  0.55940  Biso   1.000  O
  O23      1.0000 0.32990  0.28060  0.99620  Biso   1.000  O
  O24      1.0000 0.32930  0.08370  0.01400  Biso   1.000  O
  O25      1.0000 0.17140  0.18810  0.07140  Biso   1.000  O
  O26      1.0000 0.80230  0.58330  0.66850  Biso   1.000  O
  O27      1.0000 0.67420  0.50890  0.79800  Biso   1.000  O
  O28      1.0000 0.85970  0.54070  0.84900  Biso   1.000  O
  O29      1.0000 0.58490  0.11500  0.88420  Biso   1.000  O
  O30      1.0000 0.34250  0.48750  0.17670  Biso   1.000  O
  O31      1.0000 0.09600  0.93420  0.65320  Biso   1.000  O
  O32      1.0000 0.90470  0.84480  0.55940  Biso   1.000  O
  O33      1.0000 0.67010  0.71940  0.99620  Biso   1.000  O
  O34      1.0000 0.67070  0.91630  0.01400  Biso   1.000  O
  O35      1.0000 0.82860  0.81190  0.07140  Biso   1.000  O
  O36      1.0000 0.19770  0.41670  0.66850  Biso   1.000  O
  O37      1.0000 0.32580  0.49110  0.79800  Biso   1.000  O
  O38      1.0000 0.14030  0.45930  0.84900  Biso   1.000  O
  O39      1.0000 0.41510  0.88500  0.88420  Biso   1.000  O
  O40      1.0000 0.65750  0.51250  0.17670  Biso   1.000  O
