data_image0
_cell_length_a       11.805
_cell_length_b       17.142
_cell_length_c       21.544
_cell_angle_alpha    90
_cell_angle_beta     90
_cell_angle_gamma    106.441

_symmetry_space_group_name_H-M    P 1
_symmetry_int_tables_number       1

loop_
  _symmetry_equiv_pos_as_xyz
  'x, y, z'

loop_
  _atom_site_label
  _atom_site_occupancy
  _atom_site_fract_x
  _atom_site_fract_y
  _atom_site_fract_z
  _atom_site_thermal_displace_type
  _atom_site_B_iso_or_equiv
  _atom_site_type_symbol
  Zn1      1.0000 0.82324  0.72725  0.57206  Biso   1.000  Zn
  Zn2      1.0000 0.64024  0.82852  0.62040  Biso   1.000  Zn
  Zn3      1.0000 0.06487  0.36568  0.53252  Biso   1.000  Zn
  Zn4      1.0000 0.67676  0.27275  0.07206  Biso   1.000  Zn
  Zn5      1.0000 0.85976  0.17148  0.12040  Biso   1.000  Zn
  Zn6      1.0000 0.43513  0.63432  0.03252  Biso   1.000  Zn
  Zn7      1.0000 0.17676  0.27275  0.42794  Biso   1.000  Zn
  Zn8      1.0000 0.35976  0.17148  0.37960  Biso   1.000  Zn
  Zn9      1.0000 0.93513  0.63432  0.46748  Biso   1.000  Zn
  Zn10     1.0000 0.32324  0.72725  0.92794  Biso   1.000  Zn
  Zn11     1.0000 0.14024  0.82852  0.87960  Biso   1.000  Zn
  Zn12     1.0000 0.56487  0.36568  0.96748  Biso   1.000  Zn
  H1       1.0000 0.40910  0.80160  0.67980  Biso   1.000  H
  H2       1.0000 0.28380  0.87210  0.71770  Biso   1.000  H
  H3       1.0000 0.33230  0.00570  0.71110  Biso   1.000  H
  H4       1.0000 0.50370  0.07550  0.65530  Biso   1.000  H
  H5       1.0000 0.62660  0.99570  0.61740  Biso   1.000  H
  H6       1.0000 0.09900  0.36760  0.67050  Biso   1.000  H
  H7       1.0000 0.03660  0.41550  0.75690  Biso   1.000  H
  H8       1.0000 0.89740  0.48630  0.74910  Biso   1.000  H
  H9       1.0000 0.83030  0.51050  0.65220  Biso   1.000  H
  H10      1.0000 0.89360  0.45430  0.56780  Biso   1.000  H
  H11      1.0000 0.10830  0.92770  0.58410  Biso   1.000  H
  H12      1.0000 0.26570  0.03790  0.56330  Biso   1.000  H
  H13      1.0000 0.23800  0.16490  0.55310  Biso   1.000  H
  H14      1.0000 0.89000  0.06800  0.58260  Biso   1.000  H
  H15      1.0000 0.57410  0.51550  0.62120  Biso   1.000  H
  H16      1.0000 0.40570  0.40870  0.63730  Biso   1.000  H
  H17      1.0000 0.34480  0.30830  0.56300  Biso   1.000  H
  H18      1.0000 0.62940  0.41360  0.46090  Biso   1.000  H
  H19      1.0000 0.19350  0.57210  0.58480  Biso   1.000  H
  H20      1.0000 0.32850  0.56090  0.66080  Biso   1.000  H
  H21      1.0000 0.33110  0.62460  0.75500  Biso   1.000  H
  H22      1.0000 0.08310  0.72490  0.69560  Biso   1.000  H
  H23      1.0000 0.09090  0.19840  0.17980  Biso   1.000  H
  H24      1.0000 0.21620  0.12790  0.21770  Biso   1.000  H
  H25      1.0000 0.16770  0.99430  0.21110  Biso   1.000  H
  H26      1.0000 0.99630  0.92450  0.15530  Biso   1.000  H
  H27      1.0000 0.87340  0.00430  0.11740  Biso   1.000  H
  H28      1.0000 0.40100  0.63240  0.17050  Biso   1.000  H
  H29      1.0000 0.46340  0.58450  0.25690  Biso   1.000  H
  H30      1.0000 0.60260  0.51370  0.24910  Biso   1.000  H
  H31      1.0000 0.66970  0.48950  0.15220  Biso   1.000  H
  H32      1.0000 0.60640  0.54570  0.06780  Biso   1.000  H
  H33      1.0000 0.39170  0.07230  0.08410  Biso   1.000  H
  H34      1.0000 0.23430  0.96210  0.06330  Biso   1.000  H
  H35      1.0000 0.26200  0.83510  0.05310  Biso   1.000  H
  H36      1.0000 0.61000  0.93200  0.08260  Biso   1.000  H
  H37      1.0000 0.92590  0.48450  0.12120  Biso   1.000  H
  H38      1.0000 0.09430  0.59130  0.13730  Biso   1.000  H
  H39      1.0000 0.15520  0.69170  0.06300  Biso   1.000  H
  H40      1.0000 0.87060  0.58640  0.96090  Biso   1.000  H
  H41      1.0000 0.30650  0.42790  0.08480  Biso   1.000  H
  H42      1.0000 0.17150  0.43910  0.16080  Biso   1.000  H
  H43      1.0000 0.16890  0.37540  0.25500  Biso   1.000  H
  H44      1.0000 0.41690  0.27510  0.19560  Biso   1.000  H
  H45      1.0000 0.59090  0.19840  0.32020  Biso   1.000  H
  H46      1.0000 0.71620  0.12790  0.28230  Biso   1.000  H
  H47      1.0000 0.66770  0.99430  0.28890  Biso   1.000  H
  H48      1.0000 0.49630  0.92450  0.34470  Biso   1.000  H
  H49      1.0000 0.37340  0.00430  0.38260  Biso   1.000  H
  H50      1.0000 0.90100  0.63240  0.32950  Biso   1.000  H
  H51      1.0000 0.96340  0.58450  0.24310  Biso   1.000  H
  H52      1.0000 0.10260  0.51370  0.25090  Biso   1.000  H
  H53      1.0000 0.16970  0.48950  0.34780  Biso   1.000  H
  H54      1.0000 0.10640  0.54570  0.43220  Biso   1.000  H
  H55      1.0000 0.89170  0.07230  0.41590  Biso   1.000  H
  H56      1.0000 0.73430  0.96210  0.43670  Biso   1.000  H
  H57      1.0000 0.76200  0.83510  0.44690  Biso   1.000  H
  H58      1.0000 0.11000  0.93200  0.41740  Biso   1.000  H
  H59      1.0000 0.42590  0.48450  0.37880  Biso   1.000  H
  H60      1.0000 0.59430  0.59130  0.36270  Biso   1.000  H
  H61      1.0000 0.65520  0.69170  0.43700  Biso   1.000  H
  H62      1.0000 0.37060  0.58640  0.53910  Biso   1.000  H
  H63      1.0000 0.80650  0.42790  0.41520  Biso   1.000  H
  H64      1.0000 0.67150  0.43910  0.33920  Biso   1.000  H
  H65      1.0000 0.66890  0.37540  0.24500  Biso   1.000  H
  H66      1.0000 0.91690  0.27510  0.30440  Biso   1.000  H
  H67      1.0000 0.90910  0.80160  0.82020  Biso   1.000  H
  H68      1.0000 0.78380  0.87210  0.78230  Biso   1.000  H
  H69      1.0000 0.83230  0.00570  0.78890  Biso   1.000  H
  H70      1.0000 0.00370  0.07550  0.84470  Biso   1.000  H
  H71      1.0000 0.12660  0.99570  0.88260  Biso   1.000  H
  H72      1.0000 0.59900  0.36760  0.82950  Biso   1.000  H
  H73      1.0000 0.53660  0.41550  0.74310  Biso   1.000  H
  H74      1.0000 0.39740  0.48630  0.75090  Biso   1.000  H
  H75      1.0000 0.33030  0.51050  0.84780  Biso   1.000  H
  H76      1.0000 0.39360  0.45430  0.93220  Biso   1.000  H
  H77      1.0000 0.60830  0.92770  0.91590  Biso   1.000  H
  H78      1.0000 0.76570  0.03790  0.93670  Biso   1.000  H
  H79      1.0000 0.73800  0.16490  0.94690  Biso   1.000  H
  H80      1.0000 0.39000  0.06800  0.91740  Biso   1.000  H
  H81      1.0000 0.07410  0.51550  0.87880  Biso   1.000  H
  H82      1.0000 0.90570  0.40870  0.86270  Biso   1.000  H
  H83      1.0000 0.84480  0.30830  0.93700  Biso   1.000  H
  H84      1.0000 0.12940  0.41360  0.03910  Biso   1.000  H
  H85      1.0000 0.69350  0.57210  0.91520  Biso   1.000  H
  H86      1.0000 0.82850  0.56090  0.83920  Biso   1.000  H
  H87      1.0000 0.83110  0.62460  0.74500  Biso   1.000  H
  H88      1.0000 0.58310  0.72490  0.80440  Biso   1.000  H
  C1       1.0000 0.43120  0.85790  0.67570  Biso   1.000  C
  C2       1.0000 0.35430  0.90030  0.69870  Biso   1.000  C
  C3       1.0000 0.38090  0.97740  0.69370  Biso   1.000  C
  C4       1.0000 0.48400  0.01960  0.66180  Biso   1.000  C
  C5       1.0000 0.55810  0.97040  0.63930  Biso   1.000  C
  C6       1.0000 0.04270  0.39580  0.66670  Biso   1.000  C
  C7       1.0000 0.00670  0.42430  0.71840  Biso   1.000  C
  C8       1.0000 0.92490  0.46660  0.71360  Biso   1.000  C
  C9       1.0000 0.88360  0.48010  0.65670  Biso   1.000  C
  C10      1.0000 0.92360  0.44720  0.60670  Biso   1.000  C
  C11      1.0000 0.88220  0.91180  0.59240  Biso   1.000  C
  C12      1.0000 0.98380  0.98650  0.58410  Biso   1.000  C
  C13      1.0000 0.09630  0.97870  0.57920  Biso   1.000  C
  C14      1.0000 0.19040  0.04430  0.56710  Biso   1.000  C
  C15      1.0000 0.17380  0.11990  0.56060  Biso   1.000  C
  C16      1.0000 0.05960  0.12930  0.56520  Biso   1.000  C
  C17      1.0000 0.96550  0.06220  0.57800  Biso   1.000  C
  C18      1.0000 0.03970  0.21130  0.55580  Biso   1.000  C
  C19      1.0000 0.72280  0.54730  0.52610  Biso   1.000  C
  C20      1.0000 0.61940  0.47700  0.53880  Biso   1.000  C
  C21      1.0000 0.55150  0.47430  0.59180  Biso   1.000  C
  C22      1.0000 0.44980  0.41050  0.60130  Biso   1.000  C
  C23      1.0000 0.41430  0.34990  0.55740  Biso   1.000  C
  C24      1.0000 0.48140  0.35120  0.50570  Biso   1.000  C
  C25      1.0000 0.58400  0.41380  0.49610  Biso   1.000  C
  C26      1.0000 0.44470  0.28690  0.45660  Biso   1.000  C
  C27      1.0000 0.04350  0.66220  0.58290  Biso   1.000  C
  C28      1.0000 0.12700  0.65170  0.63310  Biso   1.000  C
  C29      1.0000 0.19860  0.60030  0.62210  Biso   1.000  C
  C30      1.0000 0.27750  0.59250  0.66790  Biso   1.000  C
  C31      1.0000 0.27990  0.63170  0.72410  Biso   1.000  C
  C32      1.0000 0.20720  0.68160  0.73560  Biso   1.000  C
  C33      1.0000 0.13150  0.69120  0.68900  Biso   1.000  C
  C34      1.0000 0.21350  0.72400  0.79620  Biso   1.000  C
  C35      1.0000 0.06880  0.14210  0.17570  Biso   1.000  C
  C36      1.0000 0.14570  0.09970  0.19870  Biso   1.000  C
  C37      1.0000 0.11910  0.02260  0.19370  Biso   1.000  C
  C38      1.0000 0.01600  0.98040  0.16180  Biso   1.000  C
  C39      1.0000 0.94190  0.02960  0.13930  Biso   1.000  C
  C40      1.0000 0.45730  0.60420  0.16670  Biso   1.000  C
  C41      1.0000 0.49330  0.57570  0.21840  Biso   1.000  C
  C42      1.0000 0.57510  0.53340  0.21360  Biso   1.000  C
  C43      1.0000 0.61640  0.51990  0.15670  Biso   1.000  C
  C44      1.0000 0.57640  0.55280  0.10670  Biso   1.000  C
  C45      1.0000 0.61780  0.08820  0.09240  Biso   1.000  C
  C46      1.0000 0.51620  0.01350  0.08410  Biso   1.000  C
  C47      1.0000 0.40370  0.02130  0.07920  Biso   1.000  C
  C48      1.0000 0.30960  0.95570  0.06710  Biso   1.000  C
  C49      1.0000 0.32620  0.88010  0.06060  Biso   1.000  C
  C50      1.0000 0.44040  0.87070  0.06520  Biso   1.000  C
  C51      1.0000 0.53450  0.93780  0.07800  Biso   1.000  C
  C52      1.0000 0.46030  0.78870  0.05580  Biso   1.000  C
  C53      1.0000 0.77720  0.45270  0.02610  Biso   1.000  C
  C54      1.0000 0.88060  0.52300  0.03880  Biso   1.000  C
  C55      1.0000 0.94850  0.52570  0.09180  Biso   1.000  C
  C56      1.0000 0.05020  0.58950  0.10130  Biso   1.000  C
  C57      1.0000 0.08570  0.65010  0.05740  Biso   1.000  C
  C58      1.0000 0.01860  0.64880  0.00570  Biso   1.000  C
  C59      1.0000 0.91600  0.58620  0.99610  Biso   1.000  C
  C60      1.0000 0.05530  0.71310  0.95660  Biso   1.000  C
  C61      1.0000 0.45650  0.33780  0.08290  Biso   1.000  C
  C62      1.0000 0.37300  0.34830  0.13310  Biso   1.000  C
  C63      1.0000 0.30140  0.39970  0.12210  Biso   1.000  C
  C64      1.0000 0.22250  0.40750  0.16790  Biso   1.000  C
  C65      1.0000 0.22010  0.36830  0.22410  Biso   1.000  C
  C66      1.0000 0.29280  0.31840  0.23560  Biso   1.000  C
  C67      1.0000 0.36850  0.30880  0.18900  Biso   1.000  C
  C68      1.0000 0.28650  0.27600  0.29620  Biso   1.000  C
  C69      1.0000 0.56880  0.14210  0.32430  Biso   1.000  C
  C70      1.0000 0.64570  0.09970  0.30130  Biso   1.000  C
  C71      1.0000 0.61910  0.02260  0.30630  Biso   1.000  C
  C72      1.0000 0.51600  0.98040  0.33820  Biso   1.000  C
  C73      1.0000 0.44190  0.02960  0.36070  Biso   1.000  C
  C74      1.0000 0.95730  0.60420  0.33330  Biso   1.000  C
  C75      1.0000 0.99330  0.57570  0.28160  Biso   1.000  C
  C76      1.0000 0.07510  0.53340  0.28640  Biso   1.000  C
  C77      1.0000 0.11640  0.51990  0.34330  Biso   1.000  C
  C78      1.0000 0.07640  0.55280  0.39330  Biso   1.000  C
  C79      1.0000 0.11780  0.08820  0.40760  Biso   1.000  C
  C80      1.0000 0.01620  0.01350  0.41590  Biso   1.000  C
  C81      1.0000 0.90370  0.02130  0.42080  Biso   1.000  C
  C82      1.0000 0.80960  0.95570  0.43290  Biso   1.000  C
  C83      1.0000 0.82620  0.88010  0.43940  Biso   1.000  C
  C84      1.0000 0.94040  0.87070  0.43480  Biso   1.000  C
  C85      1.0000 0.03450  0.93780  0.42200  Biso   1.000  C
  C86      1.0000 0.96030  0.78870  0.44420  Biso   1.000  C
  C87      1.0000 0.27720  0.45270  0.47390  Biso   1.000  C
  C88      1.0000 0.38060  0.52300  0.46120  Biso   1.000  C
  C89      1.0000 0.44850  0.52570  0.40820  Biso   1.000  C
  C90      1.0000 0.55020  0.58950  0.39870  Biso   1.000  C
  C91      1.0000 0.58570  0.65010  0.44260  Biso   1.000  C
  C92      1.0000 0.51860  0.64880  0.49430  Biso   1.000  C
  C93      1.0000 0.41600  0.58620  0.50390  Biso   1.000  C
  C94      1.0000 0.55530  0.71310  0.54340  Biso   1.000  C
  C95      1.0000 0.95650  0.33780  0.41710  Biso   1.000  C
  C96      1.0000 0.87300  0.34830  0.36690  Biso   1.000  C
  C97      1.0000 0.80140  0.39970  0.37790  Biso   1.000  C
  C98      1.0000 0.72250  0.40750  0.33210  Biso   1.000  C
  C99      1.0000 0.72010  0.36830  0.27590  Biso   1.000  C
  C100     1.0000 0.79280  0.31840  0.26440  Biso   1.000  C
  C101     1.0000 0.86850  0.30880  0.31100  Biso   1.000  C
  C102     1.0000 0.78650  0.27600  0.20380  Biso   1.000  C
  C103     1.0000 0.93120  0.85790  0.82430  Biso   1.000  C
  C104     1.0000 0.85430  0.90030  0.80130  Biso   1.000  C
  C105     1.0000 0.88090  0.97740  0.80630  Biso   1.000  C
  C106     1.0000 0.98400  0.01960  0.83820  Biso   1.000  C
  C107     1.0000 0.05810  0.97040  0.86070  Biso   1.000  C
  C108     1.0000 0.54270  0.39580  0.83330  Biso   1.000  C
  C109     1.0000 0.50670  0.42430  0.78160  Biso   1.000  C
  C110     1.0000 0.42490  0.46660  0.78640  Biso   1.000  C
  C111     1.0000 0.38360  0.48010  0.84330  Biso   1.000  C
  C112     1.0000 0.42360  0.44720  0.89330  Biso   1.000  C
  C113     1.0000 0.38220  0.91180  0.90760  Biso   1.000  C
  C114     1.0000 0.48380  0.98650  0.91590  Biso   1.000  C
  C115     1.0000 0.59630  0.97870  0.92080  Biso   1.000  C
  C116     1.0000 0.69040  0.04430  0.93290  Biso   1.000  C
  C117     1.0000 0.67380  0.11990  0.93940  Biso   1.000  C
  C118     1.0000 0.55960  0.12930  0.93480  Biso   1.000  C
  C119     1.0000 0.46550  0.06220  0.92200  Biso   1.000  C
  C120     1.0000 0.53970  0.21130  0.94420  Biso   1.000  C
  C121     1.0000 0.22280  0.54730  0.97390  Biso   1.000  C
  C122     1.0000 0.11940  0.47700  0.96120  Biso   1.000  C
  C123     1.0000 0.05150  0.47430  0.90820  Biso   1.000  C
  C124     1.0000 0.94980  0.41050  0.89870  Biso   1.000  C
  C125     1.0000 0.91430  0.34990  0.94260  Biso   1.000  C
  C126     1.0000 0.98140  0.35120  0.99430  Biso   1.000  C
  C127     1.0000 0.08400  0.41380  0.00390  Biso   1.000  C
  C128     1.0000 0.94470  0.28690  0.04340  Biso   1.000  C
  C129     1.0000 0.54350  0.66220  0.91710  Biso   1.000  C
  C130     1.0000 0.62700  0.65170  0.86690  Biso   1.000  C
  C131     1.0000 0.69860  0.60030  0.87790  Biso   1.000  C
  C132     1.0000 0.77750  0.59250  0.83210  Biso   1.000  C
  C133     1.0000 0.77990  0.63170  0.77590  Biso   1.000  C
  C134     1.0000 0.70720  0.68160  0.76440  Biso   1.000  C
  C135     1.0000 0.63150  0.69120  0.81100  Biso   1.000  C
  C136     1.0000 0.71350  0.72400  0.70380  Biso   1.000  C
  N1       1.0000 0.53170  0.89300  0.64890  Biso   1.000  N
  N2       1.0000 0.00370  0.40510  0.61000  Biso   1.000  N
  N3       1.0000 0.96830  0.10700  0.14890  Biso   1.000  N
  N4       1.0000 0.49630  0.59490  0.11000  Biso   1.000  N
  N5       1.0000 0.46830  0.10700  0.35110  Biso   1.000  N
  N6       1.0000 0.99630  0.59490  0.39000  Biso   1.000  N
  N7       1.0000 0.03170  0.89300  0.85110  Biso   1.000  N
  N8       1.0000 0.50370  0.40510  0.89000  Biso   1.000  N
  O1       1.0000 0.78290  0.92100  0.60740  Biso   1.000  O
  O2       1.0000 0.90350  0.84490  0.58290  Biso   1.000  O
  O3       1.0000 0.94630  0.22360  0.57130  Biso   1.000  O
  O4       1.0000 0.12510  0.26840  0.53030  Biso   1.000  O
  O5       1.0000 0.73870  0.60670  0.56120  Biso   1.000  O
  O6       1.0000 0.78900  0.54360  0.48060  Biso   1.000  O
  O7       1.0000 0.33750  0.24370  0.45440  Biso   1.000  O
  O8       1.0000 0.51770  0.27330  0.42040  Biso   1.000  O
  O9       1.0000 0.04210  0.62240  0.53290  Biso   1.000  O
  O10      1.0000 0.98350  0.70910  0.59330  Biso   1.000  O
  O11      1.0000 0.15190  0.77260  0.80180  Biso   1.000  O
  O12      1.0000 0.27580  0.70640  0.83680  Biso   1.000  O
  O13      1.0000 0.71710  0.07900  0.10740  Biso   1.000  O
  O14      1.0000 0.59650  0.15510  0.08290  Biso   1.000  O
  O15      1.0000 0.55370  0.77640  0.07130  Biso   1.000  O
  O16      1.0000 0.37490  0.73160  0.03030  Biso   1.000  O
  O17      1.0000 0.76130  0.39330  0.06120  Biso   1.000  O
  O18      1.0000 0.71100  0.45640  0.98060  Biso   1.000  O
  O19      1.0000 0.16250  0.75630  0.95440  Biso   1.000  O
  O20      1.0000 0.98230  0.72670  0.92040  Biso   1.000  O
  O21      1.0000 0.45790  0.37760  0.03290  Biso   1.000  O
  O22      1.0000 0.51650  0.29090  0.09330  Biso   1.000  O
  O23      1.0000 0.34810  0.22740  0.30180  Biso   1.000  O
  O24      1.0000 0.22420  0.29360  0.33680  Biso   1.000  O
  O25      1.0000 0.21710  0.07900  0.39260  Biso   1.000  O
  O26      1.0000 0.09650  0.15510  0.41710  Biso   1.000  O
  O27      1.0000 0.05370  0.77640  0.42870  Biso   1.000  O
  O28      1.0000 0.87490  0.73160  0.46970  Biso   1.000  O
  O29      1.0000 0.26130  0.39330  0.43880  Biso   1.000  O
  O30      1.0000 0.21100  0.45640  0.51940  Biso   1.000  O
  O31      1.0000 0.66250  0.75630  0.54560  Biso   1.000  O
  O32      1.0000 0.48230  0.72670  0.57960  Biso   1.000  O
  O33      1.0000 0.95790  0.37760  0.46710  Biso   1.000  O
  O34      1.0000 0.01650  0.29090  0.40670  Biso   1.000  O
  O35      1.0000 0.84810  0.22740  0.19820  Biso   1.000  O
  O36      1.0000 0.72420  0.29360  0.16320  Biso   1.000  O
  O37      1.0000 0.28290  0.92100  0.89260  Biso   1.000  O
  O38      1.0000 0.40350  0.84490  0.91710  Biso   1.000  O
  O39      1.0000 0.44630  0.22360  0.92870  Biso   1.000  O
  O40      1.0000 0.62510  0.26840  0.96970  Biso   1.000  O
  O41      1.0000 0.23870  0.60670  0.93880  Biso   1.000  O
  O42      1.0000 0.28900  0.54360  0.01940  Biso   1.000  O
  O43      1.0000 0.83750  0.24370  0.04560  Biso   1.000  O
  O44      1.0000 0.01770  0.27330  0.07960  Biso   1.000  O
  O45      1.0000 0.54210  0.62240  0.96710  Biso   1.000  O
  O46      1.0000 0.48350  0.70910  0.90670  Biso   1.000  O
  O47      1.0000 0.65190  0.77260  0.69820  Biso   1.000  O
  O48      1.0000 0.77580  0.70640  0.66320  Biso   1.000  O
