data_image0
_cell_length_a       12.939
_cell_length_b       13.092
_cell_length_c       13.754
_cell_angle_alpha    85.449
_cell_angle_beta     70.302
_cell_angle_gamma    83.731

_symmetry_space_group_name_H-M    P 1
_symmetry_int_tables_number       1

loop_
  _symmetry_equiv_pos_as_xyz
  'x, y, z'

loop_
  _atom_site_label
  _atom_site_occupancy
  _atom_site_fract_x
  _atom_site_fract_y
  _atom_site_fract_z
  _atom_site_thermal_displace_type
  _atom_site_B_iso_or_equiv
  _atom_site_type_symbol
  Co1      1.0000 0.19486  0.81682  0.17002  Biso   1.000  Co
  Co2      1.0000 0.12776  0.82552  0.38169  Biso   1.000  Co
  H1       1.0000 0.87230  0.80340  0.16890  Biso   1.000  H
  H2       1.0000 0.74380  0.78160  0.07650  Biso   1.000  H
  H3       1.0000 0.56630  0.78280  0.07760  Biso   1.000  H
  H4       1.0000 0.44990  0.83240  0.38140  Biso   1.000  H
  H5       1.0000 0.58060  0.85120  0.47580  Biso   1.000  H
  H6       1.0000 0.75870  0.85780  0.47240  Biso   1.000  H
  H7       1.0000 0.12670  0.15530  0.40060  Biso   1.000  H
  H8       1.0000 0.10570  0.32520  0.47980  Biso   1.000  H
  H9       1.0000 0.11700  0.49950  0.46140  Biso   1.000  H
  H10      1.0000 0.20740  0.48620  0.15010  Biso   1.000  H
  H11      1.0000 0.21790  0.31950  0.07260  Biso   1.000  H
  H12      1.0000 0.20740  0.14490  0.09270  Biso   1.000  H
  H13      1.0000 0.07910  0.94570  0.04110  Biso   1.000  H
  H14      1.0000 0.04210  0.93890  0.88820  Biso   1.000  H
  H15      1.0000 0.21100  0.67080  0.83910  Biso   1.000  H
  H16      1.0000 0.22510  0.67330  0.00060  Biso   1.000  H
  H17      1.0000 0.11490  0.97030  0.71000  Biso   1.000  H
  H18      1.0000 0.10410  0.97100  0.54670  Biso   1.000  H
  H19      1.0000 0.20430  0.68480  0.52390  Biso   1.000  H
  H20      1.0000 0.23230  0.67910  0.68220  Biso   1.000  H
  C1       1.0000 0.94810  0.83080  0.31720  Biso   1.000  C
  C2       1.0000 0.83360  0.82880  0.31880  Biso   1.000  C
  C3       1.0000 0.81210  0.81340  0.23110  Biso   1.000  C
  C4       1.0000 0.70380  0.81170  0.22870  Biso   1.000  C
  C5       1.0000 0.68400  0.79360  0.13860  Biso   1.000  C
  C6       1.0000 0.57910  0.79340  0.13990  Biso   1.000  C
  C7       1.0000 0.48780  0.80840  0.23140  Biso   1.000  C
  C8       1.0000 0.51010  0.82370  0.31900  Biso   1.000  C
  C9       1.0000 0.61570  0.82730  0.32200  Biso   1.000  C
  C10      1.0000 0.63950  0.84250  0.41240  Biso   1.000  C
  C11      1.0000 0.74500  0.84510  0.41100  Biso   1.000  C
  C12      1.0000 0.37330  0.80930  0.23270  Biso   1.000  C
  C13      1.0000 0.15990  0.01860  0.26160  Biso   1.000  C
  C14      1.0000 0.16530  0.13290  0.25020  Biso   1.000  C
  C15      1.0000 0.14450  0.18930  0.33420  Biso   1.000  C
  C16      1.0000 0.14840  0.29560  0.32590  Biso   1.000  C
  C17      1.0000 0.12580  0.35740  0.41240  Biso   1.000  C
  C18      1.0000 0.13180  0.46050  0.40200  Biso   1.000  C
  C19      1.0000 0.16030  0.51000  0.30240  Biso   1.000  C
  C20      1.0000 0.18480  0.45300  0.21700  Biso   1.000  C
  C21      1.0000 0.17700  0.34520  0.22680  Biso   1.000  C
  C22      1.0000 0.19890  0.28690  0.13980  Biso   1.000  C
  C23      1.0000 0.19270  0.18390  0.15200  Biso   1.000  C
  C24      1.0000 0.16370  0.62340  0.29130  Biso   1.000  C
  C25      1.0000 0.11470  0.89170  0.99590  Biso   1.000  C
  C26      1.0000 0.09590  0.89110  0.90330  Biso   1.000  C
  C27      1.0000 0.15870  0.81720  0.83070  Biso   1.000  C
  C28      1.0000 0.19290  0.73330  0.87420  Biso   1.000  C
  C29      1.0000 0.20240  0.73610  0.97110  Biso   1.000  C
  C30      1.0000 0.14890  0.81950  0.72660  Biso   1.000  C
  C31      1.0000 0.12640  0.90700  0.67700  Biso   1.000  C
  C32      1.0000 0.11960  0.90700  0.57900  Biso   1.000  C
  C33      1.0000 0.17920  0.74310  0.56530  Biso   1.000  C
  C34      1.0000 0.19330  0.73750  0.66120  Biso   1.000  C
  N1       1.0000 0.18290  0.81750  0.02550  Biso   1.000  N
  N2       1.0000 0.13340  0.82400  0.52860  Biso   1.000  N
  O1       1.0000 0.02340  0.82539  0.22994  Biso   1.000  O
  O2       1.0000 0.96460  0.83744  0.40143  Biso   1.000  O
  O3       1.0000 0.29810  0.81093  0.31790  Biso   1.000  O
  O4       1.0000 0.35750  0.80850  0.14640  Biso   1.000  O
  O5       1.0000 0.18220  0.97140  0.17849  Biso   1.000  O
  O6       1.0000 0.13450  0.97822  0.35051  Biso   1.000  O
  O7       1.0000 0.13640  0.67197  0.37354  Biso   1.000  O
  O8       1.0000 0.19210  0.66542  0.20123  Biso   1.000  O
  Co3      1.0000 0.80514  0.18318  0.82998  Biso   1.000  Co
  Co4      1.0000 0.87224  0.17448  0.61831  Biso   1.000  Co
  H21      1.0000 0.12770  0.19660  0.83110  Biso   1.000  H
  H22      1.0000 0.25620  0.21840  0.92350  Biso   1.000  H
  H23      1.0000 0.43370  0.21720  0.92240  Biso   1.000  H
  H24      1.0000 0.55010  0.16760  0.61860  Biso   1.000  H
  H25      1.0000 0.41940  0.14880  0.52420  Biso   1.000  H
  H26      1.0000 0.24130  0.14220  0.52760  Biso   1.000  H
  H27      1.0000 0.87330  0.84470  0.59940  Biso   1.000  H
  H28      1.0000 0.89430  0.67480  0.52020  Biso   1.000  H
  H29      1.0000 0.88300  0.50050  0.53860  Biso   1.000  H
  H30      1.0000 0.79260  0.51380  0.84990  Biso   1.000  H
  H31      1.0000 0.78210  0.68050  0.92740  Biso   1.000  H
  H32      1.0000 0.79260  0.85510  0.90730  Biso   1.000  H
  H33      1.0000 0.92090  0.05430  0.95890  Biso   1.000  H
  H34      1.0000 0.95790  0.06110  0.11180  Biso   1.000  H
  H35      1.0000 0.78900  0.32920  0.16090  Biso   1.000  H
  H36      1.0000 0.77490  0.32670  0.99940  Biso   1.000  H
  H37      1.0000 0.88510  0.02970  0.29000  Biso   1.000  H
  H38      1.0000 0.89590  0.02900  0.45330  Biso   1.000  H
  H39      1.0000 0.79570  0.31520  0.47610  Biso   1.000  H
  H40      1.0000 0.76770  0.32090  0.31780  Biso   1.000  H
  C35      1.0000 0.05190  0.16920  0.68280  Biso   1.000  C
  C36      1.0000 0.16640  0.17120  0.68120  Biso   1.000  C
  C37      1.0000 0.18790  0.18660  0.76890  Biso   1.000  C
  C38      1.0000 0.29620  0.18830  0.77130  Biso   1.000  C
  C39      1.0000 0.31600  0.20640  0.86140  Biso   1.000  C
  C40      1.0000 0.42090  0.20660  0.86010  Biso   1.000  C
  C41      1.0000 0.51220  0.19160  0.76860  Biso   1.000  C
  C42      1.0000 0.48990  0.17630  0.68100  Biso   1.000  C
  C43      1.0000 0.38430  0.17270  0.67800  Biso   1.000  C
  C44      1.0000 0.36050  0.15750  0.58760  Biso   1.000  C
  C45      1.0000 0.25500  0.15490  0.58900  Biso   1.000  C
  C46      1.0000 0.62670  0.19070  0.76730  Biso   1.000  C
  C47      1.0000 0.84010  0.98140  0.73840  Biso   1.000  C
  C48      1.0000 0.83470  0.86710  0.74980  Biso   1.000  C
  C49      1.0000 0.85550  0.81070  0.66580  Biso   1.000  C
  C50      1.0000 0.85160  0.70440  0.67410  Biso   1.000  C
  C51      1.0000 0.87420  0.64260  0.58760  Biso   1.000  C
  C52      1.0000 0.86820  0.53950  0.59800  Biso   1.000  C
  C53      1.0000 0.83970  0.49000  0.69760  Biso   1.000  C
  C54      1.0000 0.81520  0.54700  0.78300  Biso   1.000  C
  C55      1.0000 0.82300  0.65480  0.77320  Biso   1.000  C
  C56      1.0000 0.80110  0.71310  0.86020  Biso   1.000  C
  C57      1.0000 0.80730  0.81610  0.84800  Biso   1.000  C
  C58      1.0000 0.83630  0.37660  0.70870  Biso   1.000  C
  C59      1.0000 0.88530  0.10830  0.00410  Biso   1.000  C
  C60      1.0000 0.90410  0.10890  0.09670  Biso   1.000  C
  C61      1.0000 0.84130  0.18280  0.16930  Biso   1.000  C
  C62      1.0000 0.80710  0.26670  0.12580  Biso   1.000  C
  C63      1.0000 0.79760  0.26390  0.02890  Biso   1.000  C
  C64      1.0000 0.85110  0.18050  0.27340  Biso   1.000  C
  C65      1.0000 0.87360  0.09300  0.32300  Biso   1.000  C
  C66      1.0000 0.88040  0.09300  0.42100  Biso   1.000  C
  C67      1.0000 0.82080  0.25690  0.43470  Biso   1.000  C
  C68      1.0000 0.80670  0.26250  0.33880  Biso   1.000  C
  N3       1.0000 0.81710  0.18250  0.97450  Biso   1.000  N
  N4       1.0000 0.86660  0.17600  0.47140  Biso   1.000  N
  O9       1.0000 0.97660  0.17461  0.77006  Biso   1.000  O
  O10      1.0000 0.03540  0.16256  0.59857  Biso   1.000  O
  O11      1.0000 0.70190  0.18907  0.68210  Biso   1.000  O
  O12      1.0000 0.64250  0.19150  0.85360  Biso   1.000  O
  O13      1.0000 0.81780  0.02860  0.82151  Biso   1.000  O
  O14      1.0000 0.86550  0.02178  0.64949  Biso   1.000  O
  O15      1.0000 0.86360  0.32803  0.62646  Biso   1.000  O
  O16      1.0000 0.80790  0.33458  0.79877  Biso   1.000  O
