data_image0
_cell_length_a       9.9562
_cell_length_b       14.8904
_cell_length_c       28.226
_cell_angle_alpha    90
_cell_angle_beta     90
_cell_angle_gamma    106.306

_symmetry_space_group_name_H-M    P 1
_symmetry_int_tables_number       1

loop_
  _symmetry_equiv_pos_as_xyz
  'x, y, z'

loop_
  _atom_site_label
  _atom_site_occupancy
  _atom_site_fract_x
  _atom_site_fract_y
  _atom_site_fract_z
  _atom_site_thermal_displace_type
  _atom_site_B_iso_or_equiv
  _atom_site_type_symbol
  Ni1      1.0000 0.18217  0.82913  0.49040  Biso   1.000  Ni
  Ni2      1.0000 0.76616  0.48911  0.33563  Biso   1.000  Ni
  Ni3      1.0000 0.31783  0.17087  0.99040  Biso   1.000  Ni
  Ni4      1.0000 0.73384  0.51089  0.83563  Biso   1.000  Ni
  Ni5      1.0000 0.81783  0.17087  0.50960  Biso   1.000  Ni
  Ni6      1.0000 0.23384  0.51089  0.66437  Biso   1.000  Ni
  Ni7      1.0000 0.68217  0.82913  0.00960  Biso   1.000  Ni
  Ni8      1.0000 0.26616  0.48911  0.16437  Biso   1.000  Ni
  H1       1.0000 0.26100  0.69200  0.50860  Biso   1.000  H
  H2       1.0000 0.30000  0.71600  0.46160  Biso   1.000  H
  H3       1.0000 0.94100  0.73300  0.50560  Biso   1.000  H
  H4       1.0000 0.97400  0.71400  0.45980  Biso   1.000  H
  H5       1.0000 0.95000  0.52700  0.39590  Biso   1.000  H
  H6       1.0000 0.90500  0.43000  0.39360  Biso   1.000  H
  H7       1.0000 0.69220  0.52200  0.41500  Biso   1.000  H
  H8       1.0000 0.63500  0.42940  0.40460  Biso   1.000  H
  H9       1.0000 0.31940  0.72280  0.31350  Biso   1.000  H
  H10      1.0000 0.28960  0.74380  0.23270  Biso   1.000  H
  H11      1.0000 0.14400  0.83340  0.20790  Biso   1.000  H
  H12      1.0000 0.00770  0.88390  0.26270  Biso   1.000  H
  H13      1.0000 0.01830  0.99270  0.34240  Biso   1.000  H
  H14      1.0000 0.85190  0.02100  0.39490  Biso   1.000  H
  H15      1.0000 0.69810  0.89830  0.43350  Biso   1.000  H
  H16      1.0000 0.70910  0.74710  0.42360  Biso   1.000  H
  H17      1.0000 0.37780  0.16390  0.36150  Biso   1.000  H
  H18      1.0000 0.30110  0.00560  0.34300  Biso   1.000  H
  H19      1.0000 0.46400  0.92900  0.31920  Biso   1.000  H
  H20      1.0000 0.69980  0.00980  0.31330  Biso   1.000  H
  H21      1.0000 0.84560  0.13180  0.26130  Biso   1.000  H
  H22      1.0000 0.08340  0.18550  0.25100  Biso   1.000  H
  H23      1.0000 0.22600  0.27070  0.31070  Biso   1.000  H
  H24      1.0000 0.12460  0.30320  0.38110  Biso   1.000  H
  H25      1.0000 0.92160  0.85880  0.53660  Biso   1.000  H
  H26      1.0000 0.19230  0.02770  0.45260  Biso   1.000  H
  H27      1.0000 0.40890  0.94930  0.42780  Biso   1.000  H
  H28      1.0000 0.37670  0.94020  0.56650  Biso   1.000  H
  H29      1.0000 0.55660  0.60620  0.31170  Biso   1.000  H
  H30      1.0000 0.89020  0.60500  0.24490  Biso   1.000  H
  H31      1.0000 0.93720  0.37090  0.29700  Biso   1.000  H
  H32      1.0000 0.60910  0.37480  0.25780  Biso   1.000  H
  H33      1.0000 0.23900  0.30800  0.00860  Biso   1.000  H
  H34      1.0000 0.20000  0.28400  0.96160  Biso   1.000  H
  H35      1.0000 0.55900  0.26700  0.00560  Biso   1.000  H
  H36      1.0000 0.52600  0.28600  0.95980  Biso   1.000  H
  H37      1.0000 0.55000  0.47300  0.89590  Biso   1.000  H
  H38      1.0000 0.59500  0.57000  0.89360  Biso   1.000  H
  H39      1.0000 0.80780  0.47800  0.91500  Biso   1.000  H
  H40      1.0000 0.86500  0.57060  0.90460  Biso   1.000  H
  H41      1.0000 0.18060  0.27720  0.81350  Biso   1.000  H
  H42      1.0000 0.21040  0.25620  0.73270  Biso   1.000  H
  H43      1.0000 0.35600  0.16660  0.70790  Biso   1.000  H
  H44      1.0000 0.49230  0.11610  0.76270  Biso   1.000  H
  H45      1.0000 0.48170  0.00730  0.84240  Biso   1.000  H
  H46      1.0000 0.64810  0.97900  0.89490  Biso   1.000  H
  H47      1.0000 0.80190  0.10170  0.93350  Biso   1.000  H
  H48      1.0000 0.79090  0.25290  0.92360  Biso   1.000  H
  H49      1.0000 0.12220  0.83610  0.86150  Biso   1.000  H
  H50      1.0000 0.19890  0.99440  0.84300  Biso   1.000  H
  H51      1.0000 0.03600  0.07100  0.81920  Biso   1.000  H
  H52      1.0000 0.80020  0.99020  0.81330  Biso   1.000  H
  H53      1.0000 0.65440  0.86820  0.76130  Biso   1.000  H
  H54      1.0000 0.41660  0.81450  0.75100  Biso   1.000  H
  H55      1.0000 0.27400  0.72930  0.81070  Biso   1.000  H
  H56      1.0000 0.37540  0.69680  0.88110  Biso   1.000  H
  H57      1.0000 0.57840  0.14120  0.03660  Biso   1.000  H
  H58      1.0000 0.30770  0.97230  0.95260  Biso   1.000  H
  H59      1.0000 0.09110  0.05070  0.92780  Biso   1.000  H
  H60      1.0000 0.12330  0.05980  0.06650  Biso   1.000  H
  H61      1.0000 0.94340  0.39380  0.81170  Biso   1.000  H
  H62      1.0000 0.60980  0.39500  0.74490  Biso   1.000  H
  H63      1.0000 0.56280  0.62910  0.79700  Biso   1.000  H
  H64      1.0000 0.89090  0.62520  0.75780  Biso   1.000  H
  H65      1.0000 0.73900  0.30800  0.49140  Biso   1.000  H
  H66      1.0000 0.70000  0.28400  0.53840  Biso   1.000  H
  H67      1.0000 0.05900  0.26700  0.49440  Biso   1.000  H
  H68      1.0000 0.02600  0.28600  0.54020  Biso   1.000  H
  H69      1.0000 0.05000  0.47300  0.60410  Biso   1.000  H
  H70      1.0000 0.09500  0.57000  0.60640  Biso   1.000  H
  H71      1.0000 0.30780  0.47800  0.58500  Biso   1.000  H
  H72      1.0000 0.36500  0.57060  0.59540  Biso   1.000  H
  H73      1.0000 0.68060  0.27720  0.68650  Biso   1.000  H
  H74      1.0000 0.71040  0.25620  0.76730  Biso   1.000  H
  H75      1.0000 0.85600  0.16660  0.79210  Biso   1.000  H
  H76      1.0000 0.99230  0.11610  0.73730  Biso   1.000  H
  H77      1.0000 0.98170  0.00730  0.65760  Biso   1.000  H
  H78      1.0000 0.14810  0.97900  0.60510  Biso   1.000  H
  H79      1.0000 0.30190  0.10170  0.56650  Biso   1.000  H
  H80      1.0000 0.29090  0.25290  0.57640  Biso   1.000  H
  H81      1.0000 0.62220  0.83610  0.63850  Biso   1.000  H
  H82      1.0000 0.69890  0.99440  0.65700  Biso   1.000  H
  H83      1.0000 0.53600  0.07100  0.68080  Biso   1.000  H
  H84      1.0000 0.30020  0.99020  0.68670  Biso   1.000  H
  H85      1.0000 0.15440  0.86820  0.73870  Biso   1.000  H
  H86      1.0000 0.91660  0.81450  0.74900  Biso   1.000  H
  H87      1.0000 0.77400  0.72930  0.68930  Biso   1.000  H
  H88      1.0000 0.87540  0.69680  0.61890  Biso   1.000  H
  H89      1.0000 0.07840  0.14120  0.46340  Biso   1.000  H
  H90      1.0000 0.80770  0.97230  0.54740  Biso   1.000  H
  H91      1.0000 0.59110  0.05070  0.57220  Biso   1.000  H
  H92      1.0000 0.62330  0.05980  0.43350  Biso   1.000  H
  H93      1.0000 0.44340  0.39380  0.68830  Biso   1.000  H
  H94      1.0000 0.10980  0.39500  0.75510  Biso   1.000  H
  H95      1.0000 0.06280  0.62910  0.70300  Biso   1.000  H
  H96      1.0000 0.39090  0.62520  0.74220  Biso   1.000  H
  H97      1.0000 0.76100  0.69200  0.99140  Biso   1.000  H
  H98      1.0000 0.80000  0.71600  0.03840  Biso   1.000  H
  H99      1.0000 0.44100  0.73300  0.99440  Biso   1.000  H
  H100     1.0000 0.47400  0.71400  0.04020  Biso   1.000  H
  H101     1.0000 0.45000  0.52700  0.10410  Biso   1.000  H
  H102     1.0000 0.40500  0.43000  0.10640  Biso   1.000  H
  H103     1.0000 0.19220  0.52200  0.08500  Biso   1.000  H
  H104     1.0000 0.13500  0.42940  0.09540  Biso   1.000  H
  H105     1.0000 0.81940  0.72280  0.18650  Biso   1.000  H
  H106     1.0000 0.78960  0.74380  0.26730  Biso   1.000  H
  H107     1.0000 0.64400  0.83340  0.29210  Biso   1.000  H
  H108     1.0000 0.50770  0.88390  0.23730  Biso   1.000  H
  H109     1.0000 0.51830  0.99270  0.15760  Biso   1.000  H
  H110     1.0000 0.35190  0.02100  0.10510  Biso   1.000  H
  H111     1.0000 0.19810  0.89830  0.06650  Biso   1.000  H
  H112     1.0000 0.20910  0.74710  0.07640  Biso   1.000  H
  H113     1.0000 0.87780  0.16390  0.13850  Biso   1.000  H
  H114     1.0000 0.80110  0.00560  0.15700  Biso   1.000  H
  H115     1.0000 0.96400  0.92900  0.18080  Biso   1.000  H
  H116     1.0000 0.19980  0.00980  0.18670  Biso   1.000  H
  H117     1.0000 0.34560  0.13180  0.23870  Biso   1.000  H
  H118     1.0000 0.58340  0.18550  0.24900  Biso   1.000  H
  H119     1.0000 0.72600  0.27070  0.18930  Biso   1.000  H
  H120     1.0000 0.62460  0.30320  0.11890  Biso   1.000  H
  H121     1.0000 0.42160  0.85880  0.96340  Biso   1.000  H
  H122     1.0000 0.69230  0.02770  0.04740  Biso   1.000  H
  H123     1.0000 0.90890  0.94930  0.07220  Biso   1.000  H
  H124     1.0000 0.87670  0.94020  0.93350  Biso   1.000  H
  H125     1.0000 0.05660  0.60620  0.18830  Biso   1.000  H
  H126     1.0000 0.39020  0.60500  0.25510  Biso   1.000  H
  H127     1.0000 0.43720  0.37090  0.20300  Biso   1.000  H
  H128     1.0000 0.10910  0.37480  0.24220  Biso   1.000  H
  C1       1.0000 0.20720  0.77590  0.38868  Biso   1.000  C
  C2       1.0000 0.17370  0.78650  0.33691  Biso   1.000  C
  C3       1.0000 0.25410  0.75450  0.30322  Biso   1.000  C
  C4       1.0000 0.23900  0.76860  0.25520  Biso   1.000  C
  C5       1.0000 0.14980  0.81920  0.24052  Biso   1.000  C
  C6       1.0000 0.06880  0.84910  0.27330  Biso   1.000  C
  C7       1.0000 0.07440  0.82980  0.32146  Biso   1.000  C
  C8       1.0000 0.96920  0.85160  0.35343  Biso   1.000  C
  C9       1.0000 0.95770  0.94230  0.35930  Biso   1.000  C
  C10      1.0000 0.85710  0.95890  0.39000  Biso   1.000  C
  C11      1.0000 0.76680  0.88630  0.41300  Biso   1.000  C
  C12      1.0000 0.77290  0.79680  0.40720  Biso   1.000  C
  C13      1.0000 0.87220  0.77840  0.37724  Biso   1.000  C
  C14      1.0000 0.87320  0.67790  0.37278  Biso   1.000  C
  C15      1.0000 0.61630  0.28650  0.35769  Biso   1.000  C
  C16      1.0000 0.58510  0.18350  0.34836  Biso   1.000  C
  C17      1.0000 0.44400  0.13260  0.35155  Biso   1.000  C
  C18      1.0000 0.39760  0.03860  0.34080  Biso   1.000  C
  C19      1.0000 0.49400  0.99380  0.32664  Biso   1.000  C
  C20      1.0000 0.63490  0.04210  0.32315  Biso   1.000  C
  C21      1.0000 0.68290  0.13760  0.33385  Biso   1.000  C
  C22      1.0000 0.83730  0.18130  0.32835  Biso   1.000  C
  C23      1.0000 0.90180  0.16570  0.28614  Biso   1.000  C
  C24      1.0000 0.04280  0.19800  0.27990  Biso   1.000  C
  C25      1.0000 0.12760  0.24870  0.31510  Biso   1.000  C
  C26      1.0000 0.06730  0.26710  0.35703  Biso   1.000  C
  C27      1.0000 0.92300  0.23280  0.36414  Biso   1.000  C
  C28      1.0000 0.12910  0.75330  0.58696  Biso   1.000  C
  C29      1.0000 0.95630  0.91740  0.52103  Biso   1.000  C
  C30      1.0000 0.11240  0.01470  0.47261  Biso   1.000  C
  C31      1.0000 0.44530  0.96960  0.45826  Biso   1.000  C
  C32      1.0000 0.42650  0.96420  0.53838  Biso   1.000  C
  C33      1.0000 0.53460  0.55740  0.28886  Biso   1.000  C
  C34      1.0000 0.93460  0.55630  0.24477  Biso   1.000  C
  C35      1.0000 0.96240  0.42140  0.27510  Biso   1.000  C
  C36      1.0000 0.56420  0.42330  0.25792  Biso   1.000  C
  C37      1.0000 0.29280  0.22410  0.88868  Biso   1.000  C
  C38      1.0000 0.32630  0.21350  0.83691  Biso   1.000  C
  C39      1.0000 0.24590  0.24550  0.80322  Biso   1.000  C
  C40      1.0000 0.26100  0.23140  0.75520  Biso   1.000  C
  C41      1.0000 0.35020  0.18080  0.74052  Biso   1.000  C
  C42      1.0000 0.43120  0.15090  0.77330  Biso   1.000  C
  C43      1.0000 0.42560  0.17020  0.82146  Biso   1.000  C
  C44      1.0000 0.53080  0.14840  0.85343  Biso   1.000  C
  C45      1.0000 0.54230  0.05770  0.85930  Biso   1.000  C
  C46      1.0000 0.64290  0.04110  0.89000  Biso   1.000  C
  C47      1.0000 0.73320  0.11370  0.91300  Biso   1.000  C
  C48      1.0000 0.72710  0.20320  0.90720  Biso   1.000  C
  C49      1.0000 0.62780  0.22160  0.87724  Biso   1.000  C
  C50      1.0000 0.62680  0.32210  0.87278  Biso   1.000  C
  C51      1.0000 0.88370  0.71350  0.85769  Biso   1.000  C
  C52      1.0000 0.91490  0.81650  0.84836  Biso   1.000  C
  C53      1.0000 0.05600  0.86740  0.85155  Biso   1.000  C
  C54      1.0000 0.10240  0.96140  0.84080  Biso   1.000  C
  C55      1.0000 0.00600  0.00620  0.82664  Biso   1.000  C
  C56      1.0000 0.86510  0.95790  0.82315  Biso   1.000  C
  C57      1.0000 0.81710  0.86240  0.83385  Biso   1.000  C
  C58      1.0000 0.66270  0.81870  0.82835  Biso   1.000  C
  C59      1.0000 0.59820  0.83430  0.78614  Biso   1.000  C
  C60      1.0000 0.45720  0.80200  0.77990  Biso   1.000  C
  C61      1.0000 0.37240  0.75130  0.81510  Biso   1.000  C
  C62      1.0000 0.43270  0.73290  0.85703  Biso   1.000  C
  C63      1.0000 0.57700  0.76720  0.86414  Biso   1.000  C
  C64      1.0000 0.37090  0.24670  0.08696  Biso   1.000  C
  C65      1.0000 0.54370  0.08260  0.02103  Biso   1.000  C
  C66      1.0000 0.38760  0.98530  0.97261  Biso   1.000  C
  C67      1.0000 0.05470  0.03040  0.95826  Biso   1.000  C
  C68      1.0000 0.07350  0.03580  0.03838  Biso   1.000  C
  C69      1.0000 0.96540  0.44260  0.78886  Biso   1.000  C
  C70      1.0000 0.56540  0.44370  0.74477  Biso   1.000  C
  C71      1.0000 0.53760  0.57860  0.77510  Biso   1.000  C
  C72      1.0000 0.93580  0.57670  0.75792  Biso   1.000  C
  C73      1.0000 0.79280  0.22410  0.61132  Biso   1.000  C
  C74      1.0000 0.82630  0.21350  0.66309  Biso   1.000  C
  C75      1.0000 0.74590  0.24550  0.69678  Biso   1.000  C
  C76      1.0000 0.76100  0.23140  0.74480  Biso   1.000  C
  C77      1.0000 0.85020  0.18080  0.75948  Biso   1.000  C
  C78      1.0000 0.93120  0.15090  0.72670  Biso   1.000  C
  C79      1.0000 0.92560  0.17020  0.67854  Biso   1.000  C
  C80      1.0000 0.03080  0.14840  0.64657  Biso   1.000  C
  C81      1.0000 0.04230  0.05770  0.64070  Biso   1.000  C
  C82      1.0000 0.14290  0.04110  0.61000  Biso   1.000  C
  C83      1.0000 0.23320  0.11370  0.58700  Biso   1.000  C
  C84      1.0000 0.22710  0.20320  0.59280  Biso   1.000  C
  C85      1.0000 0.12780  0.22160  0.62276  Biso   1.000  C
  C86      1.0000 0.12680  0.32210  0.62722  Biso   1.000  C
  C87      1.0000 0.38370  0.71350  0.64231  Biso   1.000  C
  C88      1.0000 0.41490  0.81650  0.65164  Biso   1.000  C
  C89      1.0000 0.55600  0.86740  0.64845  Biso   1.000  C
  C90      1.0000 0.60240  0.96140  0.65920  Biso   1.000  C
  C91      1.0000 0.50600  0.00620  0.67336  Biso   1.000  C
  C92      1.0000 0.36510  0.95790  0.67685  Biso   1.000  C
  C93      1.0000 0.31710  0.86240  0.66615  Biso   1.000  C
  C94      1.0000 0.16270  0.81870  0.67165  Biso   1.000  C
  C95      1.0000 0.09820  0.83430  0.71386  Biso   1.000  C
  C96      1.0000 0.95720  0.80200  0.72010  Biso   1.000  C
  C97      1.0000 0.87240  0.75130  0.68490  Biso   1.000  C
  C98      1.0000 0.93270  0.73290  0.64297  Biso   1.000  C
  C99      1.0000 0.07700  0.76720  0.63586  Biso   1.000  C
  C100     1.0000 0.87090  0.24670  0.41304  Biso   1.000  C
  C101     1.0000 0.04370  0.08260  0.47897  Biso   1.000  C
  C102     1.0000 0.88760  0.98530  0.52739  Biso   1.000  C
  C103     1.0000 0.55470  0.03040  0.54174  Biso   1.000  C
  C104     1.0000 0.57350  0.03580  0.46162  Biso   1.000  C
  C105     1.0000 0.46540  0.44260  0.71114  Biso   1.000  C
  C106     1.0000 0.06540  0.44370  0.75523  Biso   1.000  C
  C107     1.0000 0.03760  0.57860  0.72490  Biso   1.000  C
  C108     1.0000 0.43580  0.57670  0.74208  Biso   1.000  C
  C109     1.0000 0.70720  0.77590  0.11132  Biso   1.000  C
  C110     1.0000 0.67370  0.78650  0.16309  Biso   1.000  C
  C111     1.0000 0.75410  0.75450  0.19678  Biso   1.000  C
  C112     1.0000 0.73900  0.76860  0.24480  Biso   1.000  C
  C113     1.0000 0.64980  0.81920  0.25948  Biso   1.000  C
  C114     1.0000 0.56880  0.84910  0.22670  Biso   1.000  C
  C115     1.0000 0.57440  0.82980  0.17854  Biso   1.000  C
  C116     1.0000 0.46920  0.85160  0.14657  Biso   1.000  C
  C117     1.0000 0.45770  0.94230  0.14070  Biso   1.000  C
  C118     1.0000 0.35710  0.95890  0.11000  Biso   1.000  C
  C119     1.0000 0.26680  0.88630  0.08700  Biso   1.000  C
  C120     1.0000 0.27290  0.79680  0.09280  Biso   1.000  C
  C121     1.0000 0.37220  0.77840  0.12276  Biso   1.000  C
  C122     1.0000 0.37320  0.67790  0.12722  Biso   1.000  C
  C123     1.0000 0.11630  0.28650  0.14231  Biso   1.000  C
  C124     1.0000 0.08510  0.18350  0.15164  Biso   1.000  C
  C125     1.0000 0.94400  0.13260  0.14845  Biso   1.000  C
  C126     1.0000 0.89760  0.03860  0.15920  Biso   1.000  C
  C127     1.0000 0.99400  0.99380  0.17336  Biso   1.000  C
  C128     1.0000 0.13490  0.04210  0.17685  Biso   1.000  C
  C129     1.0000 0.18290  0.13760  0.16615  Biso   1.000  C
  C130     1.0000 0.33730  0.18130  0.17165  Biso   1.000  C
  C131     1.0000 0.40180  0.16570  0.21386  Biso   1.000  C
  C132     1.0000 0.54280  0.19800  0.22010  Biso   1.000  C
  C133     1.0000 0.62760  0.24870  0.18490  Biso   1.000  C
  C134     1.0000 0.56730  0.26710  0.14297  Biso   1.000  C
  C135     1.0000 0.42300  0.23280  0.13586  Biso   1.000  C
  C136     1.0000 0.62910  0.75330  0.91304  Biso   1.000  C
  C137     1.0000 0.45630  0.91740  0.97897  Biso   1.000  C
  C138     1.0000 0.61240  0.01470  0.02739  Biso   1.000  C
  C139     1.0000 0.94530  0.96960  0.04174  Biso   1.000  C
  C140     1.0000 0.92650  0.96420  0.96162  Biso   1.000  C
  C141     1.0000 0.03460  0.55740  0.21114  Biso   1.000  C
  C142     1.0000 0.43460  0.55630  0.25523  Biso   1.000  C
  C143     1.0000 0.46240  0.42140  0.22490  Biso   1.000  C
  C144     1.0000 0.06420  0.42330  0.24208  Biso   1.000  C
  N1       1.0000 0.06930  0.93130  0.49386  Biso   1.000  N
  N2       1.0000 0.37120  0.93340  0.49631  Biso   1.000  N
  N3       1.0000 0.60200  0.49120  0.29016  Biso   1.000  N
  N4       1.0000 0.89780  0.48860  0.27732  Biso   1.000  N
  N5       1.0000 0.43070  0.06870  0.99386  Biso   1.000  N
  N6       1.0000 0.12880  0.06660  0.99631  Biso   1.000  N
  N7       1.0000 0.89800  0.50880  0.79016  Biso   1.000  N
  N8       1.0000 0.60220  0.51140  0.77732  Biso   1.000  N
  N9       1.0000 0.93070  0.06870  0.50614  Biso   1.000  N
  N10      1.0000 0.62880  0.06660  0.50369  Biso   1.000  N
  N11      1.0000 0.39800  0.50880  0.70984  Biso   1.000  N
  N12      1.0000 0.10220  0.51140  0.72268  Biso   1.000  N
  N13      1.0000 0.56930  0.93130  0.00614  Biso   1.000  N
  N14      1.0000 0.87120  0.93340  0.00369  Biso   1.000  N
  N15      1.0000 0.10200  0.49120  0.20984  Biso   1.000  N
  N16      1.0000 0.39780  0.48860  0.22268  Biso   1.000  N
  O1       1.0000 0.18480  0.83450  0.41746  Biso   1.000  O
  O2       1.0000 0.26320  0.71330  0.39902  Biso   1.000  O
  O3       1.0000 0.82470  0.63340  0.33623  Biso   1.000  O
  O4       1.0000 0.92210  0.64200  0.40723  Biso   1.000  O
  O5       1.0000 0.70790  0.34290  0.33272  Biso   1.000  O
  O6       1.0000 0.54160  0.31000  0.38825  Biso   1.000  O
  O7       1.0000 0.16900  0.82630  0.56275  Biso   1.000  O
  O8       1.0000 0.11880  0.67390  0.57228  Biso   1.000  O
  O9       1.0000 0.30190  0.73380  0.48987  Biso   1.000  O
  O10      1.0000 0.00300  0.72240  0.48826  Biso   1.000  O
  O11      1.0000 0.93230  0.48040  0.37730  Biso   1.000  O
  O12      1.0000 0.63790  0.48870  0.39406  Biso   1.000  O
  O13      1.0000 0.31520  0.16550  0.91746  Biso   1.000  O
  O14      1.0000 0.23680  0.28670  0.89902  Biso   1.000  O
  O15      1.0000 0.67530  0.36660  0.83623  Biso   1.000  O
  O16      1.0000 0.57790  0.35800  0.90723  Biso   1.000  O
  O17      1.0000 0.79210  0.65710  0.83272  Biso   1.000  O
  O18      1.0000 0.95840  0.69000  0.88825  Biso   1.000  O
  O19      1.0000 0.33100  0.17370  0.06275  Biso   1.000  O
  O20      1.0000 0.38120  0.32610  0.07228  Biso   1.000  O
  O21      1.0000 0.19810  0.26620  0.98987  Biso   1.000  O
  O22      1.0000 0.49700  0.27760  0.98826  Biso   1.000  O
  O23      1.0000 0.56770  0.51960  0.87730  Biso   1.000  O
  O24      1.0000 0.86210  0.51130  0.89406  Biso   1.000  O
  O25      1.0000 0.81520  0.16550  0.58254  Biso   1.000  O
  O26      1.0000 0.73680  0.28670  0.60098  Biso   1.000  O
  O27      1.0000 0.17530  0.36660  0.66377  Biso   1.000  O
  O28      1.0000 0.07790  0.35800  0.59277  Biso   1.000  O
  O29      1.0000 0.29210  0.65710  0.66728  Biso   1.000  O
  O30      1.0000 0.45840  0.69000  0.61175  Biso   1.000  O
  O31      1.0000 0.83100  0.17370  0.43725  Biso   1.000  O
  O32      1.0000 0.88120  0.32610  0.42772  Biso   1.000  O
  O33      1.0000 0.69810  0.26620  0.51013  Biso   1.000  O
  O34      1.0000 0.99700  0.27760  0.51174  Biso   1.000  O
  O35      1.0000 0.06770  0.51960  0.62270  Biso   1.000  O
  O36      1.0000 0.36210  0.51130  0.60594  Biso   1.000  O
  O37      1.0000 0.68480  0.83450  0.08254  Biso   1.000  O
  O38      1.0000 0.76320  0.71330  0.10098  Biso   1.000  O
  O39      1.0000 0.32470  0.63340  0.16377  Biso   1.000  O
  O40      1.0000 0.42210  0.64200  0.09277  Biso   1.000  O
  O41      1.0000 0.20790  0.34290  0.16728  Biso   1.000  O
  O42      1.0000 0.04160  0.31000  0.11175  Biso   1.000  O
  O43      1.0000 0.66900  0.82630  0.93725  Biso   1.000  O
  O44      1.0000 0.61880  0.67390  0.92772  Biso   1.000  O
  O45      1.0000 0.80190  0.73380  0.01013  Biso   1.000  O
  O46      1.0000 0.50300  0.72240  0.01174  Biso   1.000  O
  O47      1.0000 0.43230  0.48040  0.12270  Biso   1.000  O
  O48      1.0000 0.13790  0.48870  0.10594  Biso   1.000  O
