data_image0
_cell_length_a       14.2036
_cell_length_b       14.4601
_cell_length_c       18.0724
_cell_angle_alpha    69.2346
_cell_angle_beta     66.8609
_cell_angle_gamma    60.5851

_symmetry_space_group_name_H-M    P 1
_symmetry_int_tables_number       1

loop_
  _symmetry_equiv_pos_as_xyz
  'x, y, z'

loop_
  _atom_site_label
  _atom_site_occupancy
  _atom_site_fract_x
  _atom_site_fract_y
  _atom_site_fract_z
  _atom_site_thermal_displace_type
  _atom_site_B_iso_or_equiv
  _atom_site_type_symbol
  Zn1      1.0000 0.75808  0.00816  0.63508  Biso   1.000  Zn
  Zn2      1.0000 0.37877  0.20428  0.42350  Biso   1.000  Zn
  Zn3      1.0000 0.18983  0.58403  0.59473  Biso   1.000  Zn
  Zn4      1.0000 0.40132  0.49184  0.86492  Biso   1.000  Zn
  Zn5      1.0000 0.00655  0.29572  0.07650  Biso   1.000  Zn
  Zn6      1.0000 0.36859  0.91597  0.90527  Biso   1.000  Zn
  Zn7      1.0000 0.24192  0.99184  0.36492  Biso   1.000  Zn
  Zn8      1.0000 0.62123  0.79572  0.57650  Biso   1.000  Zn
  Zn9      1.0000 0.81017  0.41597  0.40527  Biso   1.000  Zn
  Zn10     1.0000 0.59868  0.50816  0.13508  Biso   1.000  Zn
  Zn11     1.0000 0.99345  0.70428  0.92350  Biso   1.000  Zn
  Zn12     1.0000 0.63141  0.08403  0.09473  Biso   1.000  Zn
  Zn13     1.0000 0.50000  0.50000  0.50000  Biso   1.000  Zn
  Zn14     1.0000 0.50000  0.00000  0.00000  Biso   1.000  Zn
  H1       1.0000 0.51260  0.30890  0.43750  Biso   1.000  H
  H2       1.0000 0.53380  0.46170  0.68050  Biso   1.000  H
  H3       1.0000 0.21270  0.56390  0.77750  Biso   1.000  H
  H4       1.0000 0.87220  0.16310  0.50770  Biso   1.000  H
  H5       1.0000 0.80840  0.59690  0.47790  Biso   1.000  H
  H6       1.0000 0.74000  0.15260  0.25480  Biso   1.000  H
  H7       1.0000 0.92270  0.96570  0.45930  Biso   1.000  H
  H8       1.0000 0.55390  0.24620  0.61380  Biso   1.000  H
  H9       1.0000 0.25900  0.19110  0.06250  Biso   1.000  H
  H10      1.0000 0.67600  0.03830  0.81950  Biso   1.000  H
  H11      1.0000 0.55410  0.93610  0.72250  Biso   1.000  H
  H12      1.0000 0.54300  0.33690  0.99230  Biso   1.000  H
  H13      1.0000 0.88320  0.90310  0.02210  Biso   1.000  H
  H14      1.0000 0.14740  0.34740  0.24520  Biso   1.000  H
  H15      1.0000 0.34770  0.53430  0.04070  Biso   1.000  H
  H16      1.0000 0.41390  0.25380  0.88620  Biso   1.000  H
  H17      1.0000 0.48740  0.69110  0.56250  Biso   1.000  H
  H18      1.0000 0.46620  0.53830  0.31950  Biso   1.000  H
  H19      1.0000 0.78730  0.43610  0.22250  Biso   1.000  H
  H20      1.0000 0.12780  0.83690  0.49230  Biso   1.000  H
  H21      1.0000 0.19160  0.40310  0.52210  Biso   1.000  H
  H22      1.0000 0.26000  0.84740  0.74520  Biso   1.000  H
  H23      1.0000 0.07730  0.03430  0.54070  Biso   1.000  H
  H24      1.0000 0.44610  0.75380  0.38620  Biso   1.000  H
  H25      1.0000 0.74100  0.80890  0.93750  Biso   1.000  H
  H26      1.0000 0.32400  0.96170  0.18050  Biso   1.000  H
  H27      1.0000 0.44590  0.06390  0.27750  Biso   1.000  H
  H28      1.0000 0.45700  0.66310  0.00770  Biso   1.000  H
  H29      1.0000 0.11680  0.09690  0.97790  Biso   1.000  H
  H30      1.0000 0.85260  0.65260  0.75480  Biso   1.000  H
  H31      1.0000 0.65230  0.46570  0.95930  Biso   1.000  H
  H32      1.0000 0.58610  0.74620  0.11380  Biso   1.000  H
  C1       1.0000 0.43780  0.34680  0.46320  Biso   1.000  C
  C2       1.0000 0.61340  0.07080  0.37760  Biso   1.000  C
  C3       1.0000 0.78300  0.00350  0.43010  Biso   1.000  C
  C4       1.0000 0.05530  0.03660  0.32860  Biso   1.000  C
  C5       1.0000 0.45720  0.48730  0.68750  Biso   1.000  C
  C6       1.0000 0.28310  0.54270  0.74030  Biso   1.000  C
  C7       1.0000 0.79510  0.20340  0.52320  Biso   1.000  C
  C8       1.0000 0.93730  0.05430  0.34350  Biso   1.000  C
  C9       1.0000 0.73570  0.60260  0.49100  Biso   1.000  C
  C10      1.0000 0.73620  0.93590  0.50510  Biso   1.000  C
  C11      1.0000 0.92330  0.17430  0.19910  Biso   1.000  C
  C12      1.0000 0.77810  0.11320  0.29540  Biso   1.000  C
  C13      1.0000 0.88110  0.11060  0.28080  Biso   1.000  C
  C14      1.0000 0.88660  0.00200  0.41760  Biso   1.000  C
  C15      1.0000 0.62210  0.24900  0.58060  Biso   1.000  C
  C16      1.0000 0.72780  0.05980  0.36800  Biso   1.000  C
  C17      1.0000 0.24780  0.15320  0.03680  Biso   1.000  C
  C18      1.0000 0.06180  0.42920  0.12240  Biso   1.000  C
  C19      1.0000 0.21660  0.49650  0.06990  Biso   1.000  C
  C20      1.0000 0.42050  0.46340  0.17140  Biso   1.000  C
  C21      1.0000 0.63200  0.01270  0.81250  Biso   1.000  C
  C22      1.0000 0.56610  0.95730  0.75970  Biso   1.000  C
  C23      1.0000 0.52170  0.29660  0.97680  Biso   1.000  C
  C24      1.0000 0.33510  0.44570  0.15650  Biso   1.000  C
  C25      1.0000 0.82930  0.89740  0.00900  Biso   1.000  C
  C26      1.0000 0.17720  0.56410  0.99490  Biso   1.000  C
  C27      1.0000 0.29670  0.32570  0.30090  Biso   1.000  C
  C28      1.0000 0.18670  0.38680  0.20460  Biso   1.000  C
  C29      1.0000 0.27250  0.38940  0.21920  Biso   1.000  C
  C30      1.0000 0.30620  0.49800  0.08240  Biso   1.000  C
  C31      1.0000 0.45170  0.25100  0.91940  Biso   1.000  C
  C32      1.0000 0.15560  0.44020  0.13200  Biso   1.000  C
  C33      1.0000 0.56220  0.65320  0.53680  Biso   1.000  C
  C34      1.0000 0.38660  0.92920  0.62240  Biso   1.000  C
  C35      1.0000 0.21700  0.99650  0.56990  Biso   1.000  C
  C36      1.0000 0.94470  0.96340  0.67140  Biso   1.000  C
  C37      1.0000 0.54280  0.51270  0.31250  Biso   1.000  C
  C38      1.0000 0.71690  0.45730  0.25970  Biso   1.000  C
  C39      1.0000 0.20490  0.79660  0.47680  Biso   1.000  C
  C40      1.0000 0.06270  0.94570  0.65650  Biso   1.000  C
  C41      1.0000 0.26430  0.39740  0.50900  Biso   1.000  C
  C42      1.0000 0.26380  0.06410  0.49490  Biso   1.000  C
  C43      1.0000 0.07670  0.82570  0.80090  Biso   1.000  C
  C44      1.0000 0.22190  0.88680  0.70460  Biso   1.000  C
  C45      1.0000 0.11890  0.88940  0.71920  Biso   1.000  C
  C46      1.0000 0.11340  0.99800  0.58240  Biso   1.000  C
  C47      1.0000 0.37790  0.75100  0.41940  Biso   1.000  C
  C48      1.0000 0.27220  0.94020  0.63200  Biso   1.000  C
  C49      1.0000 0.75220  0.84680  0.96320  Biso   1.000  C
  C50      1.0000 0.93820  0.57080  0.87760  Biso   1.000  C
  C51      1.0000 0.78340  0.50350  0.93010  Biso   1.000  C
  C52      1.0000 0.57950  0.53660  0.82860  Biso   1.000  C
  C53      1.0000 0.36800  0.98730  0.18750  Biso   1.000  C
  C54      1.0000 0.43390  0.04270  0.24030  Biso   1.000  C
  C55      1.0000 0.47830  0.70340  0.02320  Biso   1.000  C
  C56      1.0000 0.66490  0.55430  0.84350  Biso   1.000  C
  C57      1.0000 0.17070  0.10260  0.99100  Biso   1.000  C
  C58      1.0000 0.82280  0.43590  0.00510  Biso   1.000  C
  C59      1.0000 0.70330  0.67430  0.69910  Biso   1.000  C
  C60      1.0000 0.81330  0.61320  0.79540  Biso   1.000  C
  C61      1.0000 0.72750  0.61060  0.78080  Biso   1.000  C
  C62      1.0000 0.69380  0.50200  0.91760  Biso   1.000  C
  C63      1.0000 0.54830  0.74900  0.08060  Biso   1.000  C
  C64      1.0000 0.84440  0.55980  0.86800  Biso   1.000  C
  N1       1.0000 0.41410  0.50470  0.62930  Biso   1.000  N
  N2       1.0000 0.30041  0.54058  0.66340  Biso   1.000  N
  N3       1.0000 0.71041  0.53918  0.47180  Biso   1.000  N
  N4       1.0000 0.35410  0.32480  0.46900  Biso   1.000  N
  N5       1.0000 0.72150  0.16190  0.57810  Biso   1.000  N
  N6       1.0000 0.37920  0.51030  0.75850  Biso   1.000  N
  N7       1.0000 0.74500  0.30770  0.49410  Biso   1.000  N
  N8       1.0000 0.40273  0.42804  0.49790  Biso   1.000  N
  N9       1.0000 0.63130  0.33760  0.53180  Biso   1.000  N
  N10      1.0000 0.54810  0.99530  0.87070  Biso   1.000  N
  N11      1.0000 0.50439  0.95942  0.83660  Biso   1.000  N
  N12      1.0000 0.72139  0.96082  0.02820  Biso   1.000  N
  N13      1.0000 0.14790  0.17520  0.03100  Biso   1.000  N
  N14      1.0000 0.46150  0.33810  0.92190  Biso   1.000  N
  N15      1.0000 0.64800  0.98970  0.74150  Biso   1.000  N
  N16      1.0000 0.54680  0.19230  0.00590  Biso   1.000  N
  N17      1.0000 0.32867  0.07196  0.00210  Biso   1.000  N
  N18      1.0000 0.50070  0.16240  0.96820  Biso   1.000  N
  N19      1.0000 0.58590  0.49530  0.37070  Biso   1.000  N
  N20      1.0000 0.69959  0.45942  0.33660  Biso   1.000  N
  N21      1.0000 0.28959  0.46082  0.52820  Biso   1.000  N
  N22      1.0000 0.64590  0.67520  0.53100  Biso   1.000  N
  N23      1.0000 0.27850  0.83810  0.42190  Biso   1.000  N
  N24      1.0000 0.62080  0.48970  0.24150  Biso   1.000  N
  N25      1.0000 0.25500  0.69230  0.50590  Biso   1.000  N
  N26      1.0000 0.59727  0.57196  0.50210  Biso   1.000  N
  N27      1.0000 0.36870  0.66240  0.46820  Biso   1.000  N
  N28      1.0000 0.45190  0.00470  0.12930  Biso   1.000  N
  N29      1.0000 0.49561  0.04058  0.16340  Biso   1.000  N
  N30      1.0000 0.27861  0.03918  0.97180  Biso   1.000  N
  N31      1.0000 0.85210  0.82480  0.96900  Biso   1.000  N
  N32      1.0000 0.53850  0.66190  0.07810  Biso   1.000  N
  N33      1.0000 0.35200  0.01030  0.25850  Biso   1.000  N
  N34      1.0000 0.45320  0.80770  0.99410  Biso   1.000  N
  N35      1.0000 0.67133  0.92804  0.99790  Biso   1.000  N
  N36      1.0000 0.49930  0.83760  0.03180  Biso   1.000  N
  O1       1.0000 0.94560  0.29410  0.33750  Biso   1.000  O
  O2       1.0000 0.88750  0.52270  0.31630  Biso   1.000  O
  O3       1.0000 0.95890  0.23700  0.19880  Biso   1.000  O
  O4       1.0000 0.53629  0.12002  0.43200  Biso   1.000  O
  O5       1.0000 0.92000  0.16450  0.13510  Biso   1.000  O
  O6       1.0000 0.25863  0.07154  0.42520  Biso   1.000  O
  O7       1.0000 0.69675  0.88440  0.49230  Biso   1.000  O
  O8       1.0000 0.12750  0.99750  0.27050  Biso   1.000  O
  O9       1.0000 0.92350  0.94120  0.61780  Biso   1.000  O
  O10      1.0000 0.59880  0.03940  0.32840  Biso   1.000  O
  O11      1.0000 0.57720  0.20590  0.16250  Biso   1.000  O
  O12      1.0000 0.72650  0.97730  0.18370  Biso   1.000  O
  O13      1.0000 0.39470  0.26300  0.30120  Biso   1.000  O
  O14      1.0000 0.08831  0.37998  0.06800  Biso   1.000  O
  O15      1.0000 0.21960  0.33550  0.36490  Biso   1.000  O
  O16      1.0000 0.75537  0.42846  0.07480  Biso   1.000  O
  O17      1.0000 0.07345  0.61560  0.00770  Biso   1.000  O
  O18      1.0000 0.39550  0.50250  0.22950  Biso   1.000  O
  O19      1.0000 0.48250  0.55880  0.88220  Biso   1.000  O
  O20      1.0000 0.96660  0.46060  0.17160  Biso   1.000  O
  O21      1.0000 0.05440  0.70590  0.66250  Biso   1.000  O
  O22      1.0000 0.11250  0.47730  0.68370  Biso   1.000  O
  O23      1.0000 0.04110  0.76300  0.80120  Biso   1.000  O
  O24      1.0000 0.46371  0.87998  0.56800  Biso   1.000  O
  O25      1.0000 0.08000  0.83550  0.86490  Biso   1.000  O
  O26      1.0000 0.74137  0.92846  0.57480  Biso   1.000  O
  O27      1.0000 0.30325  0.11560  0.50770  Biso   1.000  O
  O28      1.0000 0.87250  0.00250  0.72950  Biso   1.000  O
  O29      1.0000 0.07650  0.05880  0.38220  Biso   1.000  O
  O30      1.0000 0.40120  0.96060  0.67160  Biso   1.000  O
  O31      1.0000 0.42280  0.79410  0.83750  Biso   1.000  O
  O32      1.0000 0.27350  0.02270  0.81630  Biso   1.000  O
  O33      1.0000 0.60530  0.73700  0.69880  Biso   1.000  O
  O34      1.0000 0.91169  0.62002  0.93200  Biso   1.000  O
  O35      1.0000 0.78040  0.66450  0.63510  Biso   1.000  O
  O36      1.0000 0.24463  0.57154  0.92520  Biso   1.000  O
  O37      1.0000 0.92655  0.38440  0.99230  Biso   1.000  O
  O38      1.0000 0.60450  0.49750  0.77050  Biso   1.000  O
  O39      1.0000 0.51750  0.44120  0.11780  Biso   1.000  O
  O40      1.0000 0.03340  0.53940  0.82840  Biso   1.000  O
