data_TIVHAJ_freeONLY
_audit_creation_date              2015-10-16
_audit_creation_method            'Materials Studio'
_symmetry_space_group_name_H-M    'P1'
_symmetry_Int_Tables_number       1
_symmetry_cell_setting            triclinic
loop_
_symmetry_equiv_pos_as_xyz
  x,y,z
_cell_length_a                    8.8000
_cell_length_b                    13.1100
_cell_length_c                    20.7340
_cell_angle_alpha                 90.0000
_cell_angle_beta                  90.0000
_cell_angle_gamma                 90.0000
loop_
_atom_site_label
_atom_site_type_symbol
_atom_site_fract_x
_atom_site_fract_y
_atom_site_fract_z
_atom_site_U_iso_or_equiv
_atom_site_adp_type
_atom_site_occupancy
Cu1    Cu    0.35000   0.26460   0.75000   0.01267  Uiso   1.00
Cu2    Cu    0.15000   0.76460   0.25000   0.01267  Uiso   1.00
H1     H     0.15080   0.40840   0.52680   0.01267  Uiso   1.00
H2     H     0.40500   0.85320   0.21260   0.01267  Uiso   1.00
H3     H     0.84540   0.02980   0.25000   0.01267  Uiso   1.00
H4     H     0.99910   0.08390   0.36590   0.01267  Uiso   1.00
H5     H     0.07080   0.13610   0.47300   0.01267  Uiso   1.00
H6     H     0.04820   0.47120   0.43450   0.01267  Uiso   1.00
H7     H     0.07080   0.13610   0.02700   0.01267  Uiso   1.00
H8     H     0.34920   0.90840   0.02680   0.01267  Uiso   1.00
H9     H     0.25330   0.32670   0.89220   0.01267  Uiso   1.00
H10    H     0.99910   0.08390   0.13410   0.01267  Uiso   1.00
H11    H     0.67410   0.40680   0.75000   0.01267  Uiso   1.00
H12    H     0.50090   0.58390   0.86590   0.01267  Uiso   1.00
H13    H     0.42920   0.63610   0.97300   0.01267  Uiso   1.00
H14    H     0.65460   0.52980   0.75000   0.01267  Uiso   1.00
H15    H     0.45180   0.97120   0.56550   0.01267  Uiso   1.00
H16    H     0.09500   0.35320   0.78740   0.01267  Uiso   1.00
H17    H     0.15080   0.40840   0.97320   0.01267  Uiso   1.00
H18    H     0.25330   0.32670   0.60780   0.01267  Uiso   1.00
H19    H     0.09500   0.35320   0.71260   0.01267  Uiso   1.00
H20    H     0.04820   0.47120   0.06550   0.01267  Uiso   1.00
H21    H     0.42920   0.63610   0.52700   0.01267  Uiso   1.00
H22    H     0.50090   0.58390   0.63410   0.01267  Uiso   1.00
H23    H     0.24670   0.82670   0.39220   0.01267  Uiso   1.00
H24    H     0.40500   0.85320   0.28740   0.01267  Uiso   1.00
H25    H     0.34920   0.90840   0.47320   0.01267  Uiso   1.00
H26    H     0.45180   0.97120   0.93450   0.01267  Uiso   1.00
H27    H     0.38010   0.68180   0.42410   0.01267  Uiso   1.00
H28    H     0.82590   0.90680   0.25000   0.01267  Uiso   1.00
H29    H     0.11990   0.18180   0.57590   0.01267  Uiso   1.00
H30    H     0.38010   0.68180   0.07590   0.01267  Uiso   1.00
H31    H     0.11990   0.18180   0.92410   0.01267  Uiso   1.00
H32    H     0.24670   0.82670   0.10780   0.01267  Uiso   1.00
C1     C     0.17400   0.12850   0.94490   0.01267  Uiso   1.00
C2     C     0.45690   0.51860   0.64060   0.01267  Uiso   1.00
C3     C     0.14440   0.62980   0.14110   0.01267  Uiso   1.00
C4     C     0.14280   0.96960   0.40100   0.01267  Uiso   1.00
C5     C     0.13700   0.09280   0.00340   0.01267  Uiso   1.00
C6     C     0.20240   0.58050   0.08210   0.01267  Uiso   1.00
C7     C     0.13700   0.09280   0.49660   0.01267  Uiso   1.00
C8     C     0.18020   0.87600   0.12600   0.01267  Uiso   1.00
C9     C     0.31980   0.37600   0.62600   0.01267  Uiso   1.00
C10    C     0.35560   0.12980   0.64110   0.01267  Uiso   1.00
C11    C     0.36300   0.59280   0.50340   0.01267  Uiso   1.00
C12    C     0.04310   0.01860   0.14060   0.01267  Uiso   1.00
C13    C     0.29760   0.08050   0.58210   0.01267  Uiso   1.00
C14    C     0.32500   0.50990   0.53390   0.01267  Uiso   1.00
C15    C     0.14440   0.62980   0.35890   0.01267  Uiso   1.00
C16    C     0.32600   0.62850   0.44490   0.01267  Uiso   1.00
C17    C     0.14280   0.96960   0.09900   0.01267  Uiso   1.00
C18    C     0.19700   0.46530   0.50640   0.01267  Uiso   1.00
C19    C     0.35720   0.46960   0.59900   0.01267  Uiso   1.00
C20    C     0.45690   0.51860   0.85940   0.01267  Uiso   1.00
C21    C     0.36300   0.59280   0.99660   0.01267  Uiso   1.00
C22    C     0.17400   0.12850   0.55510   0.01267  Uiso   1.00
C23    C     0.35720   0.46960   0.90100   0.01267  Uiso   1.00
C24    C     0.20240   0.58050   0.41790   0.01267  Uiso   1.00
C25    C     0.13800   0.50160   0.04890   0.01267  Uiso   1.00
C26    C     0.18020   0.87600   0.37400   0.01267  Uiso   1.00
C27    C     0.13800   0.50160   0.45110   0.01267  Uiso   1.00
C28    C     0.60000   0.46400   0.75000   0.01267  Uiso   1.00
C29    C     0.35560   0.12980   0.85890   0.01267  Uiso   1.00
C30    C     0.36200   0.00160   0.95110   0.01267  Uiso   1.00
C31    C     0.31980   0.37600   0.87400   0.01267  Uiso   1.00
C32    C     0.17500   0.00990   0.46610   0.01267  Uiso   1.00
C33    C     0.36200   0.00160   0.54890   0.01267  Uiso   1.00
C34    C     0.17500   0.00990   0.03390   0.01267  Uiso   1.00
C35    C     0.30300   0.96530   0.49360   0.01267  Uiso   1.00
C36    C     0.30300   0.96530   0.00640   0.01267  Uiso   1.00
C37    C     0.29760   0.08050   0.91790   0.01267  Uiso   1.00
C38    C     0.90000   0.96400   0.25000   0.01267  Uiso   1.00
C39    C     0.32600   0.62850   0.05510   0.01267  Uiso   1.00
C40    C     0.19700   0.46530   0.99360   0.01267  Uiso   1.00
C41    C     0.04310   0.01860   0.35940   0.01267  Uiso   1.00
C42    C     0.32500   0.50990   0.96610   0.01267  Uiso   1.00
N1     N     0.10360   0.86720   0.31580   0.01267  Uiso   1.00
N2     N     0.01890   0.95530   0.30680   0.01267  Uiso   1.00
N3     N     0.10360   0.86720   0.18420   0.01267  Uiso   1.00
N4     N     0.01890   0.95530   0.19320   0.01267  Uiso   1.00
N5     N     0.48110   0.45530   0.80680   0.01267  Uiso   1.00
N6     N     0.48110   0.45530   0.69320   0.01267  Uiso   1.00
N7     N     0.39640   0.36720   0.68420   0.01267  Uiso   1.00
N8     N     0.39640   0.36720   0.81580   0.01267  Uiso   1.00
O1     O     0.28720   0.17160   0.67990   0.01267  Uiso   1.00
O2     O     0.39950   0.80720   0.25000   0.01267  Uiso   1.00
O3     O     0.02220   0.60610   0.15030   0.01267  Uiso   1.00
O4     O     0.47780   0.10610   0.65030   0.01267  Uiso   1.00
O5     O     0.21280   0.67160   0.17990   0.01267  Uiso   1.00
O6     O     0.10050   0.30720   0.75000   0.01267  Uiso   1.00
O7     O     0.02220   0.60610   0.34970   0.01267  Uiso   1.00
O8     O     0.28720   0.17160   0.82010   0.01267  Uiso   1.00
O9     O     0.47780   0.10610   0.84970   0.01267  Uiso   1.00
O10    O     0.21280   0.67160   0.32010   0.01267  Uiso   1.00
Cu3    Cu    0.65000   0.73540   0.25000   0.01267  Uiso   1.00
Cu4    Cu    0.85000   0.23540   0.75000   0.01267  Uiso   1.00
H33    H     0.84920   0.59160   0.02680   0.01267  Uiso   1.00
H34    H     0.59500   0.14680   0.71260   0.01267  Uiso   1.00
H35    H     0.34540   0.47020   0.25000   0.01267  Uiso   1.00
H36    H     0.65080   0.09160   0.52680   0.01267  Uiso   1.00
H37    H     0.15460   0.97020   0.75000   0.01267  Uiso   1.00
H38    H     0.49910   0.41610   0.36590   0.01267  Uiso   1.00
H39    H     0.57080   0.36390   0.02700   0.01267  Uiso   1.00
H40    H     0.57080   0.36390   0.47300   0.01267  Uiso   1.00
H41    H     0.54820   0.02880   0.06550   0.01267  Uiso   1.00
H42    H     0.59500   0.14680   0.78740   0.01267  Uiso   1.00
H43    H     0.75330   0.17330   0.89220   0.01267  Uiso   1.00
H44    H     0.95180   0.52880   0.93450   0.01267  Uiso   1.00
H45    H     0.00090   0.91610   0.63410   0.01267  Uiso   1.00
H46    H     0.88010   0.81820   0.07590   0.01267  Uiso   1.00
H47    H     0.54820   0.02880   0.43450   0.01267  Uiso   1.00
H48    H     0.92920   0.86390   0.97300   0.01267  Uiso   1.00
H49    H     0.17410   0.09320   0.75000   0.01267  Uiso   1.00
H50    H     0.61990   0.31820   0.57590   0.01267  Uiso   1.00
H51    H     0.92920   0.86390   0.52700   0.01267  Uiso   1.00
H52    H     0.84920   0.59160   0.47320   0.01267  Uiso   1.00
H53    H     0.88010   0.81820   0.42410   0.01267  Uiso   1.00
H54    H     0.00090   0.91610   0.86590   0.01267  Uiso   1.00
H55    H     0.90500   0.64680   0.21260   0.01267  Uiso   1.00
H56    H     0.65080   0.09160   0.97320   0.01267  Uiso   1.00
H57    H     0.61990   0.31820   0.92410   0.01267  Uiso   1.00
H58    H     0.75330   0.17330   0.60780   0.01267  Uiso   1.00
H59    H     0.74670   0.67330   0.10780   0.01267  Uiso   1.00
H60    H     0.90500   0.64680   0.28740   0.01267  Uiso   1.00
H61    H     0.32590   0.59320   0.25000   0.01267  Uiso   1.00
H62    H     0.49910   0.41610   0.13410   0.01267  Uiso   1.00
H63    H     0.74670   0.67330   0.39220   0.01267  Uiso   1.00
H64    H     0.95180   0.52880   0.56550   0.01267  Uiso   1.00
C43    C     0.68020   0.62400   0.37400   0.01267  Uiso   1.00
C44    C     0.67500   0.49010   0.46610   0.01267  Uiso   1.00
C45    C     0.95690   0.98140   0.85940   0.01267  Uiso   1.00
C46    C     0.86300   0.90720   0.50340   0.01267  Uiso   1.00
C47    C     0.63800   0.99840   0.45110   0.01267  Uiso   1.00
C48    C     0.70240   0.91950   0.41790   0.01267  Uiso   1.00
C49    C     0.85560   0.37020   0.64110   0.01267  Uiso   1.00
C50    C     0.82500   0.99010   0.53390   0.01267  Uiso   1.00
C51    C     0.82600   0.87150   0.44490   0.01267  Uiso   1.00
C52    C     0.81980   0.12400   0.87400   0.01267  Uiso   1.00
C53    C     0.40000   0.53600   0.25000   0.01267  Uiso   1.00
C54    C     0.80300   0.53470   0.00640   0.01267  Uiso   1.00
C55    C     0.67400   0.37150   0.94490   0.01267  Uiso   1.00
C56    C     0.64280   0.53040   0.40100   0.01267  Uiso   1.00
C57    C     0.86200   0.49840   0.95110   0.01267  Uiso   1.00
C58    C     0.67400   0.37150   0.55510   0.01267  Uiso   1.00
C59    C     0.10000   0.03600   0.75000   0.01267  Uiso   1.00
C60    C     0.79760   0.41950   0.58210   0.01267  Uiso   1.00
C61    C     0.80300   0.53470   0.49360   0.01267  Uiso   1.00
C62    C     0.63700   0.40720   0.49660   0.01267  Uiso   1.00
C63    C     0.85720   0.03040   0.59900   0.01267  Uiso   1.00
C64    C     0.81980   0.12400   0.62600   0.01267  Uiso   1.00
C65    C     0.69700   0.03470   0.99360   0.01267  Uiso   1.00
C66    C     0.95690   0.98140   0.64060   0.01267  Uiso   1.00
C67    C     0.63700   0.40720   0.00340   0.01267  Uiso   1.00
C68    C     0.64440   0.87020   0.35890   0.01267  Uiso   1.00
C69    C     0.69700   0.03470   0.50640   0.01267  Uiso   1.00
C70    C     0.67500   0.49010   0.03390   0.01267  Uiso   1.00
C71    C     0.82500   0.99010   0.96610   0.01267  Uiso   1.00
C72    C     0.68020   0.62400   0.12600   0.01267  Uiso   1.00
C73    C     0.82600   0.87150   0.05510   0.01267  Uiso   1.00
C74    C     0.64440   0.87020   0.14110   0.01267  Uiso   1.00
C75    C     0.63800   0.99840   0.04890   0.01267  Uiso   1.00
C76    C     0.54310   0.48140   0.35940   0.01267  Uiso   1.00
C77    C     0.86300   0.90720   0.99660   0.01267  Uiso   1.00
C78    C     0.85560   0.37020   0.85890   0.01267  Uiso   1.00
C79    C     0.79760   0.41950   0.91790   0.01267  Uiso   1.00
C80    C     0.64280   0.53040   0.09900   0.01267  Uiso   1.00
C81    C     0.54310   0.48140   0.14060   0.01267  Uiso   1.00
C82    C     0.86200   0.49840   0.54890   0.01267  Uiso   1.00
C83    C     0.85720   0.03040   0.90100   0.01267  Uiso   1.00
C84    C     0.70240   0.91950   0.08210   0.01267  Uiso   1.00
N9     N     0.89640   0.13280   0.68420   0.01267  Uiso   1.00
N10    N     0.60360   0.63280   0.31580   0.01267  Uiso   1.00
N11    N     0.51890   0.54470   0.19320   0.01267  Uiso   1.00
N12    N     0.98110   0.04470   0.69320   0.01267  Uiso   1.00
N13    N     0.51890   0.54470   0.30680   0.01267  Uiso   1.00
N14    N     0.98110   0.04470   0.80680   0.01267  Uiso   1.00
N15    N     0.60360   0.63280   0.18420   0.01267  Uiso   1.00
N16    N     0.89640   0.13280   0.81580   0.01267  Uiso   1.00
O11    O     0.52220   0.89390   0.34970   0.01267  Uiso   1.00
O12    O     0.97780   0.39390   0.84970   0.01267  Uiso   1.00
O13    O     0.97780   0.39390   0.65030   0.01267  Uiso   1.00
O14    O     0.78720   0.32840   0.82010   0.01267  Uiso   1.00
O15    O     0.89950   0.69280   0.25000   0.01267  Uiso   1.00
O16    O     0.60050   0.19280   0.75000   0.01267  Uiso   1.00
O17    O     0.71280   0.82840   0.17990   0.01267  Uiso   1.00
O18    O     0.71280   0.82840   0.32010   0.01267  Uiso   1.00
O19    O     0.52220   0.89390   0.15030   0.01267  Uiso   1.00
O20    O     0.78720   0.32840   0.67990   0.01267  Uiso   1.00
