data_image0
_cell_length_a       15.041
_cell_length_b       23.862
_cell_length_c       28.479
_cell_angle_alpha    90
_cell_angle_beta     90
_cell_angle_gamma    90

_symmetry_space_group_name_H-M    P 1
_symmetry_int_tables_number       1

loop_
  _symmetry_equiv_pos_as_xyz
  'x, y, z'

loop_
  _atom_site_label
  _atom_site_occupancy
  _atom_site_fract_x
  _atom_site_fract_y
  _atom_site_fract_z
  _atom_site_thermal_displace_type
  _atom_site_B_iso_or_equiv
  _atom_site_type_symbol
  Co1      1.0000 0.59099  0.85527  0.97787  Biso   1.000  Co
  Co2      1.0000 0.74635  0.79499  0.06315  Biso   1.000  Co
  Co3      1.0000 0.09099  0.64473  0.02213  Biso   1.000  Co
  Co4      1.0000 0.24635  0.70501  0.93685  Biso   1.000  Co
  Co5      1.0000 0.40901  0.14473  0.47787  Biso   1.000  Co
  Co6      1.0000 0.25365  0.20501  0.56315  Biso   1.000  Co
  Co7      1.0000 0.90901  0.35527  0.52213  Biso   1.000  Co
  Co8      1.0000 0.75365  0.29499  0.43685  Biso   1.000  Co
  Co9      1.0000 0.40901  0.14473  0.02213  Biso   1.000  Co
  Co10     1.0000 0.25365  0.20501  0.93685  Biso   1.000  Co
  Co11     1.0000 0.90901  0.35527  0.97787  Biso   1.000  Co
  Co12     1.0000 0.75365  0.29499  0.06315  Biso   1.000  Co
  Co13     1.0000 0.59099  0.85527  0.52213  Biso   1.000  Co
  Co14     1.0000 0.74635  0.79499  0.43685  Biso   1.000  Co
  Co15     1.0000 0.09099  0.64473  0.47787  Biso   1.000  Co
  Co16     1.0000 0.24635  0.70501  0.56315  Biso   1.000  Co
  Co17     1.0000 0.10122  0.87783  0.75000  Biso   1.000  Co
  Co18     1.0000 0.88806  0.94376  0.75000  Biso   1.000  Co
  Co19     1.0000 0.60122  0.62217  0.25000  Biso   1.000  Co
  Co20     1.0000 0.38806  0.55624  0.25000  Biso   1.000  Co
  Co21     1.0000 0.89878  0.12217  0.25000  Biso   1.000  Co
  Co22     1.0000 0.11194  0.05624  0.25000  Biso   1.000  Co
  Co23     1.0000 0.39878  0.37783  0.75000  Biso   1.000  Co
  Co24     1.0000 0.61194  0.44376  0.75000  Biso   1.000  Co
  H1       1.0000 0.04640  0.78270  0.87120  Biso   1.000  H
  H2       1.0000 0.87440  0.75030  0.97630  Biso   1.000  H
  H3       1.0000 0.80440  0.85300  0.87000  Biso   1.000  H
  H4       1.0000 0.20380  0.04140  0.87850  Biso   1.000  H
  H5       1.0000 0.40700  0.99030  0.95960  Biso   1.000  H
  H6       1.0000 0.30620  0.88670  0.86170  Biso   1.000  H
  H7       1.0000 0.89420  0.86800  0.09520  Biso   1.000  H
  H8       1.0000 0.03140  0.76240  0.05990  Biso   1.000  H
  H9       1.0000 0.10640  0.77750  0.09600  Biso   1.000  H
  H10      1.0000 0.10520  0.80600  0.04640  Biso   1.000  H
  H11      1.0000 0.01320  0.90720  0.12760  Biso   1.000  H
  H12      1.0000 0.09900  0.90050  0.09680  Biso   1.000  H
  H13      1.0000 0.08800  0.86520  0.14290  Biso   1.000  H
  H14      1.0000 0.54640  0.71730  0.12880  Biso   1.000  H
  H15      1.0000 0.37440  0.74970  0.02370  Biso   1.000  H
  H16      1.0000 0.30440  0.64700  0.13000  Biso   1.000  H
  H17      1.0000 0.70380  0.45860  0.12150  Biso   1.000  H
  H18      1.0000 0.90700  0.50970  0.04040  Biso   1.000  H
  H19      1.0000 0.80620  0.61330  0.13830  Biso   1.000  H
  H20      1.0000 0.39420  0.63200  0.90480  Biso   1.000  H
  H21      1.0000 0.53140  0.73760  0.94010  Biso   1.000  H
  H22      1.0000 0.60640  0.72250  0.90400  Biso   1.000  H
  H23      1.0000 0.60520  0.69400  0.95360  Biso   1.000  H
  H24      1.0000 0.51320  0.59280  0.87240  Biso   1.000  H
  H25      1.0000 0.59900  0.59950  0.90320  Biso   1.000  H
  H26      1.0000 0.58800  0.63480  0.85710  Biso   1.000  H
  H27      1.0000 0.95360  0.21730  0.37120  Biso   1.000  H
  H28      1.0000 0.12560  0.24970  0.47630  Biso   1.000  H
  H29      1.0000 0.19560  0.14700  0.37000  Biso   1.000  H
  H30      1.0000 0.79620  0.95860  0.37850  Biso   1.000  H
  H31      1.0000 0.59300  0.00970  0.45960  Biso   1.000  H
  H32      1.0000 0.69380  0.11330  0.36170  Biso   1.000  H
  H33      1.0000 0.10580  0.13200  0.59520  Biso   1.000  H
  H34      1.0000 0.96860  0.23760  0.55990  Biso   1.000  H
  H35      1.0000 0.89360  0.22250  0.59600  Biso   1.000  H
  H36      1.0000 0.89480  0.19400  0.54640  Biso   1.000  H
  H37      1.0000 0.98680  0.09280  0.62760  Biso   1.000  H
  H38      1.0000 0.90100  0.09950  0.59680  Biso   1.000  H
  H39      1.0000 0.91200  0.13480  0.64290  Biso   1.000  H
  H40      1.0000 0.45360  0.28270  0.62880  Biso   1.000  H
  H41      1.0000 0.62560  0.25030  0.52370  Biso   1.000  H
  H42      1.0000 0.69560  0.35300  0.63000  Biso   1.000  H
  H43      1.0000 0.29620  0.54140  0.62150  Biso   1.000  H
  H44      1.0000 0.09300  0.49030  0.54040  Biso   1.000  H
  H45      1.0000 0.19380  0.38670  0.63830  Biso   1.000  H
  H46      1.0000 0.60580  0.36800  0.40480  Biso   1.000  H
  H47      1.0000 0.46860  0.26240  0.44010  Biso   1.000  H
  H48      1.0000 0.39360  0.27750  0.40400  Biso   1.000  H
  H49      1.0000 0.39480  0.30600  0.45360  Biso   1.000  H
  H50      1.0000 0.48680  0.40720  0.37240  Biso   1.000  H
  H51      1.0000 0.40100  0.40050  0.40320  Biso   1.000  H
  H52      1.0000 0.41200  0.36520  0.35710  Biso   1.000  H
  H53      1.0000 0.95360  0.21730  0.12880  Biso   1.000  H
  H54      1.0000 0.12560  0.24970  0.02370  Biso   1.000  H
  H55      1.0000 0.19560  0.14700  0.13000  Biso   1.000  H
  H56      1.0000 0.79620  0.95860  0.12150  Biso   1.000  H
  H57      1.0000 0.59300  0.00970  0.04040  Biso   1.000  H
  H58      1.0000 0.69380  0.11330  0.13830  Biso   1.000  H
  H59      1.0000 0.10580  0.13200  0.90480  Biso   1.000  H
  H60      1.0000 0.96860  0.23760  0.94010  Biso   1.000  H
  H61      1.0000 0.89360  0.22250  0.90400  Biso   1.000  H
  H62      1.0000 0.89480  0.19400  0.95360  Biso   1.000  H
  H63      1.0000 0.98680  0.09280  0.87240  Biso   1.000  H
  H64      1.0000 0.90100  0.09950  0.90320  Biso   1.000  H
  H65      1.0000 0.91200  0.13480  0.85710  Biso   1.000  H
  H66      1.0000 0.45360  0.28270  0.87120  Biso   1.000  H
  H67      1.0000 0.62560  0.25030  0.97630  Biso   1.000  H
  H68      1.0000 0.69560  0.35300  0.87000  Biso   1.000  H
  H69      1.0000 0.29620  0.54140  0.87850  Biso   1.000  H
  H70      1.0000 0.09300  0.49030  0.95960  Biso   1.000  H
  H71      1.0000 0.19380  0.38670  0.86170  Biso   1.000  H
  H72      1.0000 0.60580  0.36800  0.09520  Biso   1.000  H
  H73      1.0000 0.46860  0.26240  0.05990  Biso   1.000  H
  H74      1.0000 0.39360  0.27750  0.09600  Biso   1.000  H
  H75      1.0000 0.39480  0.30600  0.04640  Biso   1.000  H
  H76      1.0000 0.48680  0.40720  0.12760  Biso   1.000  H
  H77      1.0000 0.40100  0.40050  0.09680  Biso   1.000  H
  H78      1.0000 0.41200  0.36520  0.14290  Biso   1.000  H
  H79      1.0000 0.04640  0.78270  0.62880  Biso   1.000  H
  H80      1.0000 0.87440  0.75030  0.52370  Biso   1.000  H
  H81      1.0000 0.80440  0.85300  0.63000  Biso   1.000  H
  H82      1.0000 0.20380  0.04140  0.62150  Biso   1.000  H
  H83      1.0000 0.40700  0.99030  0.54040  Biso   1.000  H
  H84      1.0000 0.30620  0.88670  0.63830  Biso   1.000  H
  H85      1.0000 0.89420  0.86800  0.40480  Biso   1.000  H
  H86      1.0000 0.03140  0.76240  0.44010  Biso   1.000  H
  H87      1.0000 0.10640  0.77750  0.40400  Biso   1.000  H
  H88      1.0000 0.10520  0.80600  0.45360  Biso   1.000  H
  H89      1.0000 0.01320  0.90720  0.37240  Biso   1.000  H
  H90      1.0000 0.09900  0.90050  0.40320  Biso   1.000  H
  H91      1.0000 0.08800  0.86520  0.35710  Biso   1.000  H
  H92      1.0000 0.54640  0.71730  0.37120  Biso   1.000  H
  H93      1.0000 0.37440  0.74970  0.47630  Biso   1.000  H
  H94      1.0000 0.30440  0.64700  0.37000  Biso   1.000  H
  H95      1.0000 0.70380  0.45860  0.37850  Biso   1.000  H
  H96      1.0000 0.90700  0.50970  0.45960  Biso   1.000  H
  H97      1.0000 0.80620  0.61330  0.36170  Biso   1.000  H
  H98      1.0000 0.39420  0.63200  0.59520  Biso   1.000  H
  H99      1.0000 0.53140  0.73760  0.55990  Biso   1.000  H
  H100     1.0000 0.60640  0.72250  0.59600  Biso   1.000  H
  H101     1.0000 0.60520  0.69400  0.54640  Biso   1.000  H
  H102     1.0000 0.51320  0.59280  0.62760  Biso   1.000  H
  H103     1.0000 0.59900  0.59950  0.59680  Biso   1.000  H
  H104     1.0000 0.58800  0.63480  0.64290  Biso   1.000  H
  C1       1.0000 0.95220  0.85320  0.81890  Biso   1.000  C
  C2       1.0000 0.92870  0.82260  0.86368  Biso   1.000  C
  C3       1.0000 0.99090  0.78770  0.88499  Biso   1.000  C
  C4       1.0000 0.97060  0.76011  0.92708  Biso   1.000  C
  C5       1.0000 0.88800  0.76817  0.94817  Biso   1.000  C
  C6       1.0000 0.82600  0.80333  0.92666  Biso   1.000  C
  C7       1.0000 0.84640  0.83005  0.88435  Biso   1.000  C
  C8       1.0000 0.73750  0.81441  0.94915  Biso   1.000  C
  C9       1.0000 0.03950  0.72217  0.94872  Biso   1.000  C
  C10      1.0000 0.17730  0.95160  0.82575  Biso   1.000  C
  C11      1.0000 0.24390  0.96230  0.86438  Biso   1.000  C
  C12      1.0000 0.24440  0.01388  0.88720  Biso   1.000  C
  C13      1.0000 0.30540  0.02453  0.92302  Biso   1.000  C
  C14      1.0000 0.36670  0.98337  0.93550  Biso   1.000  C
  C15      1.0000 0.36810  0.93206  0.91235  Biso   1.000  C
  C16      1.0000 0.30620  0.92115  0.87692  Biso   1.000  C
  C17      1.0000 0.30830  0.08090  0.94654  Biso   1.000  C
  C18      1.0000 0.43720  0.88882  0.92582  Biso   1.000  C
  C19      1.0000 0.72140  0.89000  0.77500  Biso   1.000  C
  C20      1.0000 0.61570  0.92810  0.83080  Biso   1.000  C
  C21      1.0000 0.61420  0.82850  0.81080  Biso   1.000  C
  C22      1.0000 0.92620  0.83820  0.08280  Biso   1.000  C
  C23      1.0000 0.06890  0.79190  0.07150  Biso   1.000  C
  C24      1.0000 0.05720  0.88120  0.11660  Biso   1.000  C
  C25      1.0000 0.45220  0.64680  0.18110  Biso   1.000  C
  C26      1.0000 0.42870  0.67740  0.13632  Biso   1.000  C
  C27      1.0000 0.49090  0.71230  0.11501  Biso   1.000  C
  C28      1.0000 0.47060  0.73989  0.07292  Biso   1.000  C
  C29      1.0000 0.38800  0.73183  0.05183  Biso   1.000  C
  C30      1.0000 0.32600  0.69667  0.07334  Biso   1.000  C
  C31      1.0000 0.34640  0.66995  0.11565  Biso   1.000  C
  C32      1.0000 0.23750  0.68559  0.05085  Biso   1.000  C
  C33      1.0000 0.53950  0.77783  0.05128  Biso   1.000  C
  C34      1.0000 0.67730  0.54840  0.17425  Biso   1.000  C
  C35      1.0000 0.74390  0.53770  0.13562  Biso   1.000  C
  C36      1.0000 0.74440  0.48612  0.11280  Biso   1.000  C
  C37      1.0000 0.80540  0.47547  0.07698  Biso   1.000  C
  C38      1.0000 0.86670  0.51663  0.06450  Biso   1.000  C
  C39      1.0000 0.86810  0.56794  0.08765  Biso   1.000  C
  C40      1.0000 0.80620  0.57885  0.12308  Biso   1.000  C
  C41      1.0000 0.80830  0.41910  0.05346  Biso   1.000  C
  C42      1.0000 0.93720  0.61118  0.07418  Biso   1.000  C
  C43      1.0000 0.22140  0.61000  0.22500  Biso   1.000  C
  C44      1.0000 0.11570  0.57190  0.16920  Biso   1.000  C
  C45      1.0000 0.11420  0.67150  0.18920  Biso   1.000  C
  C46      1.0000 0.42620  0.66180  0.91720  Biso   1.000  C
  C47      1.0000 0.56890  0.70810  0.92850  Biso   1.000  C
  C48      1.0000 0.55720  0.61880  0.88340  Biso   1.000  C
  C49      1.0000 0.04780  0.14680  0.31890  Biso   1.000  C
  C50      1.0000 0.07130  0.17740  0.36368  Biso   1.000  C
  C51      1.0000 0.00910  0.21230  0.38499  Biso   1.000  C
  C52      1.0000 0.02940  0.23989  0.42708  Biso   1.000  C
  C53      1.0000 0.11200  0.23183  0.44817  Biso   1.000  C
  C54      1.0000 0.17400  0.19667  0.42666  Biso   1.000  C
  C55      1.0000 0.15360  0.16995  0.38435  Biso   1.000  C
  C56      1.0000 0.26250  0.18559  0.44915  Biso   1.000  C
  C57      1.0000 0.96050  0.27783  0.44872  Biso   1.000  C
  C58      1.0000 0.82270  0.04840  0.32575  Biso   1.000  C
  C59      1.0000 0.75610  0.03770  0.36438  Biso   1.000  C
  C60      1.0000 0.75560  0.98612  0.38720  Biso   1.000  C
  C61      1.0000 0.69460  0.97547  0.42302  Biso   1.000  C
  C62      1.0000 0.63330  0.01663  0.43550  Biso   1.000  C
  C63      1.0000 0.63190  0.06794  0.41235  Biso   1.000  C
  C64      1.0000 0.69380  0.07885  0.37692  Biso   1.000  C
  C65      1.0000 0.69170  0.91910  0.44654  Biso   1.000  C
  C66      1.0000 0.56280  0.11118  0.42582  Biso   1.000  C
  C67      1.0000 0.27860  0.11000  0.27500  Biso   1.000  C
  C68      1.0000 0.38430  0.07190  0.33080  Biso   1.000  C
  C69      1.0000 0.38580  0.17150  0.31080  Biso   1.000  C
  C70      1.0000 0.07380  0.16180  0.58280  Biso   1.000  C
  C71      1.0000 0.93110  0.20810  0.57150  Biso   1.000  C
  C72      1.0000 0.94280  0.11880  0.61660  Biso   1.000  C
  C73      1.0000 0.54780  0.35320  0.68110  Biso   1.000  C
  C74      1.0000 0.57130  0.32260  0.63632  Biso   1.000  C
  C75      1.0000 0.50910  0.28770  0.61501  Biso   1.000  C
  C76      1.0000 0.52940  0.26011  0.57292  Biso   1.000  C
  C77      1.0000 0.61200  0.26817  0.55183  Biso   1.000  C
  C78      1.0000 0.67400  0.30333  0.57334  Biso   1.000  C
  C79      1.0000 0.65360  0.33005  0.61565  Biso   1.000  C
  C80      1.0000 0.76250  0.31441  0.55085  Biso   1.000  C
  C81      1.0000 0.46050  0.22217  0.55128  Biso   1.000  C
  C82      1.0000 0.32270  0.45160  0.67425  Biso   1.000  C
  C83      1.0000 0.25610  0.46230  0.63562  Biso   1.000  C
  C84      1.0000 0.25560  0.51388  0.61280  Biso   1.000  C
  C85      1.0000 0.19460  0.52453  0.57698  Biso   1.000  C
  C86      1.0000 0.13330  0.48337  0.56450  Biso   1.000  C
  C87      1.0000 0.13190  0.43206  0.58765  Biso   1.000  C
  C88      1.0000 0.19380  0.42115  0.62308  Biso   1.000  C
  C89      1.0000 0.19170  0.58090  0.55346  Biso   1.000  C
  C90      1.0000 0.06280  0.38882  0.57418  Biso   1.000  C
  C91      1.0000 0.77860  0.39000  0.72500  Biso   1.000  C
  C92      1.0000 0.88430  0.42810  0.66920  Biso   1.000  C
  C93      1.0000 0.88580  0.32850  0.68920  Biso   1.000  C
  C94      1.0000 0.57380  0.33820  0.41720  Biso   1.000  C
  C95      1.0000 0.43110  0.29190  0.42850  Biso   1.000  C
  C96      1.0000 0.44280  0.38120  0.38340  Biso   1.000  C
  C97      1.0000 0.04780  0.14680  0.18110  Biso   1.000  C
  C98      1.0000 0.07130  0.17740  0.13632  Biso   1.000  C
  C99      1.0000 0.00910  0.21230  0.11501  Biso   1.000  C
  C100     1.0000 0.02940  0.23989  0.07292  Biso   1.000  C
  C101     1.0000 0.11200  0.23183  0.05183  Biso   1.000  C
  C102     1.0000 0.17400  0.19667  0.07334  Biso   1.000  C
  C103     1.0000 0.15360  0.16995  0.11565  Biso   1.000  C
  C104     1.0000 0.26250  0.18559  0.05085  Biso   1.000  C
  C105     1.0000 0.96050  0.27783  0.05128  Biso   1.000  C
  C106     1.0000 0.82270  0.04840  0.17425  Biso   1.000  C
  C107     1.0000 0.75610  0.03770  0.13562  Biso   1.000  C
  C108     1.0000 0.75560  0.98612  0.11280  Biso   1.000  C
  C109     1.0000 0.69460  0.97547  0.07698  Biso   1.000  C
  C110     1.0000 0.63330  0.01663  0.06450  Biso   1.000  C
  C111     1.0000 0.63190  0.06794  0.08765  Biso   1.000  C
  C112     1.0000 0.69380  0.07885  0.12308  Biso   1.000  C
  C113     1.0000 0.69170  0.91910  0.05346  Biso   1.000  C
  C114     1.0000 0.56280  0.11118  0.07418  Biso   1.000  C
  C115     1.0000 0.27860  0.11000  0.22500  Biso   1.000  C
  C116     1.0000 0.38430  0.07190  0.16920  Biso   1.000  C
  C117     1.0000 0.38580  0.17150  0.18920  Biso   1.000  C
  C118     1.0000 0.07380  0.16180  0.91720  Biso   1.000  C
  C119     1.0000 0.93110  0.20810  0.92850  Biso   1.000  C
  C120     1.0000 0.94280  0.11880  0.88340  Biso   1.000  C
  C121     1.0000 0.54780  0.35320  0.81890  Biso   1.000  C
  C122     1.0000 0.57130  0.32260  0.86368  Biso   1.000  C
  C123     1.0000 0.50910  0.28770  0.88499  Biso   1.000  C
  C124     1.0000 0.52940  0.26011  0.92708  Biso   1.000  C
  C125     1.0000 0.61200  0.26817  0.94817  Biso   1.000  C
  C126     1.0000 0.67400  0.30333  0.92666  Biso   1.000  C
  C127     1.0000 0.65360  0.33005  0.88435  Biso   1.000  C
  C128     1.0000 0.76250  0.31441  0.94915  Biso   1.000  C
  C129     1.0000 0.46050  0.22217  0.94872  Biso   1.000  C
  C130     1.0000 0.32270  0.45160  0.82575  Biso   1.000  C
  C131     1.0000 0.25610  0.46230  0.86438  Biso   1.000  C
  C132     1.0000 0.25560  0.51388  0.88720  Biso   1.000  C
  C133     1.0000 0.19460  0.52453  0.92302  Biso   1.000  C
  C134     1.0000 0.13330  0.48337  0.93550  Biso   1.000  C
  C135     1.0000 0.13190  0.43206  0.91235  Biso   1.000  C
  C136     1.0000 0.19380  0.42115  0.87692  Biso   1.000  C
  C137     1.0000 0.19170  0.58090  0.94654  Biso   1.000  C
  C138     1.0000 0.06280  0.38882  0.92582  Biso   1.000  C
  C139     1.0000 0.77860  0.39000  0.77500  Biso   1.000  C
  C140     1.0000 0.88430  0.42810  0.83080  Biso   1.000  C
  C141     1.0000 0.88580  0.32850  0.81080  Biso   1.000  C
  C142     1.0000 0.57380  0.33820  0.08280  Biso   1.000  C
  C143     1.0000 0.43110  0.29190  0.07150  Biso   1.000  C
  C144     1.0000 0.44280  0.38120  0.11660  Biso   1.000  C
  C145     1.0000 0.95220  0.85320  0.68110  Biso   1.000  C
  C146     1.0000 0.92870  0.82260  0.63632  Biso   1.000  C
  C147     1.0000 0.99090  0.78770  0.61501  Biso   1.000  C
  C148     1.0000 0.97060  0.76011  0.57292  Biso   1.000  C
  C149     1.0000 0.88800  0.76817  0.55183  Biso   1.000  C
  C150     1.0000 0.82600  0.80333  0.57334  Biso   1.000  C
  C151     1.0000 0.84640  0.83005  0.61565  Biso   1.000  C
  C152     1.0000 0.73750  0.81441  0.55085  Biso   1.000  C
  C153     1.0000 0.03950  0.72217  0.55128  Biso   1.000  C
  C154     1.0000 0.17730  0.95160  0.67425  Biso   1.000  C
  C155     1.0000 0.24390  0.96230  0.63562  Biso   1.000  C
  C156     1.0000 0.24440  0.01388  0.61280  Biso   1.000  C
  C157     1.0000 0.30540  0.02453  0.57698  Biso   1.000  C
  C158     1.0000 0.36670  0.98337  0.56450  Biso   1.000  C
  C159     1.0000 0.36810  0.93206  0.58765  Biso   1.000  C
  C160     1.0000 0.30620  0.92115  0.62308  Biso   1.000  C
  C161     1.0000 0.30830  0.08090  0.55346  Biso   1.000  C
  C162     1.0000 0.43720  0.88882  0.57418  Biso   1.000  C
  C163     1.0000 0.72140  0.89000  0.72500  Biso   1.000  C
  C164     1.0000 0.61570  0.92810  0.66920  Biso   1.000  C
  C165     1.0000 0.61420  0.82850  0.68920  Biso   1.000  C
  C166     1.0000 0.92620  0.83820  0.41720  Biso   1.000  C
  C167     1.0000 0.06890  0.79190  0.42850  Biso   1.000  C
  C168     1.0000 0.05720  0.88120  0.38340  Biso   1.000  C
  C169     1.0000 0.45220  0.64680  0.31890  Biso   1.000  C
  C170     1.0000 0.42870  0.67740  0.36368  Biso   1.000  C
  C171     1.0000 0.49090  0.71230  0.38499  Biso   1.000  C
  C172     1.0000 0.47060  0.73989  0.42708  Biso   1.000  C
  C173     1.0000 0.38800  0.73183  0.44817  Biso   1.000  C
  C174     1.0000 0.32600  0.69667  0.42666  Biso   1.000  C
  C175     1.0000 0.34640  0.66995  0.38435  Biso   1.000  C
  C176     1.0000 0.23750  0.68559  0.44915  Biso   1.000  C
  C177     1.0000 0.53950  0.77783  0.44872  Biso   1.000  C
  C178     1.0000 0.67730  0.54840  0.32575  Biso   1.000  C
  C179     1.0000 0.74390  0.53770  0.36438  Biso   1.000  C
  C180     1.0000 0.74440  0.48612  0.38720  Biso   1.000  C
  C181     1.0000 0.80540  0.47547  0.42302  Biso   1.000  C
  C182     1.0000 0.86670  0.51663  0.43550  Biso   1.000  C
  C183     1.0000 0.86810  0.56794  0.41235  Biso   1.000  C
  C184     1.0000 0.80620  0.57885  0.37692  Biso   1.000  C
  C185     1.0000 0.80830  0.41910  0.44654  Biso   1.000  C
  C186     1.0000 0.93720  0.61118  0.42582  Biso   1.000  C
  C187     1.0000 0.22140  0.61000  0.27500  Biso   1.000  C
  C188     1.0000 0.11570  0.57190  0.33080  Biso   1.000  C
  C189     1.0000 0.11420  0.67150  0.31080  Biso   1.000  C
  C190     1.0000 0.42620  0.66180  0.58280  Biso   1.000  C
  C191     1.0000 0.56890  0.70810  0.57150  Biso   1.000  C
  C192     1.0000 0.55720  0.61880  0.61660  Biso   1.000  C
  N1       1.0000 0.01420  0.83690  0.09000  Biso   1.000  N
  N2       1.0000 0.64430  0.88610  0.80240  Biso   1.000  N
  N3       1.0000 0.51420  0.66310  0.91000  Biso   1.000  N
  N4       1.0000 0.14430  0.61390  0.19760  Biso   1.000  N
  N5       1.0000 0.98580  0.16310  0.59000  Biso   1.000  N
  N6       1.0000 0.35570  0.11390  0.30240  Biso   1.000  N
  N7       1.0000 0.48580  0.33690  0.41000  Biso   1.000  N
  N8       1.0000 0.85570  0.38610  0.69760  Biso   1.000  N
  N9       1.0000 0.98580  0.16310  0.91000  Biso   1.000  N
  N10      1.0000 0.35570  0.11390  0.19760  Biso   1.000  N
  N11      1.0000 0.48580  0.33690  0.09000  Biso   1.000  N
  N12      1.0000 0.85570  0.38610  0.80240  Biso   1.000  N
  N13      1.0000 0.01420  0.83690  0.41000  Biso   1.000  N
  N14      1.0000 0.64430  0.88610  0.69760  Biso   1.000  N
  N15      1.0000 0.51420  0.66310  0.59000  Biso   1.000  N
  N16      1.0000 0.14430  0.61390  0.30240  Biso   1.000  N
  O1       1.0000 0.02780  0.84268  0.80197  Biso   1.000  O
  O2       1.0000 0.89430  0.88599  0.80311  Biso   1.000  O
  O3       1.0000 0.67820  0.84033  0.92573  Biso   1.000  O
  O4       1.0000 0.72120  0.79918  0.99046  Biso   1.000  O
  O5       1.0000 0.01740  0.69767  0.98658  Biso   1.000  O
  O6       1.0000 0.11150  0.71654  0.92724  Biso   1.000  O
  O7       1.0000 0.11600  0.98700  0.82099  Biso   1.000  O
  O8       1.0000 0.18830  0.90840  0.80093  Biso   1.000  O
  O9       1.0000 0.25970  0.11893  0.93008  Biso   1.000  O
  O10      1.0000 0.35980  0.08465  0.98166  Biso   1.000  O
  O11      1.0000 0.49990  0.90700  0.95190  Biso   1.000  O
  O12      1.0000 0.43020  0.83914  0.91246  Biso   1.000  O
  O13      1.0000 0.87370  0.00593  0.80257  Biso   1.000  O
  O14      1.0000 0.76140  0.78760  0.13677  Biso   1.000  O
  O15      1.0000 0.76920  0.70884  0.05598  Biso   1.000  O
  O16      1.0000 0.88580  0.80264  0.06095  Biso   1.000  O
  O17      1.0000 0.52780  0.65732  0.19803  Biso   1.000  O
  O18      1.0000 0.39430  0.61401  0.19689  Biso   1.000  O
  O19      1.0000 0.17820  0.65967  0.07427  Biso   1.000  O
  O20      1.0000 0.22120  0.70082  0.00954  Biso   1.000  O
  O21      1.0000 0.51740  0.80233  0.01342  Biso   1.000  O
  O22      1.0000 0.61150  0.78346  0.07276  Biso   1.000  O
  O23      1.0000 0.61600  0.51300  0.17901  Biso   1.000  O
  O24      1.0000 0.68830  0.59160  0.19907  Biso   1.000  O
  O25      1.0000 0.75970  0.38107  0.06992  Biso   1.000  O
  O26      1.0000 0.85980  0.41535  0.01834  Biso   1.000  O
  O27      1.0000 0.99990  0.59300  0.04810  Biso   1.000  O
  O28      1.0000 0.93020  0.66086  0.08754  Biso   1.000  O
  O29      1.0000 0.37370  0.49407  0.19743  Biso   1.000  O
  O30      1.0000 0.26140  0.71240  0.86323  Biso   1.000  O
  O31      1.0000 0.26920  0.79116  0.94402  Biso   1.000  O
  O32      1.0000 0.38580  0.69736  0.93905  Biso   1.000  O
  O33      1.0000 0.97220  0.15732  0.30197  Biso   1.000  O
  O34      1.0000 0.10570  0.11401  0.30311  Biso   1.000  O
  O35      1.0000 0.32180  0.15967  0.42573  Biso   1.000  O
  O36      1.0000 0.27880  0.20082  0.49046  Biso   1.000  O
  O37      1.0000 0.98260  0.30233  0.48658  Biso   1.000  O
  O38      1.0000 0.88850  0.28346  0.42724  Biso   1.000  O
  O39      1.0000 0.88400  0.01300  0.32099  Biso   1.000  O
  O40      1.0000 0.81170  0.09160  0.30093  Biso   1.000  O
  O41      1.0000 0.74030  0.88107  0.43008  Biso   1.000  O
  O42      1.0000 0.64020  0.91535  0.48166  Biso   1.000  O
  O43      1.0000 0.50010  0.09300  0.45190  Biso   1.000  O
  O44      1.0000 0.56980  0.16086  0.41246  Biso   1.000  O
  O45      1.0000 0.12630  0.99407  0.30257  Biso   1.000  O
  O46      1.0000 0.23860  0.21240  0.63677  Biso   1.000  O
  O47      1.0000 0.23080  0.29116  0.55598  Biso   1.000  O
  O48      1.0000 0.11420  0.19736  0.56095  Biso   1.000  O
  O49      1.0000 0.47220  0.34268  0.69803  Biso   1.000  O
  O50      1.0000 0.60570  0.38599  0.69689  Biso   1.000  O
  O51      1.0000 0.82180  0.34033  0.57427  Biso   1.000  O
  O52      1.0000 0.77880  0.29918  0.50954  Biso   1.000  O
  O53      1.0000 0.48260  0.19767  0.51342  Biso   1.000  O
  O54      1.0000 0.38850  0.21654  0.57276  Biso   1.000  O
  O55      1.0000 0.38400  0.48700  0.67901  Biso   1.000  O
  O56      1.0000 0.31170  0.40840  0.69907  Biso   1.000  O
  O57      1.0000 0.24030  0.61893  0.56992  Biso   1.000  O
  O58      1.0000 0.14020  0.58465  0.51834  Biso   1.000  O
  O59      1.0000 0.00010  0.40700  0.54810  Biso   1.000  O
  O60      1.0000 0.06980  0.33914  0.58754  Biso   1.000  O
  O61      1.0000 0.62630  0.50593  0.69743  Biso   1.000  O
  O62      1.0000 0.73860  0.28760  0.36323  Biso   1.000  O
  O63      1.0000 0.73080  0.20884  0.44402  Biso   1.000  O
  O64      1.0000 0.61420  0.30264  0.43905  Biso   1.000  O
  O65      1.0000 0.97220  0.15732  0.19803  Biso   1.000  O
  O66      1.0000 0.10570  0.11401  0.19689  Biso   1.000  O
  O67      1.0000 0.32180  0.15967  0.07427  Biso   1.000  O
  O68      1.0000 0.27880  0.20082  0.00954  Biso   1.000  O
  O69      1.0000 0.98260  0.30233  0.01342  Biso   1.000  O
  O70      1.0000 0.88850  0.28346  0.07276  Biso   1.000  O
  O71      1.0000 0.88400  0.01300  0.17901  Biso   1.000  O
  O72      1.0000 0.81170  0.09160  0.19907  Biso   1.000  O
  O73      1.0000 0.74030  0.88107  0.06992  Biso   1.000  O
  O74      1.0000 0.64020  0.91535  0.01834  Biso   1.000  O
  O75      1.0000 0.50010  0.09300  0.04810  Biso   1.000  O
  O76      1.0000 0.56980  0.16086  0.08754  Biso   1.000  O
  O77      1.0000 0.12630  0.99407  0.19743  Biso   1.000  O
  O78      1.0000 0.23860  0.21240  0.86323  Biso   1.000  O
  O79      1.0000 0.23080  0.29116  0.94402  Biso   1.000  O
  O80      1.0000 0.11420  0.19736  0.93905  Biso   1.000  O
  O81      1.0000 0.47220  0.34268  0.80197  Biso   1.000  O
  O82      1.0000 0.60570  0.38599  0.80311  Biso   1.000  O
  O83      1.0000 0.82180  0.34033  0.92573  Biso   1.000  O
  O84      1.0000 0.77880  0.29918  0.99046  Biso   1.000  O
  O85      1.0000 0.48260  0.19767  0.98658  Biso   1.000  O
  O86      1.0000 0.38850  0.21654  0.92724  Biso   1.000  O
  O87      1.0000 0.38400  0.48700  0.82099  Biso   1.000  O
  O88      1.0000 0.31170  0.40840  0.80093  Biso   1.000  O
  O89      1.0000 0.24030  0.61893  0.93008  Biso   1.000  O
  O90      1.0000 0.14020  0.58465  0.98166  Biso   1.000  O
  O91      1.0000 0.00010  0.40700  0.95190  Biso   1.000  O
  O92      1.0000 0.06980  0.33914  0.91246  Biso   1.000  O
  O93      1.0000 0.62630  0.50593  0.80257  Biso   1.000  O
  O94      1.0000 0.73860  0.28760  0.13677  Biso   1.000  O
  O95      1.0000 0.73080  0.20884  0.05598  Biso   1.000  O
  O96      1.0000 0.61420  0.30264  0.06095  Biso   1.000  O
  O97      1.0000 0.02780  0.84268  0.69803  Biso   1.000  O
  O98      1.0000 0.89430  0.88599  0.69689  Biso   1.000  O
  O99      1.0000 0.67820  0.84033  0.57427  Biso   1.000  O
  O100     1.0000 0.72120  0.79918  0.50954  Biso   1.000  O
  O101     1.0000 0.01740  0.69767  0.51342  Biso   1.000  O
  O102     1.0000 0.11150  0.71654  0.57276  Biso   1.000  O
  O103     1.0000 0.11600  0.98700  0.67901  Biso   1.000  O
  O104     1.0000 0.18830  0.90840  0.69907  Biso   1.000  O
  O105     1.0000 0.25970  0.11893  0.56992  Biso   1.000  O
  O106     1.0000 0.35980  0.08465  0.51834  Biso   1.000  O
  O107     1.0000 0.49990  0.90700  0.54810  Biso   1.000  O
  O108     1.0000 0.43020  0.83914  0.58754  Biso   1.000  O
  O109     1.0000 0.87370  0.00593  0.69743  Biso   1.000  O
  O110     1.0000 0.76140  0.78760  0.36323  Biso   1.000  O
  O111     1.0000 0.76920  0.70884  0.44402  Biso   1.000  O
  O112     1.0000 0.88580  0.80264  0.43905  Biso   1.000  O
  O113     1.0000 0.52780  0.65732  0.30197  Biso   1.000  O
  O114     1.0000 0.39430  0.61401  0.30311  Biso   1.000  O
  O115     1.0000 0.17820  0.65967  0.42573  Biso   1.000  O
  O116     1.0000 0.22120  0.70082  0.49046  Biso   1.000  O
  O117     1.0000 0.51740  0.80233  0.48658  Biso   1.000  O
  O118     1.0000 0.61150  0.78346  0.42724  Biso   1.000  O
  O119     1.0000 0.61600  0.51300  0.32099  Biso   1.000  O
  O120     1.0000 0.68830  0.59160  0.30093  Biso   1.000  O
  O121     1.0000 0.75970  0.38107  0.43008  Biso   1.000  O
  O122     1.0000 0.85980  0.41535  0.48166  Biso   1.000  O
  O123     1.0000 0.99990  0.59300  0.45190  Biso   1.000  O
  O124     1.0000 0.93020  0.66086  0.41246  Biso   1.000  O
  O125     1.0000 0.37370  0.49407  0.30257  Biso   1.000  O
  O126     1.0000 0.26140  0.71240  0.63677  Biso   1.000  O
  O127     1.0000 0.26920  0.79116  0.55598  Biso   1.000  O
  O128     1.0000 0.38580  0.69736  0.56095  Biso   1.000  O
  O129     1.0000 0.02600  0.95509  0.75000  Biso   1.000  O
  O130     1.0000 0.17900  0.80160  0.75000  Biso   1.000  O
  O131     1.0000 0.74960  0.93410  0.75000  Biso   1.000  O
  O132     1.0000 0.52600  0.54491  0.25000  Biso   1.000  O
  O133     1.0000 0.67900  0.69840  0.25000  Biso   1.000  O
  O134     1.0000 0.24960  0.56590  0.25000  Biso   1.000  O
  O135     1.0000 0.97400  0.04491  0.25000  Biso   1.000  O
  O136     1.0000 0.82100  0.19840  0.25000  Biso   1.000  O
  O137     1.0000 0.25040  0.06590  0.25000  Biso   1.000  O
  O138     1.0000 0.47400  0.45509  0.75000  Biso   1.000  O
  O139     1.0000 0.32100  0.30160  0.75000  Biso   1.000  O
  O140     1.0000 0.75040  0.43410  0.75000  Biso   1.000  O
