data_image0
_cell_length_a       16.155
_cell_length_b       16.893
_cell_length_c       20.514
_cell_angle_alpha    110.628
_cell_angle_beta     90
_cell_angle_gamma    90

_symmetry_space_group_name_H-M    P 1
_symmetry_int_tables_number       1

loop_
  _symmetry_equiv_pos_as_xyz
  'x, y, z'

loop_
  _atom_site_label
  _atom_site_occupancy
  _atom_site_fract_x
  _atom_site_fract_y
  _atom_site_fract_z
  _atom_site_thermal_displace_type
  _atom_site_B_iso_or_equiv
  _atom_site_type_symbol
  Cd1      1.0000 0.08208  0.74664  0.74448  Biso   1.000  Cd
  Cd2      1.0000 0.01491  0.82249  0.93401  Biso   1.000  Cd
  Cd3      1.0000 0.58208  0.25336  0.75552  Biso   1.000  Cd
  Cd4      1.0000 0.51491  0.17751  0.56599  Biso   1.000  Cd
  H1       1.0000 0.15270  0.85410  0.86620  Biso   1.000  H
  H2       1.0000 0.16340  0.76210  0.86690  Biso   1.000  H
  H3       1.0000 0.04600  0.83060  0.63530  Biso   1.000  H
  H4       1.0000 0.96410  0.82280  0.54290  Biso   1.000  H
  H5       1.0000 0.90000  0.59430  0.52680  Biso   1.000  H
  H6       1.0000 0.97530  0.60570  0.62060  Biso   1.000  H
  H7       1.0000 0.82540  0.89590  0.50340  Biso   1.000  H
  H8       1.0000 0.80300  0.85310  0.55760  Biso   1.000  H
  H9       1.0000 0.73520  0.86320  0.50650  Biso   1.000  H
  H10      1.0000 0.89230  0.52310  0.32590  Biso   1.000  H
  H11      1.0000 0.88900  0.52240  0.40210  Biso   1.000  H
  H12      1.0000 0.96520  0.56230  0.37760  Biso   1.000  H
  H13      1.0000 0.70850  0.83530  0.39980  Biso   1.000  H
  H14      1.0000 0.68950  0.75250  0.33600  Biso   1.000  H
  H15      1.0000 0.72860  0.67990  0.20480  Biso   1.000  H
  H16      1.0000 0.74710  0.72310  0.15010  Biso   1.000  H
  H17      1.0000 0.67400  0.75580  0.20310  Biso   1.000  H
  H18      1.0000 0.91880  0.01330  0.29930  Biso   1.000  H
  H19      1.0000 0.99050  0.94640  0.28110  Biso   1.000  H
  H20      1.0000 0.96100  0.98890  0.35850  Biso   1.000  H
  H21      1.0000 0.85800  0.71520  0.10660  Biso   1.000  H
  H22      1.0000 0.91910  0.71350  0.00520  Biso   1.000  H
  H23      1.0000 0.93320  0.95660  0.08090  Biso   1.000  H
  H24      1.0000 0.90320  0.96490  0.19290  Biso   1.000  H
  H25      1.0000 0.32140  0.01380  0.83330  Biso   1.000  H
  H26      1.0000 0.40480  0.09810  0.79500  Biso   1.000  H
  H27      1.0000 0.33000  0.97720  0.60120  Biso   1.000  H
  H28      1.0000 0.23210  0.90870  0.64000  Biso   1.000  H
  H29      1.0000 0.91990  0.53100  0.69500  Biso   1.000  H
  H30      1.0000 0.83210  0.41580  0.66100  Biso   1.000  H
  H31      1.0000 0.77020  0.47300  0.86300  Biso   1.000  H
  H32      1.0000 0.86260  0.58360  0.89440  Biso   1.000  H
  H33      1.0000 0.65270  0.14590  0.63380  Biso   1.000  H
  H34      1.0000 0.66340  0.23790  0.63310  Biso   1.000  H
  H35      1.0000 0.54600  0.16940  0.86470  Biso   1.000  H
  H36      1.0000 0.46410  0.17720  0.95710  Biso   1.000  H
  H37      1.0000 0.40000  0.40570  0.97320  Biso   1.000  H
  H38      1.0000 0.47530  0.39430  0.87940  Biso   1.000  H
  H39      1.0000 0.32540  0.10410  0.99660  Biso   1.000  H
  H40      1.0000 0.30300  0.14690  0.94240  Biso   1.000  H
  H41      1.0000 0.23520  0.13680  0.99350  Biso   1.000  H
  H42      1.0000 0.39230  0.47690  0.17410  Biso   1.000  H
  H43      1.0000 0.38900  0.47760  0.09790  Biso   1.000  H
  H44      1.0000 0.46520  0.43770  0.12240  Biso   1.000  H
  H45      1.0000 0.20850  0.16470  0.10020  Biso   1.000  H
  H46      1.0000 0.18950  0.24750  0.16400  Biso   1.000  H
  H47      1.0000 0.22860  0.32010  0.29520  Biso   1.000  H
  H48      1.0000 0.24710  0.27690  0.34990  Biso   1.000  H
  H49      1.0000 0.17400  0.24420  0.29690  Biso   1.000  H
  H50      1.0000 0.41880  0.98670  0.20070  Biso   1.000  H
  H51      1.0000 0.49050  0.05360  0.21890  Biso   1.000  H
  H52      1.0000 0.46100  0.01110  0.14150  Biso   1.000  H
  H53      1.0000 0.35800  0.28480  0.39340  Biso   1.000  H
  H54      1.0000 0.41910  0.28650  0.49480  Biso   1.000  H
  H55      1.0000 0.43320  0.04340  0.41910  Biso   1.000  H
  H56      1.0000 0.40320  0.03510  0.30710  Biso   1.000  H
  H57      1.0000 0.82140  0.98620  0.66670  Biso   1.000  H
  H58      1.0000 0.90480  0.90190  0.70500  Biso   1.000  H
  H59      1.0000 0.83000  0.02280  0.89880  Biso   1.000  H
  H60      1.0000 0.73210  0.09130  0.86000  Biso   1.000  H
  H61      1.0000 0.41990  0.46900  0.80500  Biso   1.000  H
  H62      1.0000 0.33210  0.58420  0.83900  Biso   1.000  H
  H63      1.0000 0.27020  0.52700  0.63700  Biso   1.000  H
  H64      1.0000 0.36260  0.41640  0.60560  Biso   1.000  H
  C1       1.0000 0.01560  0.78150  0.61400  Biso   1.000  C
  C2       1.0000 0.96530  0.77680  0.55790  Biso   1.000  C
  C3       1.0000 0.91830  0.70930  0.52430  Biso   1.000  C
  C4       1.0000 0.92770  0.64480  0.54930  Biso   1.000  C
  C5       1.0000 0.97450  0.65060  0.60430  Biso   1.000  C
  C6       1.0000 0.86740  0.70510  0.46620  Biso   1.000  C
  C7       1.0000 0.81600  0.76820  0.45950  Biso   1.000  C
  C8       1.0000 0.79300  0.85270  0.51140  Biso   1.000  C
  C9       1.0000 0.86130  0.64280  0.39860  Biso   1.000  C
  C10      1.0000 0.90640  0.55390  0.37360  Biso   1.000  C
  C11      1.0000 0.73340  0.78800  0.36300  Biso   1.000  C
  C12      1.0000 0.78700  0.79370  0.24800  Biso   1.000  C
  C13      1.0000 0.72890  0.73250  0.19680  Biso   1.000  C
  C14      1.0000 0.84930  0.84200  0.22930  Biso   1.000  C
  C15      1.0000 0.87840  0.89560  0.29950  Biso   1.000  C
  C16      1.0000 0.94300  0.96800  0.31070  Biso   1.000  C
  C17      1.0000 0.87660  0.83950  0.16490  Biso   1.000  C
  C18      1.0000 0.87970  0.76520  0.10440  Biso   1.000  C
  C19      1.0000 0.91370  0.76450  0.04200  Biso   1.000  C
  C20      1.0000 0.92580  0.90600  0.08860  Biso   1.000  C
  C21      1.0000 0.90200  0.91340  0.15610  Biso   1.000  C
  C22      1.0000 0.20760  0.89870  0.76870  Biso   1.000  C
  C23      1.0000 0.26680  0.94990  0.74120  Biso   1.000  C
  C24      1.0000 0.32040  0.00810  0.78650  Biso   1.000  C
  C25      1.0000 0.37190  0.05740  0.76320  Biso   1.000  C
  C26      1.0000 0.37570  0.04750  0.69320  Biso   1.000  C
  C27      1.0000 0.32600  0.98800  0.64870  Biso   1.000  C
  C28      1.0000 0.26960  0.94380  0.67150  Biso   1.000  C
  C29      1.0000 0.43630  0.09990  0.66960  Biso   1.000  C
  C30      1.0000 0.95590  0.65010  0.81530  Biso   1.000  C
  C31      1.0000 0.89970  0.57060  0.79550  Biso   1.000  C
  C32      1.0000 0.88970  0.51910  0.72900  Biso   1.000  C
  C33      1.0000 0.83790  0.44980  0.70750  Biso   1.000  C
  C34      1.0000 0.79230  0.43390  0.76400  Biso   1.000  C
  C35      1.0000 0.73010  0.36010  0.73860  Biso   1.000  C
  C36      1.0000 0.80120  0.48340  0.82870  Biso   1.000  C
  C37      1.0000 0.85520  0.55100  0.84760  Biso   1.000  C
  C38      1.0000 0.51560  0.21850  0.88600  Biso   1.000  C
  C39      1.0000 0.46530  0.22320  0.94210  Biso   1.000  C
  C40      1.0000 0.41830  0.29070  0.97570  Biso   1.000  C
  C41      1.0000 0.42770  0.35520  0.95070  Biso   1.000  C
  C42      1.0000 0.47450  0.34940  0.89570  Biso   1.000  C
  C43      1.0000 0.36740  0.29490  0.03380  Biso   1.000  C
  C44      1.0000 0.31600  0.23180  0.04050  Biso   1.000  C
  C45      1.0000 0.29300  0.14730  0.98860  Biso   1.000  C
  C46      1.0000 0.36130  0.35720  0.10140  Biso   1.000  C
  C47      1.0000 0.40640  0.44610  0.12640  Biso   1.000  C
  C48      1.0000 0.23340  0.21200  0.13700  Biso   1.000  C
  C49      1.0000 0.28700  0.20630  0.25200  Biso   1.000  C
  C50      1.0000 0.22890  0.26750  0.30320  Biso   1.000  C
  C51      1.0000 0.34930  0.15800  0.27070  Biso   1.000  C
  C52      1.0000 0.37840  0.10440  0.20050  Biso   1.000  C
  C53      1.0000 0.44300  0.03200  0.18930  Biso   1.000  C
  C54      1.0000 0.37660  0.16050  0.33510  Biso   1.000  C
  C55      1.0000 0.37970  0.23480  0.39560  Biso   1.000  C
  C56      1.0000 0.41370  0.23550  0.45800  Biso   1.000  C
  C57      1.0000 0.42580  0.09400  0.41140  Biso   1.000  C
  C58      1.0000 0.40200  0.08660  0.34390  Biso   1.000  C
  C59      1.0000 0.70760  0.10130  0.73130  Biso   1.000  C
  C60      1.0000 0.76680  0.05010  0.75880  Biso   1.000  C
  C61      1.0000 0.82040  0.99190  0.71350  Biso   1.000  C
  C62      1.0000 0.87190  0.94260  0.73680  Biso   1.000  C
  C63      1.0000 0.87570  0.95250  0.80680  Biso   1.000  C
  C64      1.0000 0.82600  0.01200  0.85130  Biso   1.000  C
  C65      1.0000 0.76960  0.05620  0.82850  Biso   1.000  C
  C66      1.0000 0.93630  0.90010  0.83040  Biso   1.000  C
  C67      1.0000 0.45590  0.34990  0.68470  Biso   1.000  C
  C68      1.0000 0.39970  0.42940  0.70450  Biso   1.000  C
  C69      1.0000 0.38970  0.48090  0.77100  Biso   1.000  C
  C70      1.0000 0.33790  0.55020  0.79250  Biso   1.000  C
  C71      1.0000 0.29230  0.56610  0.73600  Biso   1.000  C
  C72      1.0000 0.23010  0.63990  0.76140  Biso   1.000  C
  C73      1.0000 0.30120  0.51660  0.67130  Biso   1.000  C
  C74      1.0000 0.35520  0.44900  0.65240  Biso   1.000  C
  N1       1.0000 0.02180  0.72110  0.63760  Biso   1.000  N
  N2       1.0000 0.78700  0.74030  0.39270  Biso   1.000  N
  N3       1.0000 0.81400  0.66110  0.35390  Biso   1.000  N
  N4       1.0000 0.83860  0.88160  0.34940  Biso   1.000  N
  N5       1.0000 0.78460  0.81980  0.31810  Biso   1.000  N
  N6       1.0000 0.93890  0.83670  0.03460  Biso   1.000  N
  N7       1.0000 0.52180  0.27890  0.86240  Biso   1.000  N
  N8       1.0000 0.28700  0.25970  0.10730  Biso   1.000  N
  N9       1.0000 0.31400  0.33890  0.14610  Biso   1.000  N
  N10      1.0000 0.33860  0.11840  0.15060  Biso   1.000  N
  N11      1.0000 0.28460  0.18020  0.18190  Biso   1.000  N
  N12      1.0000 0.43890  0.16330  0.46540  Biso   1.000  N
  O1       1.0000 0.20880  0.91330  0.83230  Biso   1.000  O
  O2       1.0000 0.16370  0.84560  0.72460  Biso   1.000  O
  O3       1.0000 0.47640  0.15480  0.71590  Biso   1.000  O
  O4       1.0000 0.43680  0.09220  0.60690  Biso   1.000  O
  O5       1.0000 0.95090  0.70050  0.87720  Biso   1.000  O
  O6       1.0000 0.00220  0.65240  0.76930  Biso   1.000  O
  O7       1.0000 0.72360  0.32310  0.67030  Biso   1.000  O
  O8       1.0000 0.68810  0.34730  0.78320  Biso   1.000  O
  O9       1.0000 0.09050  0.94760  0.98970  Biso   1.000  O
  O10      1.0000 0.12440  0.80090  0.85810  Biso   1.000  O
  O11      1.0000 0.70880  0.08670  0.66770  Biso   1.000  O
  O12      1.0000 0.66370  0.15440  0.77540  Biso   1.000  O
  O13      1.0000 0.97640  0.84520  0.78410  Biso   1.000  O
  O14      1.0000 0.93680  0.90780  0.89310  Biso   1.000  O
  O15      1.0000 0.45090  0.29950  0.62280  Biso   1.000  O
  O16      1.0000 0.50220  0.34760  0.73070  Biso   1.000  O
  O17      1.0000 0.22360  0.67690  0.82970  Biso   1.000  O
  O18      1.0000 0.18810  0.65270  0.71680  Biso   1.000  O
  O19      1.0000 0.59050  0.05240  0.51030  Biso   1.000  O
  O20      1.0000 0.62440  0.19910  0.64190  Biso   1.000  O
  Cd5      1.0000 0.91792  0.25336  0.25552  Biso   1.000  Cd
  Cd6      1.0000 0.98509  0.17751  0.06599  Biso   1.000  Cd
  Cd7      1.0000 0.41792  0.74664  0.24448  Biso   1.000  Cd
  Cd8      1.0000 0.48509  0.82249  0.43401  Biso   1.000  Cd
  H65      1.0000 0.84730  0.14590  0.13380  Biso   1.000  H
  H66      1.0000 0.83660  0.23790  0.13310  Biso   1.000  H
  H67      1.0000 0.95400  0.16940  0.36470  Biso   1.000  H
  H68      1.0000 0.03590  0.17720  0.45710  Biso   1.000  H
  H69      1.0000 0.10000  0.40570  0.47320  Biso   1.000  H
  H70      1.0000 0.02470  0.39430  0.37940  Biso   1.000  H
  H71      1.0000 0.17460  0.10410  0.49660  Biso   1.000  H
  H72      1.0000 0.19700  0.14690  0.44240  Biso   1.000  H
  H73      1.0000 0.26480  0.13680  0.49350  Biso   1.000  H
  H74      1.0000 0.10770  0.47690  0.67410  Biso   1.000  H
  H75      1.0000 0.11100  0.47760  0.59790  Biso   1.000  H
  H76      1.0000 0.03480  0.43770  0.62240  Biso   1.000  H
  H77      1.0000 0.29150  0.16470  0.60020  Biso   1.000  H
  H78      1.0000 0.31050  0.24750  0.66400  Biso   1.000  H
  H79      1.0000 0.27140  0.32010  0.79520  Biso   1.000  H
  H80      1.0000 0.25290  0.27690  0.84990  Biso   1.000  H
  H81      1.0000 0.32600  0.24420  0.79690  Biso   1.000  H
  H82      1.0000 0.08120  0.98670  0.70070  Biso   1.000  H
  H83      1.0000 0.00950  0.05360  0.71890  Biso   1.000  H
  H84      1.0000 0.03900  0.01110  0.64150  Biso   1.000  H
  H85      1.0000 0.14200  0.28480  0.89340  Biso   1.000  H
  H86      1.0000 0.08090  0.28650  0.99480  Biso   1.000  H
  H87      1.0000 0.06680  0.04340  0.91910  Biso   1.000  H
  H88      1.0000 0.09680  0.03510  0.80710  Biso   1.000  H
  H89      1.0000 0.67860  0.98620  0.16670  Biso   1.000  H
  H90      1.0000 0.59520  0.90190  0.20500  Biso   1.000  H
  H91      1.0000 0.67000  0.02280  0.39880  Biso   1.000  H
  H92      1.0000 0.76790  0.09130  0.36000  Biso   1.000  H
  H93      1.0000 0.08010  0.46900  0.30500  Biso   1.000  H
  H94      1.0000 0.16790  0.58420  0.33900  Biso   1.000  H
  H95      1.0000 0.22980  0.52700  0.13700  Biso   1.000  H
  H96      1.0000 0.13740  0.41640  0.10560  Biso   1.000  H
  H97      1.0000 0.34730  0.85410  0.36620  Biso   1.000  H
  H98      1.0000 0.33660  0.76210  0.36690  Biso   1.000  H
  H99      1.0000 0.45400  0.83060  0.13530  Biso   1.000  H
  H100     1.0000 0.53590  0.82280  0.04290  Biso   1.000  H
  H101     1.0000 0.60000  0.59430  0.02680  Biso   1.000  H
  H102     1.0000 0.52470  0.60570  0.12060  Biso   1.000  H
  H103     1.0000 0.67460  0.89590  0.00340  Biso   1.000  H
  H104     1.0000 0.69700  0.85310  0.05760  Biso   1.000  H
  H105     1.0000 0.76480  0.86320  0.00650  Biso   1.000  H
  H106     1.0000 0.60770  0.52310  0.82590  Biso   1.000  H
  H107     1.0000 0.61100  0.52240  0.90210  Biso   1.000  H
  H108     1.0000 0.53480  0.56230  0.87760  Biso   1.000  H
  H109     1.0000 0.79150  0.83530  0.89980  Biso   1.000  H
  H110     1.0000 0.81050  0.75250  0.83600  Biso   1.000  H
  H111     1.0000 0.77140  0.67990  0.70480  Biso   1.000  H
  H112     1.0000 0.75290  0.72310  0.65010  Biso   1.000  H
  H113     1.0000 0.82600  0.75580  0.70310  Biso   1.000  H
  H114     1.0000 0.58120  0.01330  0.79930  Biso   1.000  H
  H115     1.0000 0.50950  0.94640  0.78110  Biso   1.000  H
  H116     1.0000 0.53900  0.98890  0.85850  Biso   1.000  H
  H117     1.0000 0.64200  0.71520  0.60660  Biso   1.000  H
  H118     1.0000 0.58090  0.71350  0.50520  Biso   1.000  H
  H119     1.0000 0.56680  0.95660  0.58090  Biso   1.000  H
  H120     1.0000 0.59680  0.96490  0.69290  Biso   1.000  H
  H121     1.0000 0.17860  0.01380  0.33330  Biso   1.000  H
  H122     1.0000 0.09520  0.09810  0.29500  Biso   1.000  H
  H123     1.0000 0.17000  0.97720  0.10120  Biso   1.000  H
  H124     1.0000 0.26790  0.90870  0.14000  Biso   1.000  H
  H125     1.0000 0.58010  0.53100  0.19500  Biso   1.000  H
  H126     1.0000 0.66790  0.41580  0.16100  Biso   1.000  H
  H127     1.0000 0.72980  0.47300  0.36300  Biso   1.000  H
  H128     1.0000 0.63740  0.58360  0.39440  Biso   1.000  H
  C75      1.0000 0.98440  0.21850  0.38600  Biso   1.000  C
  C76      1.0000 0.03470  0.22320  0.44210  Biso   1.000  C
  C77      1.0000 0.08170  0.29070  0.47570  Biso   1.000  C
  C78      1.0000 0.07230  0.35520  0.45070  Biso   1.000  C
  C79      1.0000 0.02550  0.34940  0.39570  Biso   1.000  C
  C80      1.0000 0.13260  0.29490  0.53380  Biso   1.000  C
  C81      1.0000 0.18400  0.23180  0.54050  Biso   1.000  C
  C82      1.0000 0.20700  0.14730  0.48860  Biso   1.000  C
  C83      1.0000 0.13870  0.35720  0.60140  Biso   1.000  C
  C84      1.0000 0.09360  0.44610  0.62640  Biso   1.000  C
  C85      1.0000 0.26660  0.21200  0.63700  Biso   1.000  C
  C86      1.0000 0.21300  0.20630  0.75200  Biso   1.000  C
  C87      1.0000 0.27110  0.26750  0.80320  Biso   1.000  C
  C88      1.0000 0.15070  0.15800  0.77070  Biso   1.000  C
  C89      1.0000 0.12160  0.10440  0.70050  Biso   1.000  C
  C90      1.0000 0.05700  0.03200  0.68930  Biso   1.000  C
  C91      1.0000 0.12340  0.16050  0.83510  Biso   1.000  C
  C92      1.0000 0.12030  0.23480  0.89560  Biso   1.000  C
  C93      1.0000 0.08630  0.23550  0.95800  Biso   1.000  C
  C94      1.0000 0.07420  0.09400  0.91140  Biso   1.000  C
  C95      1.0000 0.09800  0.08660  0.84390  Biso   1.000  C
  C96      1.0000 0.79240  0.10130  0.23130  Biso   1.000  C
  C97      1.0000 0.73320  0.05010  0.25880  Biso   1.000  C
  C98      1.0000 0.67960  0.99190  0.21350  Biso   1.000  C
  C99      1.0000 0.62810  0.94260  0.23680  Biso   1.000  C
  C100     1.0000 0.62430  0.95250  0.30680  Biso   1.000  C
  C101     1.0000 0.67400  0.01200  0.35130  Biso   1.000  C
  C102     1.0000 0.73040  0.05620  0.32850  Biso   1.000  C
  C103     1.0000 0.56370  0.90010  0.33040  Biso   1.000  C
  C104     1.0000 0.04410  0.34990  0.18470  Biso   1.000  C
  C105     1.0000 0.10030  0.42940  0.20450  Biso   1.000  C
  C106     1.0000 0.11030  0.48090  0.27100  Biso   1.000  C
  C107     1.0000 0.16210  0.55020  0.29250  Biso   1.000  C
  C108     1.0000 0.20770  0.56610  0.23600  Biso   1.000  C
  C109     1.0000 0.26990  0.63990  0.26140  Biso   1.000  C
  C110     1.0000 0.19880  0.51660  0.17130  Biso   1.000  C
  C111     1.0000 0.14480  0.44900  0.15240  Biso   1.000  C
  C112     1.0000 0.48440  0.78150  0.11400  Biso   1.000  C
  C113     1.0000 0.53470  0.77680  0.05790  Biso   1.000  C
  C114     1.0000 0.58170  0.70930  0.02430  Biso   1.000  C
  C115     1.0000 0.57230  0.64480  0.04930  Biso   1.000  C
  C116     1.0000 0.52550  0.65060  0.10430  Biso   1.000  C
  C117     1.0000 0.63260  0.70510  0.96620  Biso   1.000  C
  C118     1.0000 0.68400  0.76820  0.95950  Biso   1.000  C
  C119     1.0000 0.70700  0.85270  0.01140  Biso   1.000  C
  C120     1.0000 0.63870  0.64280  0.89860  Biso   1.000  C
  C121     1.0000 0.59360  0.55390  0.87360  Biso   1.000  C
  C122     1.0000 0.76660  0.78800  0.86300  Biso   1.000  C
  C123     1.0000 0.71300  0.79370  0.74800  Biso   1.000  C
  C124     1.0000 0.77110  0.73250  0.69680  Biso   1.000  C
  C125     1.0000 0.65070  0.84200  0.72930  Biso   1.000  C
  C126     1.0000 0.62160  0.89560  0.79950  Biso   1.000  C
  C127     1.0000 0.55700  0.96800  0.81070  Biso   1.000  C
  C128     1.0000 0.62340  0.83950  0.66490  Biso   1.000  C
  C129     1.0000 0.62030  0.76520  0.60440  Biso   1.000  C
  C130     1.0000 0.58630  0.76450  0.54200  Biso   1.000  C
  C131     1.0000 0.57420  0.90600  0.58860  Biso   1.000  C
  C132     1.0000 0.59800  0.91340  0.65610  Biso   1.000  C
  C133     1.0000 0.29240  0.89870  0.26870  Biso   1.000  C
  C134     1.0000 0.23320  0.94990  0.24120  Biso   1.000  C
  C135     1.0000 0.17960  0.00810  0.28650  Biso   1.000  C
  C136     1.0000 0.12810  0.05740  0.26320  Biso   1.000  C
  C137     1.0000 0.12430  0.04750  0.19320  Biso   1.000  C
  C138     1.0000 0.17400  0.98800  0.14870  Biso   1.000  C
  C139     1.0000 0.23040  0.94380  0.17150  Biso   1.000  C
  C140     1.0000 0.06370  0.09990  0.16960  Biso   1.000  C
  C141     1.0000 0.54410  0.65010  0.31530  Biso   1.000  C
  C142     1.0000 0.60030  0.57060  0.29550  Biso   1.000  C
  C143     1.0000 0.61030  0.51910  0.22900  Biso   1.000  C
  C144     1.0000 0.66210  0.44980  0.20750  Biso   1.000  C
  C145     1.0000 0.70770  0.43390  0.26400  Biso   1.000  C
  C146     1.0000 0.76990  0.36010  0.23860  Biso   1.000  C
  C147     1.0000 0.69880  0.48340  0.32870  Biso   1.000  C
  C148     1.0000 0.64480  0.55100  0.34760  Biso   1.000  C
  N13      1.0000 0.97820  0.27890  0.36240  Biso   1.000  N
  N14      1.0000 0.21300  0.25970  0.60730  Biso   1.000  N
  N15      1.0000 0.18600  0.33890  0.64610  Biso   1.000  N
  N16      1.0000 0.16140  0.11840  0.65060  Biso   1.000  N
  N17      1.0000 0.21540  0.18020  0.68190  Biso   1.000  N
  N18      1.0000 0.06110  0.16330  0.96540  Biso   1.000  N
  N19      1.0000 0.47820  0.72110  0.13760  Biso   1.000  N
  N20      1.0000 0.71300  0.74030  0.89270  Biso   1.000  N
  N21      1.0000 0.68600  0.66110  0.85390  Biso   1.000  N
  N22      1.0000 0.66140  0.88160  0.84940  Biso   1.000  N
  N23      1.0000 0.71540  0.81980  0.81810  Biso   1.000  N
  N24      1.0000 0.56110  0.83670  0.53460  Biso   1.000  N
  O21      1.0000 0.79120  0.08670  0.16770  Biso   1.000  O
  O22      1.0000 0.83630  0.15440  0.27540  Biso   1.000  O
  O23      1.0000 0.52360  0.84520  0.28410  Biso   1.000  O
  O24      1.0000 0.56320  0.90780  0.39310  Biso   1.000  O
  O25      1.0000 0.04910  0.29950  0.12280  Biso   1.000  O
  O26      1.0000 0.99780  0.34760  0.23070  Biso   1.000  O
  O27      1.0000 0.27640  0.67690  0.32970  Biso   1.000  O
  O28      1.0000 0.31190  0.65270  0.21680  Biso   1.000  O
  O29      1.0000 0.90950  0.05240  0.01030  Biso   1.000  O
  O30      1.0000 0.87560  0.19910  0.14190  Biso   1.000  O
  O31      1.0000 0.29120  0.91330  0.33230  Biso   1.000  O
  O32      1.0000 0.33630  0.84560  0.22460  Biso   1.000  O
  O33      1.0000 0.02360  0.15480  0.21590  Biso   1.000  O
  O34      1.0000 0.06320  0.09220  0.10690  Biso   1.000  O
  O35      1.0000 0.54910  0.70050  0.37720  Biso   1.000  O
  O36      1.0000 0.49780  0.65240  0.26930  Biso   1.000  O
  O37      1.0000 0.77640  0.32310  0.17030  Biso   1.000  O
  O38      1.0000 0.81190  0.34730  0.28320  Biso   1.000  O
  O39      1.0000 0.40950  0.94760  0.48970  Biso   1.000  O
  O40      1.0000 0.37560  0.80090  0.35810  Biso   1.000  O
