data_image0
_cell_length_a       9.29448
_cell_length_b       19.4305
_cell_length_c       19.4305
_cell_angle_alpha    67.7291
_cell_angle_beta     76.1623
_cell_angle_gamma    76.1624

_symmetry_space_group_name_H-M    P 1
_symmetry_int_tables_number       1

loop_
  _symmetry_equiv_pos_as_xyz
  'x, y, z'

loop_
  _atom_site_label
  _atom_site_occupancy
  _atom_site_fract_x
  _atom_site_fract_y
  _atom_site_fract_z
  _atom_site_thermal_displace_type
  _atom_site_B_iso_or_equiv
  _atom_site_type_symbol
  Zn1      1.0000 0.63876  0.51401  0.51401  Biso   1.000  Zn
  Zn2      1.0000 0.16678  0.98599  0.98599  Biso   1.000  Zn
  Zn3      1.0000 0.83322  0.01401  0.01401  Biso   1.000  Zn
  Zn4      1.0000 0.36124  0.48599  0.48599  Biso   1.000  Zn
  H1       1.0000 0.89310  0.55100  0.28640  Biso   1.000  H
  H2       1.0000 0.01370  0.54880  0.16740  Biso   1.000  H
  H3       1.0000 0.64780  0.48650  0.14150  Biso   1.000  H
  H4       1.0000 0.52750  0.49280  0.25900  Biso   1.000  H
  H5       1.0000 0.23050  0.94900  0.21360  Biso   1.000  H
  H6       1.0000 0.22990  0.95120  0.33260  Biso   1.000  H
  H7       1.0000 0.77580  0.01350  0.35850  Biso   1.000  H
  H8       1.0000 0.77930  0.00720  0.24100  Biso   1.000  H
  H9       1.0000 0.76950  0.78640  0.05100  Biso   1.000  H
  H10      1.0000 0.77010  0.66740  0.04880  Biso   1.000  H
  H11      1.0000 0.22420  0.64150  0.98650  Biso   1.000  H
  H12      1.0000 0.22070  0.75900  0.99280  Biso   1.000  H
  H13      1.0000 0.10690  0.71360  0.44900  Biso   1.000  H
  H14      1.0000 0.98630  0.83260  0.45120  Biso   1.000  H
  H15      1.0000 0.35220  0.85850  0.51350  Biso   1.000  H
  H16      1.0000 0.47250  0.74100  0.50720  Biso   1.000  H
  H17      1.0000 0.10690  0.44900  0.71360  Biso   1.000  H
  H18      1.0000 0.98630  0.45120  0.83260  Biso   1.000  H
  H19      1.0000 0.35220  0.51350  0.85850  Biso   1.000  H
  H20      1.0000 0.47250  0.50720  0.74100  Biso   1.000  H
  H21      1.0000 0.76950  0.05100  0.78640  Biso   1.000  H
  H22      1.0000 0.77010  0.04880  0.66740  Biso   1.000  H
  H23      1.0000 0.22420  0.98650  0.64150  Biso   1.000  H
  H24      1.0000 0.22070  0.99280  0.75900  Biso   1.000  H
  H25      1.0000 0.23050  0.21360  0.94900  Biso   1.000  H
  H26      1.0000 0.22990  0.33260  0.95120  Biso   1.000  H
  H27      1.0000 0.77580  0.35850  0.01350  Biso   1.000  H
  H28      1.0000 0.77930  0.24100  0.00720  Biso   1.000  H
  H29      1.0000 0.89310  0.28640  0.55100  Biso   1.000  H
  H30      1.0000 0.01370  0.16740  0.54880  Biso   1.000  H
  H31      1.0000 0.64780  0.14150  0.48650  Biso   1.000  H
  H32      1.0000 0.52750  0.25900  0.49280  Biso   1.000  H
  H33      1.0000 0.86510  0.40990  0.09010  Biso   1.000  H
  H34      1.0000 0.86510  0.09010  0.40990  Biso   1.000  H
  H35      1.0000 0.13490  0.59010  0.90990  Biso   1.000  H
  H36      1.0000 0.13490  0.90990  0.59010  Biso   1.000  H
  H37      1.0000 0.01690  0.54420  0.54420  Biso   1.000  H
  H38      1.0000 0.60530  0.95580  0.95580  Biso   1.000  H
  H39      1.0000 0.39470  0.04420  0.04420  Biso   1.000  H
  H40      1.0000 0.98310  0.45580  0.45580  Biso   1.000  H
  C1       1.0000 0.62433  0.52197  0.36237  Biso   1.000  C
  C2       1.0000 0.69757  0.52223  0.28443  Biso   1.000  C
  C3       1.0000 0.84294  0.53859  0.25653  Biso   1.000  C
  C4       1.0000 0.91515  0.53685  0.18625  Biso   1.000  C
  C5       1.0000 0.84003  0.51717  0.14217  Biso   1.000  C
  C6       1.0000 0.69787  0.50033  0.17033  Biso   1.000  C
  C7       1.0000 0.62679  0.50361  0.24061  Biso   1.000  C
  C8       1.0000 0.92185  0.51055  0.06815  Biso   1.000  C
  C9       1.0000 0.00867  0.97803  0.13763  Biso   1.000  C
  C10      1.0000 0.00423  0.97777  0.21557  Biso   1.000  C
  C11      1.0000 0.13806  0.96141  0.24347  Biso   1.000  C
  C12      1.0000 0.13825  0.96315  0.31375  Biso   1.000  C
  C13      1.0000 0.99937  0.98283  0.35783  Biso   1.000  C
  C14      1.0000 0.86853  0.99967  0.32967  Biso   1.000  C
  C15      1.0000 0.87101  0.99639  0.25939  Biso   1.000  C
  C16      1.0000 0.00055  0.98945  0.43185  Biso   1.000  C
  C17      1.0000 0.99133  0.86237  0.02197  Biso   1.000  C
  C18      1.0000 0.99577  0.78443  0.02223  Biso   1.000  C
  C19      1.0000 0.86194  0.75653  0.03859  Biso   1.000  C
  C20      1.0000 0.86175  0.68625  0.03685  Biso   1.000  C
  C21      1.0000 0.00063  0.64217  0.01717  Biso   1.000  C
  C22      1.0000 0.13147  0.67033  0.00033  Biso   1.000  C
  C23      1.0000 0.12899  0.74061  0.00361  Biso   1.000  C
  C24      1.0000 0.99945  0.56815  0.01055  Biso   1.000  C
  C25      1.0000 0.37567  0.63763  0.47803  Biso   1.000  C
  C26      1.0000 0.30243  0.71557  0.47777  Biso   1.000  C
  C27      1.0000 0.15706  0.74347  0.46141  Biso   1.000  C
  C28      1.0000 0.08485  0.81375  0.46315  Biso   1.000  C
  C29      1.0000 0.15997  0.85783  0.48283  Biso   1.000  C
  C30      1.0000 0.30213  0.82967  0.49967  Biso   1.000  C
  C31      1.0000 0.37321  0.75939  0.49639  Biso   1.000  C
  C32      1.0000 0.07815  0.93185  0.48945  Biso   1.000  C
  C33      1.0000 0.37567  0.47803  0.63763  Biso   1.000  C
  C34      1.0000 0.30243  0.47777  0.71557  Biso   1.000  C
  C35      1.0000 0.15706  0.46141  0.74347  Biso   1.000  C
  C36      1.0000 0.08485  0.46315  0.81375  Biso   1.000  C
  C37      1.0000 0.15997  0.48283  0.85783  Biso   1.000  C
  C38      1.0000 0.30213  0.49967  0.82967  Biso   1.000  C
  C39      1.0000 0.37321  0.49639  0.75939  Biso   1.000  C
  C40      1.0000 0.07815  0.48945  0.93185  Biso   1.000  C
  C41      1.0000 0.99133  0.02197  0.86237  Biso   1.000  C
  C42      1.0000 0.99577  0.02223  0.78443  Biso   1.000  C
  C43      1.0000 0.86194  0.03859  0.75653  Biso   1.000  C
  C44      1.0000 0.86175  0.03685  0.68625  Biso   1.000  C
  C45      1.0000 0.00063  0.01717  0.64217  Biso   1.000  C
  C46      1.0000 0.13147  0.00033  0.67033  Biso   1.000  C
  C47      1.0000 0.12899  0.00361  0.74061  Biso   1.000  C
  C48      1.0000 0.99945  0.01055  0.56815  Biso   1.000  C
  C49      1.0000 0.00867  0.13763  0.97803  Biso   1.000  C
  C50      1.0000 0.00423  0.21557  0.97777  Biso   1.000  C
  C51      1.0000 0.13806  0.24347  0.96141  Biso   1.000  C
  C52      1.0000 0.13825  0.31375  0.96315  Biso   1.000  C
  C53      1.0000 0.99937  0.35783  0.98283  Biso   1.000  C
  C54      1.0000 0.86853  0.32967  0.99967  Biso   1.000  C
  C55      1.0000 0.87101  0.25939  0.99639  Biso   1.000  C
  C56      1.0000 0.00055  0.43185  0.98945  Biso   1.000  C
  C57      1.0000 0.62433  0.36237  0.52197  Biso   1.000  C
  C58      1.0000 0.69757  0.28443  0.52223  Biso   1.000  C
  C59      1.0000 0.84294  0.25653  0.53859  Biso   1.000  C
  C60      1.0000 0.91515  0.18625  0.53685  Biso   1.000  C
  C61      1.0000 0.84003  0.14217  0.51717  Biso   1.000  C
  C62      1.0000 0.69787  0.17033  0.50033  Biso   1.000  C
  C63      1.0000 0.62679  0.24061  0.50361  Biso   1.000  C
  C64      1.0000 0.92185  0.06815  0.51055  Biso   1.000  C
  C65      1.0000 0.92220  0.44630  0.05370  Biso   1.000  C
  C66      1.0000 0.92220  0.05370  0.44630  Biso   1.000  C
  C67      1.0000 0.07780  0.55370  0.94630  Biso   1.000  C
  C68      1.0000 0.07780  0.94630  0.55370  Biso   1.000  C
  C69      1.0000 0.91100  0.55670  0.55670  Biso   1.000  C
  C70      1.0000 0.96320  0.62610  0.62610  Biso   1.000  C
  C71      1.0000 0.69570  0.62360  0.62360  Biso   1.000  C
  C72      1.0000 0.52440  0.94330  0.94330  Biso   1.000  C
  C73      1.0000 0.71540  0.87390  0.87390  Biso   1.000  C
  C74      1.0000 0.44290  0.87640  0.87640  Biso   1.000  C
  C75      1.0000 0.47560  0.05670  0.05670  Biso   1.000  C
  C76      1.0000 0.28460  0.12610  0.12610  Biso   1.000  C
  C77      1.0000 0.55710  0.12360  0.12360  Biso   1.000  C
  C78      1.0000 0.08900  0.44330  0.44330  Biso   1.000  C
  C79      1.0000 0.03680  0.37390  0.37390  Biso   1.000  C
  C80      1.0000 0.30430  0.37640  0.37640  Biso   1.000  C
  N1       1.0000 0.85290  0.59890  0.59890  Biso   1.000  N
  N2       1.0000 0.55070  0.90110  0.90110  Biso   1.000  N
  N3       1.0000 0.44930  0.09890  0.09890  Biso   1.000  N
  N4       1.0000 0.14710  0.40110  0.40110  Biso   1.000  N
  O1       1.0000 0.70207  0.53039  0.40167  Biso   1.000  O
  O2       1.0000 0.49069  0.51108  0.38134  Biso   1.000  O
  O3       1.0000 0.13413  0.96961  0.09833  Biso   1.000  O
  O4       1.0000 0.88311  0.98892  0.11866  Biso   1.000  O
  O5       1.0000 0.86587  0.90167  0.03039  Biso   1.000  O
  O6       1.0000 0.11689  0.88134  0.01108  Biso   1.000  O
  O7       1.0000 0.29793  0.59833  0.46961  Biso   1.000  O
  O8       1.0000 0.50931  0.61866  0.48892  Biso   1.000  O
  O9       1.0000 0.29793  0.46961  0.59833  Biso   1.000  O
  O10      1.0000 0.50931  0.48892  0.61866  Biso   1.000  O
  O11      1.0000 0.86587  0.03039  0.90167  Biso   1.000  O
  O12      1.0000 0.11689  0.01108  0.88134  Biso   1.000  O
  O13      1.0000 0.13413  0.09833  0.96961  Biso   1.000  O
  O14      1.0000 0.88311  0.11866  0.98892  Biso   1.000  O
  O15      1.0000 0.70207  0.40167  0.53039  Biso   1.000  O
  O16      1.0000 0.49069  0.38134  0.51108  Biso   1.000  O
  O17      1.0000 0.81995  0.53165  0.53165  Biso   1.000  O
  O18      1.0000 0.38325  0.96835  0.96835  Biso   1.000  O
  O19      1.0000 0.61675  0.03165  0.03165  Biso   1.000  O
  O20      1.0000 0.18005  0.46835  0.46835  Biso   1.000  O
