data_TORJER_freeONLY
_audit_creation_date              2015-10-16
_audit_creation_method            'Materials Studio'
_symmetry_space_group_name_H-M    'P1'
_symmetry_Int_Tables_number       1
_symmetry_cell_setting            triclinic
loop_
_symmetry_equiv_pos_as_xyz
  x,y,z
_cell_length_a                    10.9320
_cell_length_b                    16.7130
_cell_length_c                    18.8930
_cell_angle_alpha                 90.0000
_cell_angle_beta                  90.0000
_cell_angle_gamma                 90.0000
loop_
_atom_site_label
_atom_site_type_symbol
_atom_site_fract_x
_atom_site_fract_y
_atom_site_fract_z
_atom_site_U_iso_or_equiv
_atom_site_adp_type
_atom_site_occupancy
Tb1    Tb    0.29423   0.25000   0.70461   0.01267  Uiso   1.00
Tb2    Tb    0.20577   0.75000   0.20461   0.01267  Uiso   1.00
Tb3    Tb    0.70577   0.75000   0.29539   0.01267  Uiso   1.00
Tb4    Tb    0.79423   0.25000   0.79539   0.01267  Uiso   1.00
H1     H     0.53850   0.01040   0.81900   0.01267  Uiso   1.00
H2     H     0.48050   0.32790   0.95820   0.01267  Uiso   1.00
H3     H     0.97430   0.75000   0.91350   0.01267  Uiso   1.00
H4     H     0.97140   0.89340   0.63520   0.01267  Uiso   1.00
H5     H     0.02410   0.64330   0.25830   0.01267  Uiso   1.00
H6     H     0.24980   0.04680   0.51260   0.01267  Uiso   1.00
H7     H     0.96150   0.98960   0.31900   0.01267  Uiso   1.00
H8     H     0.32180   0.07060   0.96260   0.01267  Uiso   1.00
H9     H     0.47590   0.14330   0.75830   0.01267  Uiso   1.00
H10    H     0.36400   0.25000   0.20690   0.01267  Uiso   1.00
H11    H     0.74980   0.45320   0.98740   0.01267  Uiso   1.00
H12    H     0.67820   0.92940   0.03740   0.01267  Uiso   1.00
H13    H     0.17820   0.57060   0.46260   0.01267  Uiso   1.00
H14    H     0.52860   0.39340   0.13520   0.01267  Uiso   1.00
H15    H     0.25020   0.95320   0.01260   0.01267  Uiso   1.00
H16    H     0.51950   0.82790   0.04180   0.01267  Uiso   1.00
H17    H     0.53850   0.48960   0.81900   0.01267  Uiso   1.00
H18    H     0.02410   0.85670   0.25830   0.01267  Uiso   1.00
H19    H     0.07470   0.32090   0.47950   0.01267  Uiso   1.00
H20    H     0.46150   0.98960   0.18100   0.01267  Uiso   1.00
H21    H     0.97590   0.35670   0.74170   0.01267  Uiso   1.00
H22    H     0.47430   0.75000   0.58650   0.01267  Uiso   1.00
H23    H     0.82180   0.42940   0.53740   0.01267  Uiso   1.00
H24    H     0.51950   0.67210   0.04180   0.01267  Uiso   1.00
H25    H     0.07470   0.17910   0.47950   0.01267  Uiso   1.00
H26    H     0.61320   0.65930   0.18110   0.01267  Uiso   1.00
H27    H     0.01950   0.67210   0.45820   0.01267  Uiso   1.00
H28    H     0.96440   0.25000   0.96960   0.01267  Uiso   1.00
H29    H     0.32180   0.42940   0.96260   0.01267  Uiso   1.00
H30    H     0.98050   0.17210   0.54180   0.01267  Uiso   1.00
H31    H     0.82180   0.07060   0.53740   0.01267  Uiso   1.00
H32    H     0.46150   0.51040   0.18100   0.01267  Uiso   1.00
H33    H     0.52860   0.10660   0.13520   0.01267  Uiso   1.00
H34    H     0.88680   0.34070   0.68110   0.01267  Uiso   1.00
H35    H     0.98050   0.32790   0.54180   0.01267  Uiso   1.00
H36    H     0.57470   0.17910   0.02050   0.01267  Uiso   1.00
H37    H     0.46440   0.25000   0.53040   0.01267  Uiso   1.00
H38    H     0.42530   0.67910   0.97950   0.01267  Uiso   1.00
H39    H     0.96150   0.51040   0.31900   0.01267  Uiso   1.00
H40    H     0.01950   0.82790   0.45820   0.01267  Uiso   1.00
H41    H     0.63600   0.75000   0.79310   0.01267  Uiso   1.00
H42    H     0.67820   0.57060   0.03740   0.01267  Uiso   1.00
H43    H     0.03560   0.75000   0.03040   0.01267  Uiso   1.00
H44    H     0.03850   0.01040   0.68100   0.01267  Uiso   1.00
H45    H     0.52410   0.85670   0.24170   0.01267  Uiso   1.00
H46    H     0.24980   0.45320   0.51260   0.01267  Uiso   1.00
H47    H     0.11320   0.65930   0.31890   0.01267  Uiso   1.00
H48    H     0.03850   0.48960   0.68100   0.01267  Uiso   1.00
H49    H     0.25020   0.54680   0.01260   0.01267  Uiso   1.00
H50    H     0.52410   0.64330   0.24170   0.01267  Uiso   1.00
H51    H     0.02860   0.10660   0.36480   0.01267  Uiso   1.00
H52    H     0.74980   0.04680   0.98740   0.01267  Uiso   1.00
H53    H     0.38680   0.15930   0.81890   0.01267  Uiso   1.00
H54    H     0.47590   0.35670   0.75830   0.01267  Uiso   1.00
H55    H     0.86400   0.25000   0.29310   0.01267  Uiso   1.00
H56    H     0.48050   0.17210   0.95820   0.01267  Uiso   1.00
H57    H     0.57470   0.32090   0.02050   0.01267  Uiso   1.00
H58    H     0.47140   0.89340   0.86480   0.01267  Uiso   1.00
H59    H     0.18350   0.75000   0.40920   0.01267  Uiso   1.00
H60    H     0.88680   0.15930   0.68110   0.01267  Uiso   1.00
H61    H     0.02570   0.25000   0.08650   0.01267  Uiso   1.00
H62    H     0.75020   0.95320   0.48740   0.01267  Uiso   1.00
H63    H     0.42530   0.82090   0.97950   0.01267  Uiso   1.00
H64    H     0.52570   0.25000   0.41350   0.01267  Uiso   1.00
H65    H     0.61320   0.84070   0.18110   0.01267  Uiso   1.00
H66    H     0.13600   0.75000   0.70690   0.01267  Uiso   1.00
H67    H     0.17820   0.92940   0.46260   0.01267  Uiso   1.00
H68    H     0.02860   0.39340   0.36480   0.01267  Uiso   1.00
H69    H     0.81650   0.25000   0.59080   0.01267  Uiso   1.00
H70    H     0.53560   0.75000   0.46960   0.01267  Uiso   1.00
H71    H     0.11320   0.84070   0.31890   0.01267  Uiso   1.00
H72    H     0.92530   0.67910   0.52050   0.01267  Uiso   1.00
H73    H     0.47140   0.60660   0.86480   0.01267  Uiso   1.00
H74    H     0.75020   0.54680   0.48740   0.01267  Uiso   1.00
H75    H     0.97140   0.60660   0.63520   0.01267  Uiso   1.00
H76    H     0.92530   0.82090   0.52050   0.01267  Uiso   1.00
H77    H     0.68350   0.75000   0.09080   0.01267  Uiso   1.00
H78    H     0.31650   0.25000   0.90920   0.01267  Uiso   1.00
H79    H     0.38680   0.34070   0.81890   0.01267  Uiso   1.00
H80    H     0.97590   0.14330   0.74170   0.01267  Uiso   1.00
C1     C     0.89960   0.75000   0.14700   0.01267  Uiso   1.00
C2     C     0.97440   0.42480   0.39070   0.01267  Uiso   1.00
C3     C     0.69190   0.48360   0.96340   0.01267  Uiso   1.00
C4     C     0.06350   0.89950   0.54210   0.01267  Uiso   1.00
C5     C     0.29450   0.75000   0.57030   0.01267  Uiso   1.00
C6     C     0.43310   0.49430   0.13680   0.01267  Uiso   1.00
C7     C     0.74240   0.75000   0.05530   0.01267  Uiso   1.00
C8     C     0.06690   0.50570   0.63680   0.01267  Uiso   1.00
C9     C     0.35080   0.05430   0.00660   0.01267  Uiso   1.00
C10    C     0.14960   0.45790   0.60180   0.01267  Uiso   1.00
C11    C     0.80780   0.88150   0.36830   0.01267  Uiso   1.00
C12    C     0.56350   0.60050   0.95790   0.01267  Uiso   1.00
C13    C     0.74100   0.25000   0.35210   0.01267  Uiso   1.00
C14    C     0.36320   0.75000   0.42800   0.01267  Uiso   1.00
C15    C     0.69190   0.01640   0.96340   0.01267  Uiso   1.00
C16    C     0.85080   0.44570   0.49340   0.01267  Uiso   1.00
C17    C     0.06690   0.99430   0.63680   0.01267  Uiso   1.00
C18    C     0.41520   0.75000   0.55110   0.01267  Uiso   1.00
C19    C     0.80810   0.51640   0.46340   0.01267  Uiso   1.00
C20    C     0.06350   0.60050   0.54210   0.01267  Uiso   1.00
C21    C     0.97440   0.07520   0.39070   0.01267  Uiso   1.00
C22    C     0.93650   0.39950   0.45790   0.01267  Uiso   1.00
C23    C     0.51170   0.82460   0.99080   0.01267  Uiso   1.00
C24    C     0.48830   0.32460   0.00920   0.01267  Uiso   1.00
C25    C     0.80810   0.98360   0.46340   0.01267  Uiso   1.00
C26    C     0.30810   0.98360   0.03660   0.01267  Uiso   1.00
C27    C     0.80780   0.61850   0.36830   0.01267  Uiso   1.00
C28    C     0.04710   0.25000   0.98110   0.01267  Uiso   1.00
C29    C     0.14920   0.94570   0.50660   0.01267  Uiso   1.00
C30    C     0.91520   0.75000   0.94890   0.01267  Uiso   1.00
C31    C     0.39960   0.75000   0.35300   0.01267  Uiso   1.00
C32    C     0.56350   0.89950   0.95790   0.01267  Uiso   1.00
C33    C     0.30810   0.51640   0.03660   0.01267  Uiso   1.00
C34    C     0.19190   0.01640   0.53660   0.01267  Uiso   1.00
C35    C     0.43650   0.10050   0.04210   0.01267  Uiso   1.00
C36    C     0.93650   0.10050   0.45790   0.01267  Uiso   1.00
C37    C     0.98830   0.17540   0.49080   0.01267  Uiso   1.00
C38    C     0.69220   0.11850   0.86830   0.01267  Uiso   1.00
C39    C     0.47440   0.42480   0.10930   0.01267  Uiso   1.00
C40    C     0.02560   0.92480   0.60930   0.01267  Uiso   1.00
C41    C     0.13680   0.25000   0.92800   0.01267  Uiso   1.00
C42    C     0.35040   0.95790   0.10180   0.01267  Uiso   1.00
C43    C     0.64960   0.04210   0.89820   0.01267  Uiso   1.00
C44    C     0.24100   0.25000   0.14790   0.01267  Uiso   1.00
C45    C     0.35080   0.44570   0.00660   0.01267  Uiso   1.00
C46    C     0.93310   0.00570   0.36320   0.01267  Uiso   1.00
C47    C     0.70670   0.75000   0.98160   0.01267  Uiso   1.00
C48    C     0.75900   0.75000   0.85210   0.01267  Uiso   1.00
C49    C     0.64960   0.45790   0.89820   0.01267  Uiso   1.00
C50    C     0.30780   0.88150   0.13170   0.01267  Uiso   1.00
C51    C     0.35040   0.54210   0.10180   0.01267  Uiso   1.00
C52    C     0.56690   0.50570   0.86320   0.01267  Uiso   1.00
C53    C     0.01170   0.82460   0.50920   0.01267  Uiso   1.00
C54    C     0.54710   0.25000   0.51890   0.01267  Uiso   1.00
C55    C     0.48830   0.17540   0.00920   0.01267  Uiso   1.00
C56    C     0.70550   0.25000   0.42970   0.01267  Uiso   1.00
C57    C     0.19220   0.38150   0.63170   0.01267  Uiso   1.00
C58    C     0.30780   0.61850   0.13170   0.01267  Uiso   1.00
C59    C     0.93310   0.49430   0.36320   0.01267  Uiso   1.00
C60    C     0.75760   0.25000   0.55530   0.01267  Uiso   1.00
C61    C     0.64920   0.55430   0.99340   0.01267  Uiso   1.00
C62    C     0.43650   0.39950   0.04210   0.01267  Uiso   1.00
C63    C     0.79330   0.25000   0.48160   0.01267  Uiso   1.00
C64    C     0.08480   0.25000   0.05110   0.01267  Uiso   1.00
C65    C     0.98830   0.32460   0.49080   0.01267  Uiso   1.00
C66    C     0.02560   0.57520   0.60930   0.01267  Uiso   1.00
C67    C     0.47440   0.07520   0.10930   0.01267  Uiso   1.00
C68    C     0.56690   0.99430   0.86320   0.01267  Uiso   1.00
C69    C     0.79450   0.75000   0.92970   0.01267  Uiso   1.00
C70    C     0.20670   0.75000   0.51840   0.01267  Uiso   1.00
C71    C     0.25900   0.75000   0.64790   0.01267  Uiso   1.00
C72    C     0.24240   0.75000   0.44470   0.01267  Uiso   1.00
C73    C     0.14920   0.55430   0.50660   0.01267  Uiso   1.00
C74    C     0.86320   0.75000   0.07200   0.01267  Uiso   1.00
C75    C     0.51170   0.67540   0.99080   0.01267  Uiso   1.00
C76    C     0.43310   0.00570   0.13680   0.01267  Uiso   1.00
C77    C     0.25760   0.25000   0.94470   0.01267  Uiso   1.00
C78    C     0.29330   0.25000   0.01840   0.01267  Uiso   1.00
C79    C     0.01170   0.67540   0.50920   0.01267  Uiso   1.00
C80    C     0.64920   0.94570   0.99340   0.01267  Uiso   1.00
C81    C     0.52560   0.57520   0.89070   0.01267  Uiso   1.00
C82    C     0.69220   0.38150   0.86830   0.01267  Uiso   1.00
C83    C     0.85040   0.95790   0.39820   0.01267  Uiso   1.00
C84    C     0.60040   0.25000   0.64700   0.01267  Uiso   1.00
C85    C     0.14960   0.04210   0.60180   0.01267  Uiso   1.00
C86    C     0.58480   0.25000   0.44890   0.01267  Uiso   1.00
C87    C     0.19220   0.11850   0.63170   0.01267  Uiso   1.00
C88    C     0.19190   0.48360   0.53660   0.01267  Uiso   1.00
C89    C     0.45290   0.75000   0.48110   0.01267  Uiso   1.00
C90    C     0.52560   0.92480   0.89070   0.01267  Uiso   1.00
C91    C     0.10040   0.25000   0.85300   0.01267  Uiso   1.00
C92    C     0.20550   0.25000   0.07030   0.01267  Uiso   1.00
C93    C     0.95290   0.75000   0.01890   0.01267  Uiso   1.00
C94    C     0.85040   0.54210   0.39820   0.01267  Uiso   1.00
C95    C     0.63680   0.25000   0.57200   0.01267  Uiso   1.00
C96    C     0.85080   0.05430   0.49340   0.01267  Uiso   1.00
N1     N     0.42440   0.25000   0.03500   0.01267  Uiso   1.00
N2     N     0.92440   0.25000   0.46500   0.01267  Uiso   1.00
N3     N     0.57560   0.75000   0.96500   0.01267  Uiso   1.00
N4     N     0.07560   0.75000   0.53500   0.01267  Uiso   1.00
O1     O     0.65920   0.25000   0.30740   0.01267  Uiso   1.00
O2     O     0.15920   0.25000   0.19260   0.01267  Uiso   1.00
O3     O     0.89150   0.35250   0.72850   0.01267  Uiso   1.00
O4     O     0.35600   0.25000   0.16380   0.01267  Uiso   1.00
O5     O     0.21470   0.84670   0.10810   0.01267  Uiso   1.00
O6     O     0.68530   0.25000   0.69300   0.01267  Uiso   1.00
O7     O     0.98890   0.25000   0.83620   0.01267  Uiso   1.00
O8     O     0.71470   0.84670   0.39190   0.01267  Uiso   1.00
O9     O     0.13710   0.35020   0.68380   0.01267  Uiso   1.00
O10    O     0.10850   0.85250   0.27150   0.01267  Uiso   1.00
O11    O     0.86290   0.85020   0.31620   0.01267  Uiso   1.00
O12    O     0.39150   0.35250   0.77150   0.01267  Uiso   1.00
O13    O     0.36290   0.64980   0.18380   0.01267  Uiso   1.00
O14    O     0.39150   0.14750   0.77150   0.01267  Uiso   1.00
O15    O     0.64400   0.75000   0.83620   0.01267  Uiso   1.00
O16    O     0.18530   0.25000   0.80700   0.01267  Uiso   1.00
O17    O     0.48890   0.25000   0.66380   0.01267  Uiso   1.00
O18    O     0.86290   0.64980   0.31620   0.01267  Uiso   1.00
O19    O     0.85600   0.25000   0.33620   0.01267  Uiso   1.00
O20    O     0.78530   0.15330   0.89190   0.01267  Uiso   1.00
O21    O     0.78530   0.34670   0.89190   0.01267  Uiso   1.00
O22    O     0.28530   0.34670   0.60810   0.01267  Uiso   1.00
O23    O     0.01110   0.75000   0.16380   0.01267  Uiso   1.00
O24    O     0.14400   0.75000   0.66380   0.01267  Uiso   1.00
O25    O     0.31470   0.75000   0.30700   0.01267  Uiso   1.00
O26    O     0.63710   0.14980   0.81620   0.01267  Uiso   1.00
O27    O     0.34080   0.75000   0.69260   0.01267  Uiso   1.00
O28    O     0.84080   0.75000   0.80740   0.01267  Uiso   1.00
O29    O     0.36290   0.85020   0.18380   0.01267  Uiso   1.00
O30    O     0.21470   0.65330   0.10810   0.01267  Uiso   1.00
O31    O     0.71470   0.65330   0.39190   0.01267  Uiso   1.00
O32    O     0.60850   0.64750   0.22850   0.01267  Uiso   1.00
O33    O     0.89150   0.14750   0.72850   0.01267  Uiso   1.00
O34    O     0.13710   0.14980   0.68380   0.01267  Uiso   1.00
O35    O     0.81470   0.75000   0.19300   0.01267  Uiso   1.00
O36    O     0.28530   0.15330   0.60810   0.01267  Uiso   1.00
O37    O     0.51110   0.75000   0.33620   0.01267  Uiso   1.00
O38    O     0.63710   0.35020   0.81620   0.01267  Uiso   1.00
O39    O     0.60850   0.85250   0.22850   0.01267  Uiso   1.00
O40    O     0.10850   0.64750   0.27150   0.01267  Uiso   1.00
