data_image0
_cell_length_a       15.209
_cell_length_b       16.361
_cell_length_c       17.463
_cell_angle_alpha    110.41
_cell_angle_beta     90
_cell_angle_gamma    90

_symmetry_space_group_name_H-M    P 1
_symmetry_int_tables_number       1

loop_
  _symmetry_equiv_pos_as_xyz
  'x, y, z'

loop_
  _atom_site_label
  _atom_site_occupancy
  _atom_site_fract_x
  _atom_site_fract_y
  _atom_site_fract_z
  _atom_site_thermal_displace_type
  _atom_site_B_iso_or_equiv
  _atom_site_type_symbol
  Mn1      1.0000 0.56644  0.54187  0.76662  Biso   1.000  Mn
  Mn2      1.0000 0.85096  0.44977  0.71831  Biso   1.000  Mn
  Mn3      1.0000 0.06644  0.95813  0.73338  Biso   1.000  Mn
  Mn4      1.0000 0.35096  0.05023  0.78169  Biso   1.000  Mn
  Mn5      1.0000 0.43356  0.45813  0.23338  Biso   1.000  Mn
  Mn6      1.0000 0.14904  0.55023  0.28169  Biso   1.000  Mn
  Mn7      1.0000 0.93356  0.04187  0.26662  Biso   1.000  Mn
  Mn8      1.0000 0.64904  0.94977  0.21831  Biso   1.000  Mn
  H1       1.0000 0.81020  0.03360  0.68020  Biso   1.000  H
  H2       1.0000 0.59030  0.93700  0.76580  Biso   1.000  H
  H3       1.0000 0.88400  0.72090  0.72200  Biso   1.000  H
  H4       1.0000 0.53310  0.27130  0.75090  Biso   1.000  H
  H5       1.0000 0.65920  0.04570  0.71670  Biso   1.000  H
  H6       1.0000 0.78600  0.24380  0.68210  Biso   1.000  H
  H7       1.0000 0.51490  0.81790  0.81120  Biso   1.000  H
  H8       1.0000 0.48270  0.91480  0.83850  Biso   1.000  H
  H9       1.0000 0.62930  0.73870  0.77990  Biso   1.000  H
  H10      1.0000 0.75390  0.94380  0.75590  Biso   1.000  H
  H11      1.0000 0.81530  0.01130  0.39360  Biso   1.000  H
  H12      1.0000 0.01730  0.15770  0.57520  Biso   1.000  H
  H13      1.0000 0.51330  0.78630  0.93490  Biso   1.000  H
  H14      1.0000 0.04570  0.12170  0.44040  Biso   1.000  H
  H15      1.0000 0.79200  0.03740  0.53120  Biso   1.000  H
  H16      1.0000 0.63530  0.00190  0.94030  Biso   1.000  H
  H17      1.0000 0.56330  0.80950  0.06290  Biso   1.000  H
  H18      1.0000 0.67190  0.02430  0.07180  Biso   1.000  H
  H19      1.0000 0.31020  0.46640  0.81980  Biso   1.000  H
  H20      1.0000 0.09030  0.56300  0.73420  Biso   1.000  H
  H21      1.0000 0.38400  0.77910  0.77800  Biso   1.000  H
  H22      1.0000 0.03310  0.22870  0.74910  Biso   1.000  H
  H23      1.0000 0.15920  0.45430  0.78330  Biso   1.000  H
  H24      1.0000 0.28600  0.25620  0.81790  Biso   1.000  H
  H25      1.0000 0.01490  0.68210  0.68880  Biso   1.000  H
  H26      1.0000 0.98270  0.58520  0.66150  Biso   1.000  H
  H27      1.0000 0.12930  0.76130  0.72010  Biso   1.000  H
  H28      1.0000 0.25390  0.55620  0.74410  Biso   1.000  H
  H29      1.0000 0.31530  0.48870  0.10640  Biso   1.000  H
  H30      1.0000 0.51730  0.34230  0.92480  Biso   1.000  H
  H31      1.0000 0.01330  0.71370  0.56510  Biso   1.000  H
  H32      1.0000 0.54570  0.37830  0.05960  Biso   1.000  H
  H33      1.0000 0.29200  0.46260  0.96880  Biso   1.000  H
  H34      1.0000 0.13530  0.49810  0.55970  Biso   1.000  H
  H35      1.0000 0.06330  0.69050  0.43710  Biso   1.000  H
  H36      1.0000 0.17190  0.47570  0.42820  Biso   1.000  H
  H37      1.0000 0.18980  0.96640  0.31980  Biso   1.000  H
  H38      1.0000 0.40970  0.06300  0.23420  Biso   1.000  H
  H39      1.0000 0.11600  0.27910  0.27800  Biso   1.000  H
  H40      1.0000 0.46690  0.72870  0.24910  Biso   1.000  H
  H41      1.0000 0.34080  0.95430  0.28330  Biso   1.000  H
  H42      1.0000 0.21400  0.75620  0.31790  Biso   1.000  H
  H43      1.0000 0.48510  0.18210  0.18880  Biso   1.000  H
  H44      1.0000 0.51730  0.08520  0.16150  Biso   1.000  H
  H45      1.0000 0.37070  0.26130  0.22010  Biso   1.000  H
  H46      1.0000 0.24610  0.05620  0.24410  Biso   1.000  H
  H47      1.0000 0.18470  0.98870  0.60640  Biso   1.000  H
  H48      1.0000 0.98270  0.84230  0.42480  Biso   1.000  H
  H49      1.0000 0.48670  0.21370  0.06510  Biso   1.000  H
  H50      1.0000 0.95430  0.87830  0.55960  Biso   1.000  H
  H51      1.0000 0.20800  0.96260  0.46880  Biso   1.000  H
  H52      1.0000 0.36470  0.99810  0.05970  Biso   1.000  H
  H53      1.0000 0.43670  0.19050  0.93710  Biso   1.000  H
  H54      1.0000 0.32810  0.97570  0.92820  Biso   1.000  H
  H55      1.0000 0.68980  0.53360  0.18020  Biso   1.000  H
  H56      1.0000 0.90970  0.43700  0.26580  Biso   1.000  H
  H57      1.0000 0.61600  0.22090  0.22200  Biso   1.000  H
  H58      1.0000 0.96690  0.77130  0.25090  Biso   1.000  H
  H59      1.0000 0.84080  0.54570  0.21670  Biso   1.000  H
  H60      1.0000 0.71400  0.74380  0.18210  Biso   1.000  H
  H61      1.0000 0.98510  0.31790  0.31120  Biso   1.000  H
  H62      1.0000 0.01730  0.41480  0.33850  Biso   1.000  H
  H63      1.0000 0.87070  0.23870  0.27990  Biso   1.000  H
  H64      1.0000 0.74610  0.44380  0.25590  Biso   1.000  H
  H65      1.0000 0.68470  0.51130  0.89360  Biso   1.000  H
  H66      1.0000 0.48270  0.65770  0.07520  Biso   1.000  H
  H67      1.0000 0.98670  0.28630  0.43490  Biso   1.000  H
  H68      1.0000 0.45430  0.62170  0.94040  Biso   1.000  H
  H69      1.0000 0.70800  0.53740  0.03120  Biso   1.000  H
  H70      1.0000 0.86470  0.50190  0.44030  Biso   1.000  H
  H71      1.0000 0.93670  0.30950  0.56290  Biso   1.000  H
  H72      1.0000 0.82810  0.52430  0.57180  Biso   1.000  H
  C1       1.0000 0.58450  0.15240  0.73810  Biso   1.000  C
  C2       1.0000 0.66010  0.27250  0.71640  Biso   1.000  C
  C3       1.0000 0.89680  0.11750  0.66050  Biso   1.000  C
  C4       1.0000 0.83150  0.83790  0.73600  Biso   1.000  C
  C5       1.0000 0.83210  0.75290  0.73400  Biso   1.000  C
  C6       1.0000 0.50240  0.11510  0.76010  Biso   1.000  C
  C7       1.0000 0.58400  0.23790  0.73740  Biso   1.000  C
  C8       1.0000 0.75760  0.71530  0.74960  Biso   1.000  C
  C9       1.0000 0.66010  0.10300  0.71780  Biso   1.000  C
  C10      1.0000 0.73550  0.22090  0.69700  Biso   1.000  C
  C11      1.0000 0.67760  0.84910  0.76770  Biso   1.000  C
  C12      1.0000 0.56470  0.89300  0.92130  Biso   1.000  C
  C13      1.0000 0.73830  0.13730  0.69890  Biso   1.000  C
  C14      1.0000 0.75830  0.62460  0.75150  Biso   1.000  C
  C15      1.0000 0.53350  0.87810  0.83600  Biso   1.000  C
  C16      1.0000 0.90590  0.09990  0.57000  Biso   1.000  C
  C17      1.0000 0.91540  0.88080  0.72460  Biso   1.000  C
  C18      1.0000 0.67990  0.76360  0.76770  Biso   1.000  C
  C19      1.0000 0.66120  0.36290  0.71560  Biso   1.000  C
  C20      1.0000 0.75390  0.88610  0.75360  Biso   1.000  C
  C21      1.0000 0.85850  0.04070  0.43070  Biso   1.000  C
  C22      1.0000 0.97550  0.12460  0.53860  Biso   1.000  C
  C23      1.0000 0.54610  0.83620  0.96130  Biso   1.000  C
  C24      1.0000 0.99220  0.10610  0.45710  Biso   1.000  C
  C25      1.0000 0.84360  0.05640  0.51420  Biso   1.000  C
  C26      1.0000 0.61610  0.96280  0.96460  Biso   1.000  C
  C27      1.0000 0.57510  0.85170  0.03990  Biso   1.000  C
  C28      1.0000 0.63900  0.97490  0.04390  Biso   1.000  C
  C29      1.0000 0.08450  0.34760  0.76190  Biso   1.000  C
  C30      1.0000 0.16010  0.22750  0.78360  Biso   1.000  C
  C31      1.0000 0.39680  0.38250  0.83950  Biso   1.000  C
  C32      1.0000 0.33150  0.66210  0.76400  Biso   1.000  C
  C33      1.0000 0.33210  0.74710  0.76600  Biso   1.000  C
  C34      1.0000 0.00240  0.38490  0.73990  Biso   1.000  C
  C35      1.0000 0.08400  0.26210  0.76260  Biso   1.000  C
  C36      1.0000 0.25760  0.78470  0.75040  Biso   1.000  C
  C37      1.0000 0.16010  0.39700  0.78220  Biso   1.000  C
  C38      1.0000 0.23550  0.27910  0.80300  Biso   1.000  C
  C39      1.0000 0.17760  0.65090  0.73230  Biso   1.000  C
  C40      1.0000 0.06470  0.60700  0.57870  Biso   1.000  C
  C41      1.0000 0.23830  0.36270  0.80110  Biso   1.000  C
  C42      1.0000 0.25830  0.87540  0.74850  Biso   1.000  C
  C43      1.0000 0.03350  0.62190  0.66400  Biso   1.000  C
  C44      1.0000 0.40590  0.40010  0.93000  Biso   1.000  C
  C45      1.0000 0.41540  0.61920  0.77540  Biso   1.000  C
  C46      1.0000 0.17990  0.73640  0.73230  Biso   1.000  C
  C47      1.0000 0.16120  0.13710  0.78440  Biso   1.000  C
  C48      1.0000 0.25390  0.61390  0.74640  Biso   1.000  C
  C49      1.0000 0.35850  0.45930  0.06930  Biso   1.000  C
  C50      1.0000 0.47550  0.37540  0.96140  Biso   1.000  C
  C51      1.0000 0.04610  0.66380  0.53870  Biso   1.000  C
  C52      1.0000 0.49220  0.39390  0.04290  Biso   1.000  C
  C53      1.0000 0.34360  0.44360  0.98580  Biso   1.000  C
  C54      1.0000 0.11610  0.53720  0.53540  Biso   1.000  C
  C55      1.0000 0.07510  0.64830  0.46010  Biso   1.000  C
  C56      1.0000 0.13900  0.52510  0.45610  Biso   1.000  C
  C57      1.0000 0.41550  0.84760  0.26190  Biso   1.000  C
  C58      1.0000 0.33990  0.72750  0.28360  Biso   1.000  C
  C59      1.0000 0.10320  0.88250  0.33950  Biso   1.000  C
  C60      1.0000 0.16850  0.16210  0.26400  Biso   1.000  C
  C61      1.0000 0.16790  0.24710  0.26600  Biso   1.000  C
  C62      1.0000 0.49760  0.88490  0.23990  Biso   1.000  C
  C63      1.0000 0.41600  0.76210  0.26260  Biso   1.000  C
  C64      1.0000 0.24240  0.28470  0.25040  Biso   1.000  C
  C65      1.0000 0.33990  0.89700  0.28220  Biso   1.000  C
  C66      1.0000 0.26450  0.77910  0.30300  Biso   1.000  C
  C67      1.0000 0.32240  0.15090  0.23230  Biso   1.000  C
  C68      1.0000 0.43530  0.10700  0.07870  Biso   1.000  C
  C69      1.0000 0.26170  0.86270  0.30110  Biso   1.000  C
  C70      1.0000 0.24170  0.37540  0.24850  Biso   1.000  C
  C71      1.0000 0.46650  0.12190  0.16400  Biso   1.000  C
  C72      1.0000 0.09410  0.90010  0.43000  Biso   1.000  C
  C73      1.0000 0.08460  0.11920  0.27540  Biso   1.000  C
  C74      1.0000 0.32010  0.23640  0.23230  Biso   1.000  C
  C75      1.0000 0.33880  0.63710  0.28440  Biso   1.000  C
  C76      1.0000 0.24610  0.11390  0.24640  Biso   1.000  C
  C77      1.0000 0.14150  0.95930  0.56930  Biso   1.000  C
  C78      1.0000 0.02450  0.87540  0.46140  Biso   1.000  C
  C79      1.0000 0.45390  0.16380  0.03870  Biso   1.000  C
  C80      1.0000 0.00780  0.89390  0.54290  Biso   1.000  C
  C81      1.0000 0.15640  0.94360  0.48580  Biso   1.000  C
  C82      1.0000 0.38390  0.03720  0.03540  Biso   1.000  C
  C83      1.0000 0.42490  0.14830  0.96010  Biso   1.000  C
  C84      1.0000 0.36100  0.02510  0.95610  Biso   1.000  C
  C85      1.0000 0.91550  0.65240  0.23810  Biso   1.000  C
  C86      1.0000 0.83990  0.77250  0.21640  Biso   1.000  C
  C87      1.0000 0.60320  0.61750  0.16050  Biso   1.000  C
  C88      1.0000 0.66850  0.33790  0.23600  Biso   1.000  C
  C89      1.0000 0.66790  0.25290  0.23400  Biso   1.000  C
  C90      1.0000 0.99760  0.61510  0.26010  Biso   1.000  C
  C91      1.0000 0.91600  0.73790  0.23740  Biso   1.000  C
  C92      1.0000 0.74240  0.21530  0.24960  Biso   1.000  C
  C93      1.0000 0.83990  0.60300  0.21780  Biso   1.000  C
  C94      1.0000 0.76450  0.72090  0.19700  Biso   1.000  C
  C95      1.0000 0.82240  0.34910  0.26770  Biso   1.000  C
  C96      1.0000 0.93530  0.39300  0.42130  Biso   1.000  C
  C97      1.0000 0.76170  0.63730  0.19890  Biso   1.000  C
  C98      1.0000 0.74170  0.12460  0.25150  Biso   1.000  C
  C99      1.0000 0.96650  0.37810  0.33600  Biso   1.000  C
  C100     1.0000 0.59410  0.59990  0.07000  Biso   1.000  C
  C101     1.0000 0.58460  0.38080  0.22460  Biso   1.000  C
  C102     1.0000 0.82010  0.26360  0.26770  Biso   1.000  C
  C103     1.0000 0.83880  0.86290  0.21560  Biso   1.000  C
  C104     1.0000 0.74610  0.38610  0.25360  Biso   1.000  C
  C105     1.0000 0.64150  0.54070  0.93070  Biso   1.000  C
  C106     1.0000 0.52450  0.62460  0.03860  Biso   1.000  C
  C107     1.0000 0.95390  0.33620  0.46130  Biso   1.000  C
  C108     1.0000 0.50780  0.60610  0.95710  Biso   1.000  C
  C109     1.0000 0.65640  0.55640  0.01420  Biso   1.000  C
  C110     1.0000 0.88390  0.46280  0.46460  Biso   1.000  C
  C111     1.0000 0.92490  0.35170  0.53990  Biso   1.000  C
  C112     1.0000 0.86100  0.47490  0.54390  Biso   1.000  C
  N1       1.0000 0.93090  0.06540  0.40170  Biso   1.000  N
  N2       1.0000 0.81320  0.08610  0.68020  Biso   1.000  N
  N3       1.0000 0.59920  0.89640  0.78550  Biso   1.000  N
  N4       1.0000 0.61810  0.92150  0.08470  Biso   1.000  N
  N5       1.0000 0.43090  0.43460  0.09830  Biso   1.000  N
  N6       1.0000 0.31320  0.41390  0.81980  Biso   1.000  N
  N7       1.0000 0.09920  0.60360  0.71450  Biso   1.000  N
  N8       1.0000 0.11810  0.57850  0.41530  Biso   1.000  N
  N9       1.0000 0.06910  0.93460  0.59830  Biso   1.000  N
  N10      1.0000 0.18680  0.91390  0.31980  Biso   1.000  N
  N11      1.0000 0.40080  0.10360  0.21450  Biso   1.000  N
  N12      1.0000 0.38190  0.07850  0.91530  Biso   1.000  N
  N13      1.0000 0.56910  0.56540  0.90170  Biso   1.000  N
  N14      1.0000 0.68680  0.58610  0.18020  Biso   1.000  N
  N15      1.0000 0.90080  0.39640  0.28550  Biso   1.000  N
  N16      1.0000 0.88190  0.42150  0.58470  Biso   1.000  N
  O1       1.0000 0.43480  0.16100  0.77850  Biso   1.000  O
  O2       1.0000 0.50240  0.03740  0.75870  Biso   1.000  O
  O3       1.0000 0.69090  0.59830  0.77810  Biso   1.000  O
  O4       1.0000 0.98490  0.83920  0.71350  Biso   1.000  O
  O5       1.0000 0.91420  0.96160  0.73300  Biso   1.000  O
  O6       1.0000 0.82740  0.58100  0.72810  Biso   1.000  O
  O7       1.0000 0.72810  0.38930  0.69010  Biso   1.000  O
  O8       1.0000 0.59200  0.40820  0.74020  Biso   1.000  O
  O9       1.0000 0.83570  0.48220  0.85090  Biso   1.000  O
  O10      1.0000 0.56330  0.52190  0.63250  Biso   1.000  O
  O11      1.0000 0.93480  0.33900  0.72150  Biso   1.000  O
  O12      1.0000 0.00240  0.46260  0.74130  Biso   1.000  O
  O13      1.0000 0.19090  0.90170  0.72190  Biso   1.000  O
  O14      1.0000 0.48490  0.66080  0.78650  Biso   1.000  O
  O15      1.0000 0.41420  0.53840  0.76700  Biso   1.000  O
  O16      1.0000 0.32740  0.91900  0.77190  Biso   1.000  O
  O17      1.0000 0.22810  0.11070  0.80990  Biso   1.000  O
  O18      1.0000 0.09200  0.09180  0.75980  Biso   1.000  O
  O19      1.0000 0.33570  0.01780  0.64910  Biso   1.000  O
  O20      1.0000 0.06330  0.97810  0.86750  Biso   1.000  O
  O21      1.0000 0.56520  0.83900  0.22150  Biso   1.000  O
  O22      1.0000 0.49760  0.96260  0.24130  Biso   1.000  O
  O23      1.0000 0.30910  0.40170  0.22190  Biso   1.000  O
  O24      1.0000 0.01510  0.16080  0.28650  Biso   1.000  O
  O25      1.0000 0.08580  0.03840  0.26700  Biso   1.000  O
  O26      1.0000 0.17260  0.41900  0.27190  Biso   1.000  O
  O27      1.0000 0.27190  0.61070  0.30990  Biso   1.000  O
  O28      1.0000 0.40800  0.59180  0.25980  Biso   1.000  O
  O29      1.0000 0.16430  0.51780  0.14910  Biso   1.000  O
  O30      1.0000 0.43670  0.47810  0.36750  Biso   1.000  O
  O31      1.0000 0.06520  0.66100  0.27850  Biso   1.000  O
  O32      1.0000 0.99760  0.53740  0.25870  Biso   1.000  O
  O33      1.0000 0.80910  0.09830  0.27810  Biso   1.000  O
  O34      1.0000 0.51510  0.33920  0.21350  Biso   1.000  O
  O35      1.0000 0.58580  0.46160  0.23300  Biso   1.000  O
  O36      1.0000 0.67260  0.08100  0.22810  Biso   1.000  O
  O37      1.0000 0.77190  0.88930  0.19010  Biso   1.000  O
  O38      1.0000 0.90800  0.90820  0.24020  Biso   1.000  O
  O39      1.0000 0.66430  0.98220  0.35090  Biso   1.000  O
  O40      1.0000 0.93670  0.02190  0.13250  Biso   1.000  O
