data_image0
_cell_length_a       15.307
_cell_length_b       15.307
_cell_length_c       15.695
_cell_angle_alpha    90
_cell_angle_beta     90
_cell_angle_gamma    120

_symmetry_space_group_name_H-M    P 1
_symmetry_int_tables_number       1

loop_
  _symmetry_equiv_pos_as_xyz
  'x, y, z'

loop_
  _atom_site_label
  _atom_site_occupancy
  _atom_site_fract_x
  _atom_site_fract_y
  _atom_site_fract_z
  _atom_site_thermal_displace_type
  _atom_site_B_iso_or_equiv
  _atom_site_type_symbol
  Gd1      1.0000 0.33333  0.66666  0.75000  Biso   1.000  Gd
  Gd2      1.0000 0.66667  0.33334  0.75000  Biso   1.000  Gd
  Gd3      1.0000 0.66667  0.33334  0.25000  Biso   1.000  Gd
  Gd4      1.0000 0.33333  0.66666  0.25000  Biso   1.000  Gd
  Mn1      1.0000 0.50000  0.50000  0.00000  Biso   1.000  Mn
  Mn2      1.0000 0.00000  0.50000  0.00000  Biso   1.000  Mn
  Mn3      1.0000 0.50000  0.00000  0.00000  Biso   1.000  Mn
  Mn4      1.0000 0.00000  0.50000  0.50000  Biso   1.000  Mn
  Mn5      1.0000 0.50000  0.50000  0.50000  Biso   1.000  Mn
  Mn6      1.0000 0.50000  0.00000  0.50000  Biso   1.000  Mn
  H1       1.0000 0.23450  0.28940  0.84280  Biso   1.000  H
  H2       1.0000 0.05490  0.76550  0.84280  Biso   1.000  H
  H3       1.0000 0.71060  0.94510  0.84280  Biso   1.000  H
  H4       1.0000 0.76550  0.71060  0.84280  Biso   1.000  H
  H5       1.0000 0.94510  0.23450  0.84280  Biso   1.000  H
  H6       1.0000 0.28940  0.05490  0.84280  Biso   1.000  H
  H7       1.0000 0.94510  0.71060  0.65720  Biso   1.000  H
  H8       1.0000 0.28940  0.23450  0.65720  Biso   1.000  H
  H9       1.0000 0.76550  0.05490  0.65720  Biso   1.000  H
  H10      1.0000 0.05490  0.28940  0.65720  Biso   1.000  H
  H11      1.0000 0.71060  0.76550  0.65720  Biso   1.000  H
  H12      1.0000 0.23450  0.94510  0.65720  Biso   1.000  H
  H13      1.0000 0.76550  0.71060  0.15720  Biso   1.000  H
  H14      1.0000 0.94510  0.23450  0.15720  Biso   1.000  H
  H15      1.0000 0.28940  0.05490  0.15720  Biso   1.000  H
  H16      1.0000 0.23450  0.28940  0.15720  Biso   1.000  H
  H17      1.0000 0.05490  0.76550  0.15720  Biso   1.000  H
  H18      1.0000 0.71060  0.94510  0.15720  Biso   1.000  H
  H19      1.0000 0.05490  0.28940  0.34280  Biso   1.000  H
  H20      1.0000 0.71060  0.76550  0.34280  Biso   1.000  H
  H21      1.0000 0.23450  0.94510  0.34280  Biso   1.000  H
  H22      1.0000 0.94510  0.71060  0.34280  Biso   1.000  H
  H23      1.0000 0.28940  0.23450  0.34280  Biso   1.000  H
  H24      1.0000 0.76550  0.05490  0.34280  Biso   1.000  H
  H25      1.0000 0.10050  0.20100  0.75000  Biso   1.000  H
  H26      1.0000 0.10050  0.89950  0.75000  Biso   1.000  H
  H27      1.0000 0.79900  0.89950  0.75000  Biso   1.000  H
  H28      1.0000 0.89950  0.79900  0.75000  Biso   1.000  H
  H29      1.0000 0.89950  0.10050  0.75000  Biso   1.000  H
  H30      1.0000 0.20100  0.10050  0.75000  Biso   1.000  H
  H31      1.0000 0.89950  0.79900  0.25000  Biso   1.000  H
  H32      1.0000 0.89950  0.10050  0.25000  Biso   1.000  H
  H33      1.0000 0.20100  0.10050  0.25000  Biso   1.000  H
  H34      1.0000 0.10050  0.20100  0.25000  Biso   1.000  H
  H35      1.0000 0.10050  0.89950  0.25000  Biso   1.000  H
  H36      1.0000 0.79900  0.89950  0.25000  Biso   1.000  H
  C1       1.0000 0.35250  0.49250  0.85960  Biso   1.000  C
  C2       1.0000 0.26520  0.42690  0.80340  Biso   1.000  C
  C3       1.0000 0.21510  0.32350  0.80510  Biso   1.000  C
  C4       1.0000 0.14000  0.64750  0.85960  Biso   1.000  C
  C5       1.0000 0.16170  0.73480  0.80340  Biso   1.000  C
  C6       1.0000 0.10840  0.78490  0.80510  Biso   1.000  C
  C7       1.0000 0.50750  0.86000  0.85960  Biso   1.000  C
  C8       1.0000 0.57310  0.83830  0.80340  Biso   1.000  C
  C9       1.0000 0.67650  0.89160  0.80510  Biso   1.000  C
  C10      1.0000 0.64750  0.50750  0.85960  Biso   1.000  C
  C11      1.0000 0.73480  0.57310  0.80340  Biso   1.000  C
  C12      1.0000 0.78490  0.67650  0.80510  Biso   1.000  C
  C13      1.0000 0.86000  0.35250  0.85960  Biso   1.000  C
  C14      1.0000 0.83830  0.26520  0.80340  Biso   1.000  C
  C15      1.0000 0.89160  0.21510  0.80510  Biso   1.000  C
  C16      1.0000 0.49250  0.14000  0.85960  Biso   1.000  C
  C17      1.0000 0.42690  0.16170  0.80340  Biso   1.000  C
  C18      1.0000 0.32350  0.10840  0.80510  Biso   1.000  C
  C19      1.0000 0.86000  0.50750  0.64040  Biso   1.000  C
  C20      1.0000 0.83830  0.57310  0.69660  Biso   1.000  C
  C21      1.0000 0.89160  0.67650  0.69490  Biso   1.000  C
  C22      1.0000 0.49250  0.35250  0.64040  Biso   1.000  C
  C23      1.0000 0.42690  0.26520  0.69660  Biso   1.000  C
  C24      1.0000 0.32350  0.21510  0.69490  Biso   1.000  C
  C25      1.0000 0.64750  0.14000  0.64040  Biso   1.000  C
  C26      1.0000 0.73480  0.16170  0.69660  Biso   1.000  C
  C27      1.0000 0.78490  0.10840  0.69490  Biso   1.000  C
  C28      1.0000 0.14000  0.49250  0.64040  Biso   1.000  C
  C29      1.0000 0.16170  0.42690  0.69660  Biso   1.000  C
  C30      1.0000 0.10840  0.32350  0.69490  Biso   1.000  C
  C31      1.0000 0.50750  0.64750  0.64040  Biso   1.000  C
  C32      1.0000 0.57310  0.73480  0.69660  Biso   1.000  C
  C33      1.0000 0.67650  0.78490  0.69490  Biso   1.000  C
  C34      1.0000 0.35250  0.86000  0.64040  Biso   1.000  C
  C35      1.0000 0.26520  0.83830  0.69660  Biso   1.000  C
  C36      1.0000 0.21510  0.89160  0.69490  Biso   1.000  C
  C37      1.0000 0.64750  0.50750  0.14040  Biso   1.000  C
  C38      1.0000 0.73480  0.57310  0.19660  Biso   1.000  C
  C39      1.0000 0.78490  0.67650  0.19490  Biso   1.000  C
  C40      1.0000 0.86000  0.35250  0.14040  Biso   1.000  C
  C41      1.0000 0.83830  0.26520  0.19660  Biso   1.000  C
  C42      1.0000 0.89160  0.21510  0.19490  Biso   1.000  C
  C43      1.0000 0.49250  0.14000  0.14040  Biso   1.000  C
  C44      1.0000 0.42690  0.16170  0.19660  Biso   1.000  C
  C45      1.0000 0.32350  0.10840  0.19490  Biso   1.000  C
  C46      1.0000 0.35250  0.49250  0.14040  Biso   1.000  C
  C47      1.0000 0.26520  0.42690  0.19660  Biso   1.000  C
  C48      1.0000 0.21510  0.32350  0.19490  Biso   1.000  C
  C49      1.0000 0.14000  0.64750  0.14040  Biso   1.000  C
  C50      1.0000 0.16170  0.73480  0.19660  Biso   1.000  C
  C51      1.0000 0.10840  0.78490  0.19490  Biso   1.000  C
  C52      1.0000 0.50750  0.86000  0.14040  Biso   1.000  C
  C53      1.0000 0.57310  0.83830  0.19660  Biso   1.000  C
  C54      1.0000 0.67650  0.89160  0.19490  Biso   1.000  C
  C55      1.0000 0.14000  0.49250  0.35960  Biso   1.000  C
  C56      1.0000 0.16170  0.42690  0.30340  Biso   1.000  C
  C57      1.0000 0.10840  0.32350  0.30510  Biso   1.000  C
  C58      1.0000 0.50750  0.64750  0.35960  Biso   1.000  C
  C59      1.0000 0.57310  0.73480  0.30340  Biso   1.000  C
  C60      1.0000 0.67650  0.78490  0.30510  Biso   1.000  C
  C61      1.0000 0.35250  0.86000  0.35960  Biso   1.000  C
  C62      1.0000 0.26520  0.83830  0.30340  Biso   1.000  C
  C63      1.0000 0.21510  0.89160  0.30510  Biso   1.000  C
  C64      1.0000 0.86000  0.50750  0.35960  Biso   1.000  C
  C65      1.0000 0.83830  0.57310  0.30340  Biso   1.000  C
  C66      1.0000 0.89160  0.67650  0.30510  Biso   1.000  C
  C67      1.0000 0.49250  0.35250  0.35960  Biso   1.000  C
  C68      1.0000 0.42690  0.26520  0.30340  Biso   1.000  C
  C69      1.0000 0.32350  0.21510  0.30510  Biso   1.000  C
  C70      1.0000 0.64750  0.14000  0.35960  Biso   1.000  C
  C71      1.0000 0.73480  0.16170  0.30340  Biso   1.000  C
  C72      1.0000 0.78490  0.10840  0.30510  Biso   1.000  C
  C73      1.0000 0.13555  0.27110  0.75000  Biso   1.000  C
  C74      1.0000 0.13555  0.86445  0.75000  Biso   1.000  C
  C75      1.0000 0.72890  0.86445  0.75000  Biso   1.000  C
  C76      1.0000 0.86445  0.72890  0.75000  Biso   1.000  C
  C77      1.0000 0.86445  0.13555  0.75000  Biso   1.000  C
  C78      1.0000 0.27110  0.13555  0.75000  Biso   1.000  C
  C79      1.0000 0.86445  0.72890  0.25000  Biso   1.000  C
  C80      1.0000 0.86445  0.13555  0.25000  Biso   1.000  C
  C81      1.0000 0.27110  0.13555  0.25000  Biso   1.000  C
  C82      1.0000 0.13555  0.27110  0.25000  Biso   1.000  C
  C83      1.0000 0.13555  0.86445  0.25000  Biso   1.000  C
  C84      1.0000 0.72890  0.86445  0.25000  Biso   1.000  C
  N1       1.0000 0.23937  0.47874  0.75000  Biso   1.000  N
  N2       1.0000 0.23937  0.76063  0.75000  Biso   1.000  N
  N3       1.0000 0.52126  0.76063  0.75000  Biso   1.000  N
  N4       1.0000 0.76063  0.52126  0.75000  Biso   1.000  N
  N5       1.0000 0.76063  0.23937  0.75000  Biso   1.000  N
  N6       1.0000 0.47874  0.23937  0.75000  Biso   1.000  N
  N7       1.0000 0.76063  0.52126  0.25000  Biso   1.000  N
  N8       1.0000 0.76063  0.23937  0.25000  Biso   1.000  N
  N9       1.0000 0.47874  0.23937  0.25000  Biso   1.000  N
  N10      1.0000 0.23937  0.47874  0.25000  Biso   1.000  N
  N11      1.0000 0.23937  0.76063  0.25000  Biso   1.000  N
  N12      1.0000 0.52126  0.76063  0.25000  Biso   1.000  N
  O1       1.0000 0.38675  0.58593  0.85581  Biso   1.000  O
  O2       1.0000 0.38410  0.44866  0.90657  Biso   1.000  O
  O3       1.0000 0.19918  0.61325  0.85581  Biso   1.000  O
  O4       1.0000 0.06456  0.61590  0.90657  Biso   1.000  O
  O5       1.0000 0.41407  0.80082  0.85581  Biso   1.000  O
  O6       1.0000 0.55134  0.93544  0.90657  Biso   1.000  O
  O7       1.0000 0.61325  0.41407  0.85581  Biso   1.000  O
  O8       1.0000 0.61590  0.55134  0.90657  Biso   1.000  O
  O9       1.0000 0.80082  0.38675  0.85581  Biso   1.000  O
  O10      1.0000 0.93544  0.38410  0.90657  Biso   1.000  O
  O11      1.0000 0.58593  0.19918  0.85581  Biso   1.000  O
  O12      1.0000 0.44866  0.06456  0.90657  Biso   1.000  O
  O13      1.0000 0.80082  0.41407  0.64419  Biso   1.000  O
  O14      1.0000 0.93544  0.55134  0.59343  Biso   1.000  O
  O15      1.0000 0.58593  0.38675  0.64419  Biso   1.000  O
  O16      1.0000 0.44866  0.38410  0.59343  Biso   1.000  O
  O17      1.0000 0.61325  0.19918  0.64419  Biso   1.000  O
  O18      1.0000 0.61590  0.06456  0.59343  Biso   1.000  O
  O19      1.0000 0.19918  0.58593  0.64419  Biso   1.000  O
  O20      1.0000 0.06456  0.44866  0.59343  Biso   1.000  O
  O21      1.0000 0.41407  0.61325  0.64419  Biso   1.000  O
  O22      1.0000 0.55134  0.61590  0.59343  Biso   1.000  O
  O23      1.0000 0.38675  0.80082  0.64419  Biso   1.000  O
  O24      1.0000 0.38410  0.93544  0.59343  Biso   1.000  O
  O25      1.0000 0.61325  0.41407  0.14419  Biso   1.000  O
  O26      1.0000 0.61590  0.55134  0.09343  Biso   1.000  O
  O27      1.0000 0.80082  0.38675  0.14419  Biso   1.000  O
  O28      1.0000 0.93544  0.38410  0.09343  Biso   1.000  O
  O29      1.0000 0.58593  0.19918  0.14419  Biso   1.000  O
  O30      1.0000 0.44866  0.06456  0.09343  Biso   1.000  O
  O31      1.0000 0.38675  0.58593  0.14419  Biso   1.000  O
  O32      1.0000 0.38410  0.44866  0.09343  Biso   1.000  O
  O33      1.0000 0.19918  0.61325  0.14419  Biso   1.000  O
  O34      1.0000 0.06456  0.61590  0.09343  Biso   1.000  O
  O35      1.0000 0.41407  0.80082  0.14419  Biso   1.000  O
  O36      1.0000 0.55134  0.93544  0.09343  Biso   1.000  O
  O37      1.0000 0.19918  0.58593  0.35581  Biso   1.000  O
  O38      1.0000 0.06456  0.44866  0.40657  Biso   1.000  O
  O39      1.0000 0.41407  0.61325  0.35581  Biso   1.000  O
  O40      1.0000 0.55134  0.61590  0.40657  Biso   1.000  O
  O41      1.0000 0.38675  0.80082  0.35581  Biso   1.000  O
  O42      1.0000 0.38410  0.93544  0.40657  Biso   1.000  O
  O43      1.0000 0.80082  0.41407  0.35581  Biso   1.000  O
  O44      1.0000 0.93544  0.55134  0.40657  Biso   1.000  O
  O45      1.0000 0.58593  0.38675  0.35581  Biso   1.000  O
  O46      1.0000 0.44866  0.38410  0.40657  Biso   1.000  O
  O47      1.0000 0.61325  0.19918  0.35581  Biso   1.000  O
  O48      1.0000 0.61590  0.06456  0.40657  Biso   1.000  O
  O49      1.0000 0.50910  0.65150  0.00000  Biso   1.000  O
  O50      1.0000 0.14240  0.49090  0.00000  Biso   1.000  O
  O51      1.0000 0.34850  0.85760  0.00000  Biso   1.000  O
  O52      1.0000 0.49090  0.34850  0.00000  Biso   1.000  O
  O53      1.0000 0.85760  0.50910  0.00000  Biso   1.000  O
  O54      1.0000 0.65150  0.14240  0.00000  Biso   1.000  O
  O55      1.0000 0.85760  0.34850  0.50000  Biso   1.000  O
  O56      1.0000 0.65150  0.50910  0.50000  Biso   1.000  O
  O57      1.0000 0.49090  0.14240  0.50000  Biso   1.000  O
  O58      1.0000 0.14240  0.65150  0.50000  Biso   1.000  O
  O59      1.0000 0.34850  0.49090  0.50000  Biso   1.000  O
  O60      1.0000 0.50910  0.85760  0.50000  Biso   1.000  O
