data_image0
_cell_length_a       15.512
_cell_length_b       15.512
_cell_length_c       15.645
_cell_angle_alpha    90
_cell_angle_beta     90
_cell_angle_gamma    120

_symmetry_space_group_name_H-M    P 1
_symmetry_int_tables_number       1

loop_
  _symmetry_equiv_pos_as_xyz
  'x, y, z'

loop_
  _atom_site_label
  _atom_site_occupancy
  _atom_site_fract_x
  _atom_site_fract_y
  _atom_site_fract_z
  _atom_site_thermal_displace_type
  _atom_site_B_iso_or_equiv
  _atom_site_type_symbol
  Pr1      1.0000 0.33333  0.66666  0.75000  Biso   1.000  Pr
  Pr2      1.0000 0.66667  0.33334  0.75000  Biso   1.000  Pr
  Pr3      1.0000 0.66667  0.33334  0.25000  Biso   1.000  Pr
  Pr4      1.0000 0.33333  0.66666  0.25000  Biso   1.000  Pr
  Mn1      1.0000 0.50000  0.50000  0.00000  Biso   1.000  Mn
  Mn2      1.0000 0.00000  0.50000  0.00000  Biso   1.000  Mn
  Mn3      1.0000 0.50000  0.00000  0.00000  Biso   1.000  Mn
  Mn4      1.0000 0.00000  0.50000  0.50000  Biso   1.000  Mn
  Mn5      1.0000 0.50000  0.50000  0.50000  Biso   1.000  Mn
  Mn6      1.0000 0.50000  0.00000  0.50000  Biso   1.000  Mn
  H1       1.0000 0.23280  0.28630  0.84140  Biso   1.000  H
  H2       1.0000 0.05350  0.76720  0.84140  Biso   1.000  H
  H3       1.0000 0.71370  0.94650  0.84140  Biso   1.000  H
  H4       1.0000 0.76720  0.71370  0.84140  Biso   1.000  H
  H5       1.0000 0.94650  0.23280  0.84140  Biso   1.000  H
  H6       1.0000 0.28630  0.05350  0.84140  Biso   1.000  H
  H7       1.0000 0.94650  0.71370  0.65860  Biso   1.000  H
  H8       1.0000 0.28630  0.23280  0.65860  Biso   1.000  H
  H9       1.0000 0.76720  0.05350  0.65860  Biso   1.000  H
  H10      1.0000 0.05350  0.28630  0.65860  Biso   1.000  H
  H11      1.0000 0.71370  0.76720  0.65860  Biso   1.000  H
  H12      1.0000 0.23280  0.94650  0.65860  Biso   1.000  H
  H13      1.0000 0.76720  0.71370  0.15860  Biso   1.000  H
  H14      1.0000 0.94650  0.23280  0.15860  Biso   1.000  H
  H15      1.0000 0.28630  0.05350  0.15860  Biso   1.000  H
  H16      1.0000 0.23280  0.28630  0.15860  Biso   1.000  H
  H17      1.0000 0.05350  0.76720  0.15860  Biso   1.000  H
  H18      1.0000 0.71370  0.94650  0.15860  Biso   1.000  H
  H19      1.0000 0.05350  0.28630  0.34140  Biso   1.000  H
  H20      1.0000 0.71370  0.76720  0.34140  Biso   1.000  H
  H21      1.0000 0.23280  0.94650  0.34140  Biso   1.000  H
  H22      1.0000 0.94650  0.71370  0.34140  Biso   1.000  H
  H23      1.0000 0.28630  0.23280  0.34140  Biso   1.000  H
  H24      1.0000 0.76720  0.05350  0.34140  Biso   1.000  H
  H25      1.0000 0.10035  0.20070  0.75000  Biso   1.000  H
  H26      1.0000 0.10035  0.89965  0.75000  Biso   1.000  H
  H27      1.0000 0.79930  0.89965  0.75000  Biso   1.000  H
  H28      1.0000 0.89965  0.79930  0.75000  Biso   1.000  H
  H29      1.0000 0.89965  0.10035  0.75000  Biso   1.000  H
  H30      1.0000 0.20070  0.10035  0.75000  Biso   1.000  H
  H31      1.0000 0.89965  0.79930  0.25000  Biso   1.000  H
  H32      1.0000 0.89965  0.10035  0.25000  Biso   1.000  H
  H33      1.0000 0.20070  0.10035  0.25000  Biso   1.000  H
  H34      1.0000 0.10035  0.20070  0.25000  Biso   1.000  H
  H35      1.0000 0.10035  0.89965  0.25000  Biso   1.000  H
  H36      1.0000 0.79930  0.89965  0.25000  Biso   1.000  H
  C1       1.0000 0.26330  0.42360  0.80340  Biso   1.000  C
  C2       1.0000 0.35120  0.48750  0.86060  Biso   1.000  C
  C3       1.0000 0.21330  0.32040  0.80440  Biso   1.000  C
  C4       1.0000 0.16030  0.73670  0.80340  Biso   1.000  C
  C5       1.0000 0.13630  0.64880  0.86060  Biso   1.000  C
  C6       1.0000 0.10710  0.78670  0.80440  Biso   1.000  C
  C7       1.0000 0.57640  0.83970  0.80340  Biso   1.000  C
  C8       1.0000 0.51250  0.86370  0.86060  Biso   1.000  C
  C9       1.0000 0.67960  0.89290  0.80440  Biso   1.000  C
  C10      1.0000 0.73670  0.57640  0.80340  Biso   1.000  C
  C11      1.0000 0.64880  0.51250  0.86060  Biso   1.000  C
  C12      1.0000 0.78670  0.67960  0.80440  Biso   1.000  C
  C13      1.0000 0.83970  0.26330  0.80340  Biso   1.000  C
  C14      1.0000 0.86370  0.35120  0.86060  Biso   1.000  C
  C15      1.0000 0.89290  0.21330  0.80440  Biso   1.000  C
  C16      1.0000 0.42360  0.16030  0.80340  Biso   1.000  C
  C17      1.0000 0.48750  0.13630  0.86060  Biso   1.000  C
  C18      1.0000 0.32040  0.10710  0.80440  Biso   1.000  C
  C19      1.0000 0.83970  0.57640  0.69660  Biso   1.000  C
  C20      1.0000 0.86370  0.51250  0.63940  Biso   1.000  C
  C21      1.0000 0.89290  0.67960  0.69560  Biso   1.000  C
  C22      1.0000 0.42360  0.26330  0.69660  Biso   1.000  C
  C23      1.0000 0.48750  0.35120  0.63940  Biso   1.000  C
  C24      1.0000 0.32040  0.21330  0.69560  Biso   1.000  C
  C25      1.0000 0.73670  0.16030  0.69660  Biso   1.000  C
  C26      1.0000 0.64880  0.13630  0.63940  Biso   1.000  C
  C27      1.0000 0.78670  0.10710  0.69560  Biso   1.000  C
  C28      1.0000 0.16030  0.42360  0.69660  Biso   1.000  C
  C29      1.0000 0.13630  0.48750  0.63940  Biso   1.000  C
  C30      1.0000 0.10710  0.32040  0.69560  Biso   1.000  C
  C31      1.0000 0.57640  0.73670  0.69660  Biso   1.000  C
  C32      1.0000 0.51250  0.64880  0.63940  Biso   1.000  C
  C33      1.0000 0.67960  0.78670  0.69560  Biso   1.000  C
  C34      1.0000 0.26330  0.83970  0.69660  Biso   1.000  C
  C35      1.0000 0.35120  0.86370  0.63940  Biso   1.000  C
  C36      1.0000 0.21330  0.89290  0.69560  Biso   1.000  C
  C37      1.0000 0.73670  0.57640  0.19660  Biso   1.000  C
  C38      1.0000 0.64880  0.51250  0.13940  Biso   1.000  C
  C39      1.0000 0.78670  0.67960  0.19560  Biso   1.000  C
  C40      1.0000 0.83970  0.26330  0.19660  Biso   1.000  C
  C41      1.0000 0.86370  0.35120  0.13940  Biso   1.000  C
  C42      1.0000 0.89290  0.21330  0.19560  Biso   1.000  C
  C43      1.0000 0.42360  0.16030  0.19660  Biso   1.000  C
  C44      1.0000 0.48750  0.13630  0.13940  Biso   1.000  C
  C45      1.0000 0.32040  0.10710  0.19560  Biso   1.000  C
  C46      1.0000 0.26330  0.42360  0.19660  Biso   1.000  C
  C47      1.0000 0.35120  0.48750  0.13940  Biso   1.000  C
  C48      1.0000 0.21330  0.32040  0.19560  Biso   1.000  C
  C49      1.0000 0.16030  0.73670  0.19660  Biso   1.000  C
  C50      1.0000 0.13630  0.64880  0.13940  Biso   1.000  C
  C51      1.0000 0.10710  0.78670  0.19560  Biso   1.000  C
  C52      1.0000 0.57640  0.83970  0.19660  Biso   1.000  C
  C53      1.0000 0.51250  0.86370  0.13940  Biso   1.000  C
  C54      1.0000 0.67960  0.89290  0.19560  Biso   1.000  C
  C55      1.0000 0.16030  0.42360  0.30340  Biso   1.000  C
  C56      1.0000 0.13630  0.48750  0.36060  Biso   1.000  C
  C57      1.0000 0.10710  0.32040  0.30440  Biso   1.000  C
  C58      1.0000 0.57640  0.73670  0.30340  Biso   1.000  C
  C59      1.0000 0.51250  0.64880  0.36060  Biso   1.000  C
  C60      1.0000 0.67960  0.78670  0.30440  Biso   1.000  C
  C61      1.0000 0.26330  0.83970  0.30340  Biso   1.000  C
  C62      1.0000 0.35120  0.86370  0.36060  Biso   1.000  C
  C63      1.0000 0.21330  0.89290  0.30440  Biso   1.000  C
  C64      1.0000 0.83970  0.57640  0.30340  Biso   1.000  C
  C65      1.0000 0.86370  0.51250  0.36060  Biso   1.000  C
  C66      1.0000 0.89290  0.67960  0.30440  Biso   1.000  C
  C67      1.0000 0.42360  0.26330  0.30340  Biso   1.000  C
  C68      1.0000 0.48750  0.35120  0.36060  Biso   1.000  C
  C69      1.0000 0.32040  0.21330  0.30440  Biso   1.000  C
  C70      1.0000 0.73670  0.16030  0.30340  Biso   1.000  C
  C71      1.0000 0.64880  0.13630  0.36060  Biso   1.000  C
  C72      1.0000 0.78670  0.10710  0.30440  Biso   1.000  C
  C73      1.0000 0.13495  0.26990  0.75000  Biso   1.000  C
  C74      1.0000 0.13495  0.86505  0.75000  Biso   1.000  C
  C75      1.0000 0.73010  0.86505  0.75000  Biso   1.000  C
  C76      1.0000 0.86505  0.73010  0.75000  Biso   1.000  C
  C77      1.0000 0.86505  0.13495  0.75000  Biso   1.000  C
  C78      1.0000 0.26990  0.13495  0.75000  Biso   1.000  C
  C79      1.0000 0.86505  0.73010  0.25000  Biso   1.000  C
  C80      1.0000 0.86505  0.13495  0.25000  Biso   1.000  C
  C81      1.0000 0.26990  0.13495  0.25000  Biso   1.000  C
  C82      1.0000 0.13495  0.26990  0.25000  Biso   1.000  C
  C83      1.0000 0.13495  0.86505  0.25000  Biso   1.000  C
  C84      1.0000 0.73010  0.86505  0.25000  Biso   1.000  C
  N1       1.0000 0.23720  0.47440  0.75000  Biso   1.000  N
  N2       1.0000 0.23720  0.76280  0.75000  Biso   1.000  N
  N3       1.0000 0.52560  0.76280  0.75000  Biso   1.000  N
  N4       1.0000 0.76280  0.52560  0.75000  Biso   1.000  N
  N5       1.0000 0.76280  0.23720  0.75000  Biso   1.000  N
  N6       1.0000 0.47440  0.23720  0.75000  Biso   1.000  N
  N7       1.0000 0.76280  0.52560  0.25000  Biso   1.000  N
  N8       1.0000 0.76280  0.23720  0.25000  Biso   1.000  N
  N9       1.0000 0.47440  0.23720  0.25000  Biso   1.000  N
  N10      1.0000 0.23720  0.47440  0.25000  Biso   1.000  N
  N11      1.0000 0.23720  0.76280  0.25000  Biso   1.000  N
  N12      1.0000 0.52560  0.76280  0.25000  Biso   1.000  N
  O1       1.0000 0.38320  0.44410  0.90490  Biso   1.000  O
  O2       1.0000 0.38390  0.58070  0.85730  Biso   1.000  O
  O3       1.0000 0.06090  0.61680  0.90490  Biso   1.000  O
  O4       1.0000 0.19680  0.61610  0.85730  Biso   1.000  O
  O5       1.0000 0.55590  0.93910  0.90490  Biso   1.000  O
  O6       1.0000 0.41930  0.80320  0.85730  Biso   1.000  O
  O7       1.0000 0.61680  0.55590  0.90490  Biso   1.000  O
  O8       1.0000 0.61610  0.41930  0.85730  Biso   1.000  O
  O9       1.0000 0.93910  0.38320  0.90490  Biso   1.000  O
  O10      1.0000 0.80320  0.38390  0.85730  Biso   1.000  O
  O11      1.0000 0.44410  0.06090  0.90490  Biso   1.000  O
  O12      1.0000 0.58070  0.19680  0.85730  Biso   1.000  O
  O13      1.0000 0.93910  0.55590  0.59510  Biso   1.000  O
  O14      1.0000 0.80320  0.41930  0.64270  Biso   1.000  O
  O15      1.0000 0.44410  0.38320  0.59510  Biso   1.000  O
  O16      1.0000 0.58070  0.38390  0.64270  Biso   1.000  O
  O17      1.0000 0.61680  0.06090  0.59510  Biso   1.000  O
  O18      1.0000 0.61610  0.19680  0.64270  Biso   1.000  O
  O19      1.0000 0.06090  0.44410  0.59510  Biso   1.000  O
  O20      1.0000 0.19680  0.58070  0.64270  Biso   1.000  O
  O21      1.0000 0.55590  0.61680  0.59510  Biso   1.000  O
  O22      1.0000 0.41930  0.61610  0.64270  Biso   1.000  O
  O23      1.0000 0.38320  0.93910  0.59510  Biso   1.000  O
  O24      1.0000 0.38390  0.80320  0.64270  Biso   1.000  O
  O25      1.0000 0.61680  0.55590  0.09510  Biso   1.000  O
  O26      1.0000 0.61610  0.41930  0.14270  Biso   1.000  O
  O27      1.0000 0.93910  0.38320  0.09510  Biso   1.000  O
  O28      1.0000 0.80320  0.38390  0.14270  Biso   1.000  O
  O29      1.0000 0.44410  0.06090  0.09510  Biso   1.000  O
  O30      1.0000 0.58070  0.19680  0.14270  Biso   1.000  O
  O31      1.0000 0.38320  0.44410  0.09510  Biso   1.000  O
  O32      1.0000 0.38390  0.58070  0.14270  Biso   1.000  O
  O33      1.0000 0.06090  0.61680  0.09510  Biso   1.000  O
  O34      1.0000 0.19680  0.61610  0.14270  Biso   1.000  O
  O35      1.0000 0.55590  0.93910  0.09510  Biso   1.000  O
  O36      1.0000 0.41930  0.80320  0.14270  Biso   1.000  O
  O37      1.0000 0.06090  0.44410  0.40490  Biso   1.000  O
  O38      1.0000 0.19680  0.58070  0.35730  Biso   1.000  O
  O39      1.0000 0.55590  0.61680  0.40490  Biso   1.000  O
  O40      1.0000 0.41930  0.61610  0.35730  Biso   1.000  O
  O41      1.0000 0.38320  0.93910  0.40490  Biso   1.000  O
  O42      1.0000 0.38390  0.80320  0.35730  Biso   1.000  O
  O43      1.0000 0.93910  0.55590  0.40490  Biso   1.000  O
  O44      1.0000 0.80320  0.41930  0.35730  Biso   1.000  O
  O45      1.0000 0.44410  0.38320  0.40490  Biso   1.000  O
  O46      1.0000 0.58070  0.38390  0.35730  Biso   1.000  O
  O47      1.0000 0.61680  0.06090  0.40490  Biso   1.000  O
  O48      1.0000 0.61610  0.19680  0.35730  Biso   1.000  O
  O49      1.0000 0.50760  0.64950  0.00000  Biso   1.000  O
  O50      1.0000 0.14190  0.49240  0.00000  Biso   1.000  O
  O51      1.0000 0.35050  0.85810  0.00000  Biso   1.000  O
  O52      1.0000 0.49240  0.35050  0.00000  Biso   1.000  O
  O53      1.0000 0.85810  0.50760  0.00000  Biso   1.000  O
  O54      1.0000 0.64950  0.14190  0.00000  Biso   1.000  O
  O55      1.0000 0.85810  0.35050  0.50000  Biso   1.000  O
  O56      1.0000 0.64950  0.50760  0.50000  Biso   1.000  O
  O57      1.0000 0.49240  0.14190  0.50000  Biso   1.000  O
  O58      1.0000 0.14190  0.64950  0.50000  Biso   1.000  O
  O59      1.0000 0.35050  0.49240  0.50000  Biso   1.000  O
  O60      1.0000 0.50760  0.85810  0.50000  Biso   1.000  O
