data_image0
_cell_length_a       15.229
_cell_length_b       15.229
_cell_length_c       15.852
_cell_angle_alpha    90
_cell_angle_beta     90
_cell_angle_gamma    120

_symmetry_space_group_name_H-M    P 1
_symmetry_int_tables_number       1

loop_
  _symmetry_equiv_pos_as_xyz
  'x, y, z'

loop_
  _atom_site_label
  _atom_site_occupancy
  _atom_site_fract_x
  _atom_site_fract_y
  _atom_site_fract_z
  _atom_site_thermal_displace_type
  _atom_site_B_iso_or_equiv
  _atom_site_type_symbol
  Er1      1.0000 0.33333  0.66666  0.75000  Biso   1.000  Er
  Er2      1.0000 0.66667  0.33334  0.75000  Biso   1.000  Er
  Er3      1.0000 0.66667  0.33334  0.25000  Biso   1.000  Er
  Er4      1.0000 0.33333  0.66666  0.25000  Biso   1.000  Er
  Mn1      1.0000 0.50000  0.00000  0.00000  Biso   1.000  Mn
  Mn2      1.0000 0.50000  0.50000  0.00000  Biso   1.000  Mn
  Mn3      1.0000 0.00000  0.50000  0.00000  Biso   1.000  Mn
  Mn4      1.0000 0.50000  0.00000  0.50000  Biso   1.000  Mn
  Mn5      1.0000 0.00000  0.50000  0.50000  Biso   1.000  Mn
  Mn6      1.0000 0.50000  0.50000  0.50000  Biso   1.000  Mn
  H1       1.0000 0.70860  0.94170  0.84330  Biso   1.000  H
  H2       1.0000 0.23310  0.29140  0.84330  Biso   1.000  H
  H3       1.0000 0.05830  0.76690  0.84330  Biso   1.000  H
  H4       1.0000 0.29140  0.05830  0.84330  Biso   1.000  H
  H5       1.0000 0.76690  0.70860  0.84330  Biso   1.000  H
  H6       1.0000 0.94170  0.23310  0.84330  Biso   1.000  H
  H7       1.0000 0.76690  0.05830  0.65670  Biso   1.000  H
  H8       1.0000 0.94170  0.70860  0.65670  Biso   1.000  H
  H9       1.0000 0.29140  0.23310  0.65670  Biso   1.000  H
  H10      1.0000 0.23310  0.94170  0.65670  Biso   1.000  H
  H11      1.0000 0.05830  0.29140  0.65670  Biso   1.000  H
  H12      1.0000 0.70860  0.76690  0.65670  Biso   1.000  H
  H13      1.0000 0.29140  0.05830  0.15670  Biso   1.000  H
  H14      1.0000 0.76690  0.70860  0.15670  Biso   1.000  H
  H15      1.0000 0.94170  0.23310  0.15670  Biso   1.000  H
  H16      1.0000 0.70860  0.94170  0.15670  Biso   1.000  H
  H17      1.0000 0.23310  0.29140  0.15670  Biso   1.000  H
  H18      1.0000 0.05830  0.76690  0.15670  Biso   1.000  H
  H19      1.0000 0.23310  0.94170  0.34330  Biso   1.000  H
  H20      1.0000 0.05830  0.29140  0.34330  Biso   1.000  H
  H21      1.0000 0.70860  0.76690  0.34330  Biso   1.000  H
  H22      1.0000 0.76690  0.05830  0.34330  Biso   1.000  H
  H23      1.0000 0.94170  0.70860  0.34330  Biso   1.000  H
  H24      1.0000 0.29140  0.23310  0.34330  Biso   1.000  H
  H25      1.0000 0.79780  0.89890  0.75000  Biso   1.000  H
  H26      1.0000 0.10110  0.20220  0.75000  Biso   1.000  H
  H27      1.0000 0.10110  0.89890  0.75000  Biso   1.000  H
  H28      1.0000 0.20220  0.10110  0.75000  Biso   1.000  H
  H29      1.0000 0.89890  0.79780  0.75000  Biso   1.000  H
  H30      1.0000 0.89890  0.10110  0.75000  Biso   1.000  H
  H31      1.0000 0.20220  0.10110  0.25000  Biso   1.000  H
  H32      1.0000 0.89890  0.79780  0.25000  Biso   1.000  H
  H33      1.0000 0.89890  0.10110  0.25000  Biso   1.000  H
  H34      1.0000 0.79780  0.89890  0.25000  Biso   1.000  H
  H35      1.0000 0.10110  0.20220  0.25000  Biso   1.000  H
  H36      1.0000 0.10110  0.89890  0.25000  Biso   1.000  H
  C1       1.0000 0.50490  0.85810  0.85910  Biso   1.000  C
  C2       1.0000 0.57120  0.83750  0.80290  Biso   1.000  C
  C3       1.0000 0.67430  0.88920  0.80490  Biso   1.000  C
  C4       1.0000 0.35320  0.49510  0.85910  Biso   1.000  C
  C5       1.0000 0.26630  0.42880  0.80290  Biso   1.000  C
  C6       1.0000 0.21490  0.32570  0.80490  Biso   1.000  C
  C7       1.0000 0.14190  0.64680  0.85910  Biso   1.000  C
  C8       1.0000 0.16250  0.73370  0.80290  Biso   1.000  C
  C9       1.0000 0.11080  0.78510  0.80490  Biso   1.000  C
  C10      1.0000 0.49510  0.14190  0.85910  Biso   1.000  C
  C11      1.0000 0.42880  0.16250  0.80290  Biso   1.000  C
  C12      1.0000 0.32570  0.11080  0.80490  Biso   1.000  C
  C13      1.0000 0.64680  0.50490  0.85910  Biso   1.000  C
  C14      1.0000 0.73370  0.57120  0.80290  Biso   1.000  C
  C15      1.0000 0.78510  0.67430  0.80490  Biso   1.000  C
  C16      1.0000 0.85810  0.35320  0.85910  Biso   1.000  C
  C17      1.0000 0.83750  0.26630  0.80290  Biso   1.000  C
  C18      1.0000 0.88920  0.21490  0.80490  Biso   1.000  C
  C19      1.0000 0.64680  0.14190  0.64090  Biso   1.000  C
  C20      1.0000 0.73370  0.16250  0.69710  Biso   1.000  C
  C21      1.0000 0.78510  0.11080  0.69510  Biso   1.000  C
  C22      1.0000 0.85810  0.50490  0.64090  Biso   1.000  C
  C23      1.0000 0.83750  0.57120  0.69710  Biso   1.000  C
  C24      1.0000 0.88920  0.67430  0.69510  Biso   1.000  C
  C25      1.0000 0.49510  0.35320  0.64090  Biso   1.000  C
  C26      1.0000 0.42880  0.26630  0.69710  Biso   1.000  C
  C27      1.0000 0.32570  0.21490  0.69510  Biso   1.000  C
  C28      1.0000 0.35320  0.85810  0.64090  Biso   1.000  C
  C29      1.0000 0.26630  0.83750  0.69710  Biso   1.000  C
  C30      1.0000 0.21490  0.88920  0.69510  Biso   1.000  C
  C31      1.0000 0.14190  0.49510  0.64090  Biso   1.000  C
  C32      1.0000 0.16250  0.42880  0.69710  Biso   1.000  C
  C33      1.0000 0.11080  0.32570  0.69510  Biso   1.000  C
  C34      1.0000 0.50490  0.64680  0.64090  Biso   1.000  C
  C35      1.0000 0.57120  0.73370  0.69710  Biso   1.000  C
  C36      1.0000 0.67430  0.78510  0.69510  Biso   1.000  C
  C37      1.0000 0.49510  0.14190  0.14090  Biso   1.000  C
  C38      1.0000 0.42880  0.16250  0.19710  Biso   1.000  C
  C39      1.0000 0.32570  0.11080  0.19510  Biso   1.000  C
  C40      1.0000 0.64680  0.50490  0.14090  Biso   1.000  C
  C41      1.0000 0.73370  0.57120  0.19710  Biso   1.000  C
  C42      1.0000 0.78510  0.67430  0.19510  Biso   1.000  C
  C43      1.0000 0.85810  0.35320  0.14090  Biso   1.000  C
  C44      1.0000 0.83750  0.26630  0.19710  Biso   1.000  C
  C45      1.0000 0.88920  0.21490  0.19510  Biso   1.000  C
  C46      1.0000 0.50490  0.85810  0.14090  Biso   1.000  C
  C47      1.0000 0.57120  0.83750  0.19710  Biso   1.000  C
  C48      1.0000 0.67430  0.88920  0.19510  Biso   1.000  C
  C49      1.0000 0.35320  0.49510  0.14090  Biso   1.000  C
  C50      1.0000 0.26630  0.42880  0.19710  Biso   1.000  C
  C51      1.0000 0.21490  0.32570  0.19510  Biso   1.000  C
  C52      1.0000 0.14190  0.64680  0.14090  Biso   1.000  C
  C53      1.0000 0.16250  0.73370  0.19710  Biso   1.000  C
  C54      1.0000 0.11080  0.78510  0.19510  Biso   1.000  C
  C55      1.0000 0.35320  0.85810  0.35910  Biso   1.000  C
  C56      1.0000 0.26630  0.83750  0.30290  Biso   1.000  C
  C57      1.0000 0.21490  0.88920  0.30490  Biso   1.000  C
  C58      1.0000 0.14190  0.49510  0.35910  Biso   1.000  C
  C59      1.0000 0.16250  0.42880  0.30290  Biso   1.000  C
  C60      1.0000 0.11080  0.32570  0.30490  Biso   1.000  C
  C61      1.0000 0.50490  0.64680  0.35910  Biso   1.000  C
  C62      1.0000 0.57120  0.73370  0.30290  Biso   1.000  C
  C63      1.0000 0.67430  0.78510  0.30490  Biso   1.000  C
  C64      1.0000 0.64680  0.14190  0.35910  Biso   1.000  C
  C65      1.0000 0.73370  0.16250  0.30290  Biso   1.000  C
  C66      1.0000 0.78510  0.11080  0.30490  Biso   1.000  C
  C67      1.0000 0.85810  0.50490  0.35910  Biso   1.000  C
  C68      1.0000 0.83750  0.57120  0.30290  Biso   1.000  C
  C69      1.0000 0.88920  0.67430  0.30490  Biso   1.000  C
  C70      1.0000 0.49510  0.35320  0.35910  Biso   1.000  C
  C71      1.0000 0.42880  0.26630  0.30290  Biso   1.000  C
  C72      1.0000 0.32570  0.21490  0.30490  Biso   1.000  C
  C73      1.0000 0.72730  0.86365  0.75000  Biso   1.000  C
  C74      1.0000 0.13635  0.27270  0.75000  Biso   1.000  C
  C75      1.0000 0.13635  0.86365  0.75000  Biso   1.000  C
  C76      1.0000 0.27270  0.13635  0.75000  Biso   1.000  C
  C77      1.0000 0.86365  0.72730  0.75000  Biso   1.000  C
  C78      1.0000 0.86365  0.13635  0.75000  Biso   1.000  C
  C79      1.0000 0.27270  0.13635  0.25000  Biso   1.000  C
  C80      1.0000 0.86365  0.72730  0.25000  Biso   1.000  C
  C81      1.0000 0.86365  0.13635  0.25000  Biso   1.000  C
  C82      1.0000 0.72730  0.86365  0.25000  Biso   1.000  C
  C83      1.0000 0.13635  0.27270  0.25000  Biso   1.000  C
  C84      1.0000 0.13635  0.86365  0.25000  Biso   1.000  C
  N1       1.0000 0.51900  0.75950  0.75000  Biso   1.000  N
  N2       1.0000 0.24050  0.48100  0.75000  Biso   1.000  N
  N3       1.0000 0.24050  0.75950  0.75000  Biso   1.000  N
  N4       1.0000 0.48100  0.24050  0.75000  Biso   1.000  N
  N5       1.0000 0.75950  0.51900  0.75000  Biso   1.000  N
  N6       1.0000 0.75950  0.24050  0.75000  Biso   1.000  N
  N7       1.0000 0.48100  0.24050  0.25000  Biso   1.000  N
  N8       1.0000 0.75950  0.51900  0.25000  Biso   1.000  N
  N9       1.0000 0.75950  0.24050  0.25000  Biso   1.000  N
  N10      1.0000 0.51900  0.75950  0.25000  Biso   1.000  N
  N11      1.0000 0.24050  0.48100  0.25000  Biso   1.000  N
  N12      1.0000 0.24050  0.75950  0.25000  Biso   1.000  N
  O1       1.0000 0.54930  0.93410  0.90680  Biso   1.000  O
  O2       1.0000 0.41080  0.79870  0.85467  Biso   1.000  O
  O3       1.0000 0.38480  0.45070  0.90680  Biso   1.000  O
  O4       1.0000 0.38790  0.58920  0.85467  Biso   1.000  O
  O5       1.0000 0.06590  0.61520  0.90680  Biso   1.000  O
  O6       1.0000 0.20130  0.61210  0.85467  Biso   1.000  O
  O7       1.0000 0.45070  0.06590  0.90680  Biso   1.000  O
  O8       1.0000 0.58920  0.20130  0.85467  Biso   1.000  O
  O9       1.0000 0.61520  0.54930  0.90680  Biso   1.000  O
  O10      1.0000 0.61210  0.41080  0.85467  Biso   1.000  O
  O11      1.0000 0.93410  0.38480  0.90680  Biso   1.000  O
  O12      1.0000 0.79870  0.38790  0.85467  Biso   1.000  O
  O13      1.0000 0.61520  0.06590  0.59320  Biso   1.000  O
  O14      1.0000 0.61210  0.20130  0.64533  Biso   1.000  O
  O15      1.0000 0.93410  0.54930  0.59320  Biso   1.000  O
  O16      1.0000 0.79870  0.41080  0.64533  Biso   1.000  O
  O17      1.0000 0.45070  0.38480  0.59320  Biso   1.000  O
  O18      1.0000 0.58920  0.38790  0.64533  Biso   1.000  O
  O19      1.0000 0.38480  0.93410  0.59320  Biso   1.000  O
  O20      1.0000 0.38790  0.79870  0.64533  Biso   1.000  O
  O21      1.0000 0.06590  0.45070  0.59320  Biso   1.000  O
  O22      1.0000 0.20130  0.58920  0.64533  Biso   1.000  O
  O23      1.0000 0.54930  0.61520  0.59320  Biso   1.000  O
  O24      1.0000 0.41080  0.61210  0.64533  Biso   1.000  O
  O25      1.0000 0.45070  0.06590  0.09320  Biso   1.000  O
  O26      1.0000 0.58920  0.20130  0.14533  Biso   1.000  O
  O27      1.0000 0.61520  0.54930  0.09320  Biso   1.000  O
  O28      1.0000 0.61210  0.41080  0.14533  Biso   1.000  O
  O29      1.0000 0.93410  0.38480  0.09320  Biso   1.000  O
  O30      1.0000 0.79870  0.38790  0.14533  Biso   1.000  O
  O31      1.0000 0.54930  0.93410  0.09320  Biso   1.000  O
  O32      1.0000 0.41080  0.79870  0.14533  Biso   1.000  O
  O33      1.0000 0.38480  0.45070  0.09320  Biso   1.000  O
  O34      1.0000 0.38790  0.58920  0.14533  Biso   1.000  O
  O35      1.0000 0.06590  0.61520  0.09320  Biso   1.000  O
  O36      1.0000 0.20130  0.61210  0.14533  Biso   1.000  O
  O37      1.0000 0.38480  0.93410  0.40680  Biso   1.000  O
  O38      1.0000 0.38790  0.79870  0.35467  Biso   1.000  O
  O39      1.0000 0.06590  0.45070  0.40680  Biso   1.000  O
  O40      1.0000 0.20130  0.58920  0.35467  Biso   1.000  O
  O41      1.0000 0.54930  0.61520  0.40680  Biso   1.000  O
  O42      1.0000 0.41080  0.61210  0.35467  Biso   1.000  O
  O43      1.0000 0.61520  0.06590  0.40680  Biso   1.000  O
  O44      1.0000 0.61210  0.20130  0.35467  Biso   1.000  O
  O45      1.0000 0.93410  0.54930  0.40680  Biso   1.000  O
  O46      1.0000 0.79870  0.41080  0.35467  Biso   1.000  O
  O47      1.0000 0.45070  0.38480  0.40680  Biso   1.000  O
  O48      1.0000 0.58920  0.38790  0.35467  Biso   1.000  O
  O49      1.0000 0.34490  0.85620  0.00000  Biso   1.000  O
  O50      1.0000 0.51130  0.65510  0.00000  Biso   1.000  O
  O51      1.0000 0.14380  0.48870  0.00000  Biso   1.000  O
  O52      1.0000 0.65510  0.14380  0.00000  Biso   1.000  O
  O53      1.0000 0.48870  0.34490  0.00000  Biso   1.000  O
  O54      1.0000 0.85620  0.51130  0.00000  Biso   1.000  O
  O55      1.0000 0.48870  0.14380  0.50000  Biso   1.000  O
  O56      1.0000 0.85620  0.34490  0.50000  Biso   1.000  O
  O57      1.0000 0.65510  0.51130  0.50000  Biso   1.000  O
  O58      1.0000 0.51130  0.85620  0.50000  Biso   1.000  O
  O59      1.0000 0.14380  0.65510  0.50000  Biso   1.000  O
  O60      1.0000 0.34490  0.48870  0.50000  Biso   1.000  O
