data_image0
_cell_length_a       8.1523
_cell_length_b       18.051
_cell_length_c       21.2912
_cell_angle_alpha    90
_cell_angle_beta     90
_cell_angle_gamma    90

_symmetry_space_group_name_H-M    P 1
_symmetry_int_tables_number       1

loop_
  _symmetry_equiv_pos_as_xyz
  'x, y, z'

loop_
  _atom_site_label
  _atom_site_occupancy
  _atom_site_fract_x
  _atom_site_fract_y
  _atom_site_fract_z
  _atom_site_thermal_displace_type
  _atom_site_B_iso_or_equiv
  _atom_site_type_symbol
  Cd1      1.0000 0.48438  0.78193  0.96306  Biso   1.000  Cd
  Cd2      1.0000 0.01562  0.21807  0.46306  Biso   1.000  Cd
  Cd3      1.0000 0.51562  0.28193  0.53694  Biso   1.000  Cd
  Cd4      1.0000 0.98438  0.71807  0.03694  Biso   1.000  Cd
  H1       1.0000 0.33430  0.59510  0.57960  Biso   1.000  H
  H2       1.0000 0.75490  0.77250  0.55220  Biso   1.000  H
  H3       1.0000 0.52310  0.49690  0.42710  Biso   1.000  H
  H4       1.0000 0.50020  0.50090  0.83130  Biso   1.000  H
  H5       1.0000 0.60690  0.29290  0.78180  Biso   1.000  H
  H6       1.0000 0.07400  0.57780  0.54070  Biso   1.000  H
  H7       1.0000 0.51930  0.37870  0.85540  Biso   1.000  H
  H8       1.0000 0.26080  0.47890  0.38980  Biso   1.000  H
  H9       1.0000 0.70360  0.61290  0.82220  Biso   1.000  H
  H10      1.0000 0.70400  0.68250  0.77790  Biso   1.000  H
  H11      1.0000 0.66430  0.32910  0.68100  Biso   1.000  H
  H12      1.0000 0.17810  0.67510  0.67020  Biso   1.000  H
  H13      1.0000 0.02370  0.80350  0.53010  Biso   1.000  H
  H14      1.0000 0.91070  0.64320  0.69330  Biso   1.000  H
  H15      1.0000 0.88730  0.44710  0.54870  Biso   1.000  H
  H16      1.0000 0.91600  0.40610  0.61280  Biso   1.000  H
  H17      1.0000 0.23520  0.75710  0.59040  Biso   1.000  H
  H18      1.0000 0.03600  0.51650  0.44630  Biso   1.000  H
  H19      1.0000 0.75400  0.87000  0.95700  Biso   1.000  H
  H20      1.0000 0.63800  0.91100  0.96800  Biso   1.000  H
  H21      1.0000 0.49800  0.83800  0.08700  Biso   1.000  H
  H22      1.0000 0.36400  0.81600  0.07800  Biso   1.000  H
  H23      1.0000 0.16570  0.40490  0.07960  Biso   1.000  H
  H24      1.0000 0.74510  0.22750  0.05220  Biso   1.000  H
  H25      1.0000 0.97690  0.50310  0.92710  Biso   1.000  H
  H26      1.0000 0.99980  0.49910  0.33130  Biso   1.000  H
  H27      1.0000 0.89310  0.70710  0.28180  Biso   1.000  H
  H28      1.0000 0.42600  0.42220  0.04070  Biso   1.000  H
  H29      1.0000 0.98070  0.62130  0.35540  Biso   1.000  H
  H30      1.0000 0.23920  0.52110  0.88980  Biso   1.000  H
  H31      1.0000 0.79640  0.38710  0.32220  Biso   1.000  H
  H32      1.0000 0.79600  0.31750  0.27790  Biso   1.000  H
  H33      1.0000 0.83570  0.67090  0.18100  Biso   1.000  H
  H34      1.0000 0.32190  0.32490  0.17020  Biso   1.000  H
  H35      1.0000 0.47630  0.19650  0.03010  Biso   1.000  H
  H36      1.0000 0.58930  0.35680  0.19330  Biso   1.000  H
  H37      1.0000 0.61270  0.55290  0.04870  Biso   1.000  H
  H38      1.0000 0.58400  0.59390  0.11280  Biso   1.000  H
  H39      1.0000 0.26480  0.24290  0.09040  Biso   1.000  H
  H40      1.0000 0.46400  0.48350  0.94630  Biso   1.000  H
  H41      1.0000 0.74600  0.13000  0.45700  Biso   1.000  H
  H42      1.0000 0.86200  0.08900  0.46800  Biso   1.000  H
  H43      1.0000 0.00200  0.16200  0.58700  Biso   1.000  H
  H44      1.0000 0.13600  0.18400  0.57800  Biso   1.000  H
  H45      1.0000 0.66570  0.09510  0.92040  Biso   1.000  H
  H46      1.0000 0.24510  0.27250  0.94780  Biso   1.000  H
  H47      1.0000 0.47690  0.99690  0.07290  Biso   1.000  H
  H48      1.0000 0.49980  0.00090  0.66870  Biso   1.000  H
  H49      1.0000 0.39310  0.79290  0.71820  Biso   1.000  H
  H50      1.0000 0.92600  0.07780  0.95930  Biso   1.000  H
  H51      1.0000 0.48070  0.87870  0.64460  Biso   1.000  H
  H52      1.0000 0.73920  0.97890  0.11020  Biso   1.000  H
  H53      1.0000 0.29640  0.11290  0.67780  Biso   1.000  H
  H54      1.0000 0.29600  0.18250  0.72210  Biso   1.000  H
  H55      1.0000 0.33570  0.82910  0.81900  Biso   1.000  H
  H56      1.0000 0.82190  0.17510  0.82980  Biso   1.000  H
  H57      1.0000 0.97630  0.30350  0.96990  Biso   1.000  H
  H58      1.0000 0.08930  0.14320  0.80670  Biso   1.000  H
  H59      1.0000 0.11270  0.94710  0.95130  Biso   1.000  H
  H60      1.0000 0.08400  0.90610  0.88720  Biso   1.000  H
  H61      1.0000 0.76480  0.25710  0.90960  Biso   1.000  H
  H62      1.0000 0.96400  0.01650  0.05370  Biso   1.000  H
  H63      1.0000 0.24600  0.37000  0.54300  Biso   1.000  H
  H64      1.0000 0.36200  0.41100  0.53200  Biso   1.000  H
  H65      1.0000 0.50200  0.33800  0.41300  Biso   1.000  H
  H66      1.0000 0.63600  0.31600  0.42200  Biso   1.000  H
  H67      1.0000 0.83430  0.90490  0.42040  Biso   1.000  H
  H68      1.0000 0.25490  0.72750  0.44780  Biso   1.000  H
  H69      1.0000 0.02310  0.00310  0.57290  Biso   1.000  H
  H70      1.0000 0.00020  0.99910  0.16870  Biso   1.000  H
  H71      1.0000 0.10690  0.20710  0.21820  Biso   1.000  H
  H72      1.0000 0.57400  0.92220  0.45930  Biso   1.000  H
  H73      1.0000 0.01930  0.12130  0.14460  Biso   1.000  H
  H74      1.0000 0.76080  0.02110  0.61020  Biso   1.000  H
  H75      1.0000 0.20360  0.88710  0.17780  Biso   1.000  H
  H76      1.0000 0.20400  0.81750  0.22210  Biso   1.000  H
  H77      1.0000 0.16430  0.17090  0.31900  Biso   1.000  H
  H78      1.0000 0.67810  0.82490  0.32980  Biso   1.000  H
  H79      1.0000 0.52370  0.69650  0.46990  Biso   1.000  H
  H80      1.0000 0.41070  0.85680  0.30670  Biso   1.000  H
  H81      1.0000 0.38730  0.05290  0.45130  Biso   1.000  H
  H82      1.0000 0.41600  0.09390  0.38720  Biso   1.000  H
  H83      1.0000 0.73520  0.74290  0.40960  Biso   1.000  H
  H84      1.0000 0.53600  0.98350  0.55370  Biso   1.000  H
  H85      1.0000 0.25400  0.63000  0.04300  Biso   1.000  H
  H86      1.0000 0.13800  0.58900  0.03200  Biso   1.000  H
  H87      1.0000 0.99800  0.66200  0.91300  Biso   1.000  H
  H88      1.0000 0.86400  0.68400  0.92200  Biso   1.000  H
  C1       1.0000 0.32010  0.57165  0.54110  Biso   1.000  C
  C2       1.0000 0.64980  0.46388  0.63126  Biso   1.000  C
  C3       1.0000 0.63860  0.53716  0.61517  Biso   1.000  C
  C4       1.0000 0.62040  0.43942  0.69355  Biso   1.000  C
  C5       1.0000 0.60180  0.59125  0.66249  Biso   1.000  C
  C6       1.0000 0.83960  0.75290  0.57630  Biso   1.000  C
  C7       1.0000 0.43330  0.51290  0.45032  Biso   1.000  C
  C8       1.0000 0.53370  0.46730  0.80081  Biso   1.000  C
  C9       1.0000 0.45570  0.54806  0.50781  Biso   1.000  C
  C10      1.0000 0.80500  0.70500  0.62535  Biso   1.000  C
  C11      1.0000 0.59690  0.34250  0.77050  Biso   1.000  C
  C12      1.0000 0.56470  0.56863  0.72202  Biso   1.000  C
  C13      1.0000 0.57220  0.49251  0.73927  Biso   1.000  C
  C14      1.0000 0.16410  0.56090  0.51807  Biso   1.000  C
  C15      1.0000 0.54570  0.39450  0.81509  Biso   1.000  C
  C16      1.0000 0.27590  0.50230  0.42830  Biso   1.000  C
  C17      1.0000 0.56040  0.69734  0.85590  Biso   1.000  C
  C18      1.0000 0.63530  0.65140  0.80408  Biso   1.000  C
  C19      1.0000 0.63230  0.36409  0.71063  Biso   1.000  C
  C20      1.0000 0.09280  0.69510  0.64670  Biso   1.000  C
  C21      1.0000 0.00070  0.77160  0.56330  Biso   1.000  C
  C22      1.0000 0.93270  0.67578  0.66050  Biso   1.000  C
  C23      1.0000 0.85450  0.40477  0.57380  Biso   1.000  C
  C24      1.0000 0.12740  0.74350  0.59880  Biso   1.000  C
  C25      1.0000 0.14110  0.52510  0.46160  Biso   1.000  C
  C26      1.0000 0.89470  0.33464  0.53886  Biso   1.000  C
  C27      1.0000 0.17990  0.42835  0.04110  Biso   1.000  C
  C28      1.0000 0.85020  0.53612  0.13126  Biso   1.000  C
  C29      1.0000 0.86140  0.46284  0.11517  Biso   1.000  C
  C30      1.0000 0.87960  0.56058  0.19355  Biso   1.000  C
  C31      1.0000 0.89820  0.40875  0.16249  Biso   1.000  C
  C32      1.0000 0.66040  0.24710  0.07630  Biso   1.000  C
  C33      1.0000 0.06670  0.48710  0.95032  Biso   1.000  C
  C34      1.0000 0.96630  0.53270  0.30081  Biso   1.000  C
  C35      1.0000 0.04430  0.45194  0.00781  Biso   1.000  C
  C36      1.0000 0.69500  0.29500  0.12535  Biso   1.000  C
  C37      1.0000 0.90310  0.65750  0.27050  Biso   1.000  C
  C38      1.0000 0.93530  0.43137  0.22202  Biso   1.000  C
  C39      1.0000 0.92780  0.50749  0.23927  Biso   1.000  C
  C40      1.0000 0.33590  0.43910  0.01807  Biso   1.000  C
  C41      1.0000 0.95430  0.60550  0.31509  Biso   1.000  C
  C42      1.0000 0.22410  0.49770  0.92830  Biso   1.000  C
  C43      1.0000 0.93960  0.30266  0.35590  Biso   1.000  C
  C44      1.0000 0.86470  0.34860  0.30408  Biso   1.000  C
  C45      1.0000 0.86770  0.63591  0.21063  Biso   1.000  C
  C46      1.0000 0.40720  0.30490  0.14670  Biso   1.000  C
  C47      1.0000 0.49930  0.22840  0.06330  Biso   1.000  C
  C48      1.0000 0.56730  0.32422  0.16050  Biso   1.000  C
  C49      1.0000 0.64550  0.59523  0.07380  Biso   1.000  C
  C50      1.0000 0.37260  0.25650  0.09880  Biso   1.000  C
  C51      1.0000 0.35890  0.47490  0.96160  Biso   1.000  C
  C52      1.0000 0.60530  0.66536  0.03886  Biso   1.000  C
  C53      1.0000 0.67990  0.07165  0.95890  Biso   1.000  C
  C54      1.0000 0.35020  0.96388  0.86874  Biso   1.000  C
  C55      1.0000 0.36140  0.03716  0.88483  Biso   1.000  C
  C56      1.0000 0.37960  0.93942  0.80645  Biso   1.000  C
  C57      1.0000 0.39820  0.09125  0.83751  Biso   1.000  C
  C58      1.0000 0.16040  0.25290  0.92370  Biso   1.000  C
  C59      1.0000 0.56670  0.01290  0.04968  Biso   1.000  C
  C60      1.0000 0.46630  0.96730  0.69919  Biso   1.000  C
  C61      1.0000 0.54430  0.04806  0.99219  Biso   1.000  C
  C62      1.0000 0.19500  0.20500  0.87465  Biso   1.000  C
  C63      1.0000 0.40310  0.84250  0.72950  Biso   1.000  C
  C64      1.0000 0.43530  0.06863  0.77798  Biso   1.000  C
  C65      1.0000 0.42780  0.99251  0.76073  Biso   1.000  C
  C66      1.0000 0.83590  0.06090  0.98193  Biso   1.000  C
  C67      1.0000 0.45430  0.89450  0.68491  Biso   1.000  C
  C68      1.0000 0.72410  0.00230  0.07170  Biso   1.000  C
  C69      1.0000 0.43960  0.19734  0.64410  Biso   1.000  C
  C70      1.0000 0.36470  0.15140  0.69592  Biso   1.000  C
  C71      1.0000 0.36770  0.86409  0.78937  Biso   1.000  C
  C72      1.0000 0.90720  0.19510  0.85330  Biso   1.000  C
  C73      1.0000 0.99930  0.27160  0.93670  Biso   1.000  C
  C74      1.0000 0.06730  0.17578  0.83950  Biso   1.000  C
  C75      1.0000 0.14550  0.90477  0.92620  Biso   1.000  C
  C76      1.0000 0.87260  0.24350  0.90120  Biso   1.000  C
  C77      1.0000 0.85890  0.02510  0.03840  Biso   1.000  C
  C78      1.0000 0.10530  0.83464  0.96114  Biso   1.000  C
  C79      1.0000 0.82010  0.92835  0.45890  Biso   1.000  C
  C80      1.0000 0.14980  0.03612  0.36874  Biso   1.000  C
  C81      1.0000 0.13860  0.96284  0.38483  Biso   1.000  C
  C82      1.0000 0.12040  0.06058  0.30645  Biso   1.000  C
  C83      1.0000 0.10180  0.90875  0.33751  Biso   1.000  C
  C84      1.0000 0.33960  0.74710  0.42370  Biso   1.000  C
  C85      1.0000 0.93330  0.98710  0.54968  Biso   1.000  C
  C86      1.0000 0.03370  0.03270  0.19919  Biso   1.000  C
  C87      1.0000 0.95570  0.95194  0.49219  Biso   1.000  C
  C88      1.0000 0.30500  0.79500  0.37465  Biso   1.000  C
  C89      1.0000 0.09690  0.15750  0.22950  Biso   1.000  C
  C90      1.0000 0.06470  0.93137  0.27798  Biso   1.000  C
  C91      1.0000 0.07220  0.00749  0.26073  Biso   1.000  C
  C92      1.0000 0.66410  0.93910  0.48193  Biso   1.000  C
  C93      1.0000 0.04570  0.10550  0.18491  Biso   1.000  C
  C94      1.0000 0.77590  0.99770  0.57170  Biso   1.000  C
  C95      1.0000 0.06040  0.80266  0.14410  Biso   1.000  C
  C96      1.0000 0.13530  0.84860  0.19592  Biso   1.000  C
  C97      1.0000 0.13230  0.13591  0.28937  Biso   1.000  C
  C98      1.0000 0.59280  0.80490  0.35330  Biso   1.000  C
  C99      1.0000 0.50070  0.72840  0.43670  Biso   1.000  C
  C100     1.0000 0.43270  0.82422  0.33950  Biso   1.000  C
  C101     1.0000 0.35450  0.09523  0.42620  Biso   1.000  C
  C102     1.0000 0.62740  0.75650  0.40120  Biso   1.000  C
  C103     1.0000 0.64110  0.97490  0.53840  Biso   1.000  C
  C104     1.0000 0.39470  0.16536  0.46114  Biso   1.000  C
  S1       1.0000 0.66006  0.56352  0.53483  Biso   1.000  S
  S2       1.0000 0.59568  0.68713  0.64372  Biso   1.000  S
  S3       1.0000 0.83994  0.43648  0.03483  Biso   1.000  S
  S4       1.0000 0.90432  0.31287  0.14372  Biso   1.000  S
  S5       1.0000 0.33994  0.06352  0.96517  Biso   1.000  S
  S6       1.0000 0.40432  0.18713  0.85628  Biso   1.000  S
  S7       1.0000 0.16006  0.93648  0.46517  Biso   1.000  S
  S8       1.0000 0.09568  0.81287  0.35628  Biso   1.000  S
  O1       1.0000 0.50940  0.61842  0.76670  Biso   1.000  O
  O2       1.0000 0.68410  0.40969  0.58725  Biso   1.000  O
  O3       1.0000 0.41220  0.70375  0.86223  Biso   1.000  O
  O4       1.0000 0.66110  0.72882  0.89173  Biso   1.000  O
  O5       1.0000 0.03770  0.32991  0.51758  Biso   1.000  O
  O6       1.0000 0.79120  0.28418  0.53309  Biso   1.000  O
  O7       1.0000 0.66100  0.87796  0.94819  Biso   1.000  O
  O8       1.0000 0.43600  0.83892  0.06022  Biso   1.000  O
  O9       1.0000 0.99060  0.38158  0.26670  Biso   1.000  O
  O10      1.0000 0.81590  0.59031  0.08725  Biso   1.000  O
  O11      1.0000 0.08780  0.29625  0.36223  Biso   1.000  O
  O12      1.0000 0.83890  0.27118  0.39173  Biso   1.000  O
  O13      1.0000 0.46230  0.67009  0.01758  Biso   1.000  O
  O14      1.0000 0.70880  0.71582  0.03309  Biso   1.000  O
  O15      1.0000 0.83900  0.12204  0.44819  Biso   1.000  O
  O16      1.0000 0.06400  0.16108  0.56022  Biso   1.000  O
  O17      1.0000 0.49060  0.11842  0.73330  Biso   1.000  O
  O18      1.0000 0.31590  0.90969  0.91275  Biso   1.000  O
  O19      1.0000 0.58780  0.20375  0.63777  Biso   1.000  O
  O20      1.0000 0.33890  0.22882  0.60827  Biso   1.000  O
  O21      1.0000 0.96230  0.82991  0.98242  Biso   1.000  O
  O22      1.0000 0.20880  0.78418  0.96691  Biso   1.000  O
  O23      1.0000 0.33900  0.37796  0.55181  Biso   1.000  O
  O24      1.0000 0.56400  0.33892  0.43978  Biso   1.000  O
  O25      1.0000 0.00940  0.88158  0.23330  Biso   1.000  O
  O26      1.0000 0.18410  0.09031  0.41275  Biso   1.000  O
  O27      1.0000 0.91220  0.79625  0.13777  Biso   1.000  O
  O28      1.0000 0.16110  0.77118  0.10827  Biso   1.000  O
  O29      1.0000 0.53770  0.17009  0.48242  Biso   1.000  O
  O30      1.0000 0.29120  0.21582  0.46691  Biso   1.000  O
  O31      1.0000 0.16100  0.62204  0.05181  Biso   1.000  O
  O32      1.0000 0.93600  0.66108  0.93978  Biso   1.000  O
