data_image0
_cell_length_a       7.8494
_cell_length_b       9.9876
_cell_length_c       12.6067
_cell_angle_alpha    104.131
_cell_angle_beta     91.094
_cell_angle_gamma    111.882

_symmetry_space_group_name_H-M    P 1
_symmetry_int_tables_number       1

loop_
  _symmetry_equiv_pos_as_xyz
  'x, y, z'

loop_
  _atom_site_label
  _atom_site_occupancy
  _atom_site_fract_x
  _atom_site_fract_y
  _atom_site_fract_z
  _atom_site_thermal_displace_type
  _atom_site_B_iso_or_equiv
  _atom_site_type_symbol
  Mn1      1.0000 0.98193  0.27892  0.46437  Biso   1.000  Mn
  Mn2      1.0000 0.01807  0.72108  0.53563  Biso   1.000  Mn
  H1       1.0000 0.18940  0.08360  0.45240  Biso   1.000  H
  H2       1.0000 0.23970  0.19030  0.36530  Biso   1.000  H
  H3       1.0000 0.46530  0.80640  0.45820  Biso   1.000  H
  H4       1.0000 0.62820  0.87060  0.16790  Biso   1.000  H
  H5       1.0000 0.25090  0.47660  0.18220  Biso   1.000  H
  H6       1.0000 0.47990  0.67090  0.99360  Biso   1.000  H
  H7       1.0000 0.26820  0.38660  0.01890  Biso   1.000  H
  H8       1.0000 0.90670  0.16940  0.68240  Biso   1.000  H
  H9       1.0000 0.02970  0.22640  0.86360  Biso   1.000  H
  H10      1.0000 0.41420  0.59830  0.82210  Biso   1.000  H
  H11      1.0000 0.27980  0.52940  0.64430  Biso   1.000  H
  H12      1.0000 0.81060  0.91640  0.54760  Biso   1.000  H
  H13      1.0000 0.76030  0.80970  0.63470  Biso   1.000  H
  H14      1.0000 0.53470  0.19360  0.54180  Biso   1.000  H
  H15      1.0000 0.37180  0.12940  0.83210  Biso   1.000  H
  H16      1.0000 0.74910  0.52340  0.81780  Biso   1.000  H
  H17      1.0000 0.52010  0.32910  0.00640  Biso   1.000  H
  H18      1.0000 0.73180  0.61340  0.98110  Biso   1.000  H
  H19      1.0000 0.09330  0.83060  0.31760  Biso   1.000  H
  H20      1.0000 0.97030  0.77360  0.13640  Biso   1.000  H
  H21      1.0000 0.58580  0.40170  0.17790  Biso   1.000  H
  H22      1.0000 0.72020  0.47060  0.35570  Biso   1.000  H
  C1       1.0000 0.21140  0.53840  0.39540  Biso   1.000  C
  C2       1.0000 0.33280  0.63160  0.32990  Biso   1.000  C
  C3       1.0000 0.45580  0.77180  0.38190  Biso   1.000  C
  C4       1.0000 0.56950  0.86600  0.32200  Biso   1.000  C
  C5       1.0000 0.71200  0.01710  0.37970  Biso   1.000  C
  C6       1.0000 0.55780  0.80920  0.20900  Biso   1.000  C
  C7       1.0000 0.44280  0.66240  0.15620  Biso   1.000  C
  C8       1.0000 0.32990  0.57480  0.21710  Biso   1.000  C
  C9       1.0000 0.47460  0.60070  0.03710  Biso   1.000  C
  C10      1.0000 0.35050  0.43910  0.97180  Biso   1.000  C
  C11      1.0000 0.01170  0.25650  0.71030  Biso   1.000  C
  C12      1.0000 0.08600  0.28930  0.81990  Biso   1.000  C
  C13      1.0000 0.24390  0.41630  0.86200  Biso   1.000  C
  C14      1.0000 0.31250  0.50830  0.79570  Biso   1.000  C
  C15      1.0000 0.22920  0.46610  0.68870  Biso   1.000  C
  C16      1.0000 0.78860  0.46160  0.60460  Biso   1.000  C
  C17      1.0000 0.66720  0.36840  0.67010  Biso   1.000  C
  C18      1.0000 0.54420  0.22820  0.61810  Biso   1.000  C
  C19      1.0000 0.43050  0.13400  0.67800  Biso   1.000  C
  C20      1.0000 0.28800  0.98290  0.62030  Biso   1.000  C
  C21      1.0000 0.44220  0.19080  0.79100  Biso   1.000  C
  C22      1.0000 0.55720  0.33760  0.84380  Biso   1.000  C
  C23      1.0000 0.67010  0.42520  0.78290  Biso   1.000  C
  C24      1.0000 0.52540  0.39930  0.96290  Biso   1.000  C
  C25      1.0000 0.64950  0.56090  0.02820  Biso   1.000  C
  C26      1.0000 0.98830  0.74350  0.28970  Biso   1.000  C
  C27      1.0000 0.91400  0.71070  0.18010  Biso   1.000  C
  C28      1.0000 0.75610  0.58370  0.13800  Biso   1.000  C
  C29      1.0000 0.68750  0.49170  0.20430  Biso   1.000  C
  C30      1.0000 0.77080  0.53390  0.31130  Biso   1.000  C
  N1       1.0000 0.08170  0.34130  0.64500  Biso   1.000  N
  N2       1.0000 0.91830  0.65870  0.35500  Biso   1.000  N
  O1       1.0000 0.12870  0.40030  0.35220  Biso   1.000  O
  O2       1.0000 0.19670  0.60010  0.49290  Biso   1.000  O
  O3       1.0000 0.77810  0.04310  0.47530  Biso   1.000  O
  O4       1.0000 0.76300  0.11440  0.32670  Biso   1.000  O
  O5       1.0000 0.17640  0.16730  0.42960  Biso   1.000  O
  O6       1.0000 0.87130  0.59970  0.64780  Biso   1.000  O
  O7       1.0000 0.80330  0.39990  0.50710  Biso   1.000  O
  O8       1.0000 0.22190  0.95690  0.52470  Biso   1.000  O
  O9       1.0000 0.23700  0.88560  0.67330  Biso   1.000  O
  O10      1.0000 0.82360  0.83270  0.57040  Biso   1.000  O
