data_image0
_cell_length_a       9.595
_cell_length_b       10.33
_cell_length_c       13.67
_cell_angle_alpha    75.702
_cell_angle_beta     88.854
_cell_angle_gamma    65.345

_symmetry_space_group_name_H-M    P 1
_symmetry_int_tables_number       1

loop_
  _symmetry_equiv_pos_as_xyz
  'x, y, z'

loop_
  _atom_site_label
  _atom_site_occupancy
  _atom_site_fract_x
  _atom_site_fract_y
  _atom_site_fract_z
  _atom_site_thermal_displace_type
  _atom_site_B_iso_or_equiv
  _atom_site_type_symbol
  U1       1.0000 0.76581  0.55021  0.99948  Biso   1.000  U
  U2       1.0000 0.23419  0.44979  0.00052  Biso   1.000  U
  U3       1.0000 0.00000  0.00000  0.00000  Biso   1.000  U
  Cu1      1.0000 0.90208  0.03481  0.42043  Biso   1.000  Cu
  Cu2      1.0000 0.09792  0.96519  0.57957  Biso   1.000  Cu
  P1       1.0000 0.62560  0.31710  0.91340  Biso   1.000  P
  P2       1.0000 0.91020  0.68860  0.12475  Biso   1.000  P
  P3       1.0000 0.37440  0.68290  0.08660  Biso   1.000  P
  P4       1.0000 0.08980  0.31140  0.87525  Biso   1.000  P
  H1       1.0000 0.76830  0.14830  0.77260  Biso   1.000  H
  H2       1.0000 0.47980  0.34570  0.51480  Biso   1.000  H
  H3       1.0000 0.30350  0.51630  0.59660  Biso   1.000  H
  H4       1.0000 0.36860  0.50620  0.76180  Biso   1.000  H
  H5       1.0000 0.93940  0.41600  0.25560  Biso   1.000  H
  H6       1.0000 0.19970  0.35420  0.50560  Biso   1.000  H
  H7       1.0000 0.20160  0.58380  0.43780  Biso   1.000  H
  H8       1.0000 0.07450  0.73090  0.28080  Biso   1.000  H
  H9       1.0000 0.23170  0.85170  0.22740  Biso   1.000  H
  H10      1.0000 0.52020  0.65430  0.48520  Biso   1.000  H
  H11      1.0000 0.69650  0.48370  0.40340  Biso   1.000  H
  H12      1.0000 0.63140  0.49380  0.23820  Biso   1.000  H
  H13      1.0000 0.06060  0.58400  0.74440  Biso   1.000  H
  H14      1.0000 0.80030  0.64580  0.49440  Biso   1.000  H
  H15      1.0000 0.79840  0.41620  0.56220  Biso   1.000  H
  H16      1.0000 0.92550  0.26910  0.71920  Biso   1.000  H
  C1       1.0000 0.57260  0.32290  0.78600  Biso   1.000  C
  C2       1.0000 0.67470  0.22420  0.73680  Biso   1.000  C
  C3       1.0000 0.64110  0.23540  0.63450  Biso   1.000  C
  C4       1.0000 0.50420  0.34090  0.58300  Biso   1.000  C
  C5       1.0000 0.39900  0.44280  0.63170  Biso   1.000  C
  C6       1.0000 0.43680  0.43430  0.73050  Biso   1.000  C
  C7       1.0000 0.76470  0.14370  0.58180  Biso   1.000  C
  C8       1.0000 0.99160  0.58710  0.25280  Biso   1.000  C
  C9       1.0000 0.99030  0.45170  0.29380  Biso   1.000  C
  C10      1.0000 0.06110  0.36690  0.38920  Biso   1.000  C
  C11      1.0000 0.14450  0.41440  0.44180  Biso   1.000  C
  C12      1.0000 0.14680  0.55050  0.40060  Biso   1.000  C
  C13      1.0000 0.07220  0.63790  0.30780  Biso   1.000  C
  C14      1.0000 0.04130  0.22820  0.43470  Biso   1.000  C
  C15      1.0000 0.42740  0.67710  0.21400  Biso   1.000  C
  C16      1.0000 0.32530  0.77580  0.26320  Biso   1.000  C
  C17      1.0000 0.35890  0.76460  0.36550  Biso   1.000  C
  C18      1.0000 0.49580  0.65910  0.41700  Biso   1.000  C
  C19      1.0000 0.60100  0.55720  0.36830  Biso   1.000  C
  C20      1.0000 0.56320  0.56570  0.26950  Biso   1.000  C
  C21      1.0000 0.23530  0.85630  0.41820  Biso   1.000  C
  C22      1.0000 0.00840  0.41290  0.74720  Biso   1.000  C
  C23      1.0000 0.00970  0.54830  0.70620  Biso   1.000  C
  C24      1.0000 0.93890  0.63310  0.61080  Biso   1.000  C
  C25      1.0000 0.85550  0.58560  0.55820  Biso   1.000  C
  C26      1.0000 0.85320  0.44950  0.59940  Biso   1.000  C
  C27      1.0000 0.92780  0.36210  0.69220  Biso   1.000  C
  C28      1.0000 0.95870  0.77180  0.56530  Biso   1.000  C
  O1       1.0000 0.72840  0.70020  0.88970  Biso   1.000  O
  O2       1.0000 0.80370  0.40100  0.10850  Biso   1.000  O
  O3       1.0000 0.00490  0.06850  0.10570  Biso   1.000  O
  O4       1.0000 0.68720  0.43390  0.90340  Biso   1.000  O
  O5       1.0000 0.74730  0.16070  0.95860  Biso   1.000  O
  O6       1.0000 0.48840  0.34590  0.97490  Biso   1.000  O
  O7       1.0000 0.74390  0.71130  0.11100  Biso   1.000  O
  O8       1.0000 0.99390  0.58790  0.05420  Biso   1.000  O
  O9       1.0000 0.92870  0.83260  0.10270  Biso   1.000  O
  O10      1.0000 0.72970  0.13680  0.49380  Biso   1.000  O
  O11      1.0000 0.90120  0.07900  0.62650  Biso   1.000  O
  O12      1.0000 0.12250  0.14600  0.51730  Biso   1.000  O
  O13      1.0000 0.94630  0.20650  0.38830  Biso   1.000  O
  O14      1.0000 0.77840  0.09440  0.26870  Biso   1.000  O
  O15      1.0000 0.27160  0.29980  0.11030  Biso   1.000  O
  O16      1.0000 0.19630  0.59900  0.89150  Biso   1.000  O
  O17      1.0000 0.99510  0.93150  0.89430  Biso   1.000  O
  O18      1.0000 0.31280  0.56610  0.09660  Biso   1.000  O
  O19      1.0000 0.25270  0.83930  0.04140  Biso   1.000  O
  O20      1.0000 0.51160  0.65410  0.02510  Biso   1.000  O
  O21      1.0000 0.25610  0.28870  0.88900  Biso   1.000  O
  O22      1.0000 0.00610  0.41210  0.94580  Biso   1.000  O
  O23      1.0000 0.07130  0.16740  0.89730  Biso   1.000  O
  O24      1.0000 0.27030  0.86320  0.50620  Biso   1.000  O
  O25      1.0000 0.09880  0.92100  0.37350  Biso   1.000  O
  O26      1.0000 0.87750  0.85400  0.48270  Biso   1.000  O
  O27      1.0000 0.05370  0.79350  0.61170  Biso   1.000  O
  O28      1.0000 0.22160  0.90560  0.73130  Biso   1.000  O
