data_image0
_cell_length_a       11.2949
_cell_length_b       21.312
_cell_length_c       29.097
_cell_angle_alpha    90
_cell_angle_beta     90
_cell_angle_gamma    90

_symmetry_space_group_name_H-M    P 1
_symmetry_int_tables_number       1

loop_
  _symmetry_equiv_pos_as_xyz
  'x, y, z'

loop_
  _atom_site_label
  _atom_site_occupancy
  _atom_site_fract_x
  _atom_site_fract_y
  _atom_site_fract_z
  _atom_site_thermal_displace_type
  _atom_site_B_iso_or_equiv
  _atom_site_type_symbol
  Zn1      1.0000 0.61624  0.83550  0.67438  Biso   1.000  Zn
  Zn2      1.0000 0.75818  0.90075  0.75938  Biso   1.000  Zn
  Zn3      1.0000 0.48527  0.89514  0.76089  Biso   1.000  Zn
  Zn4      1.0000 0.65403  0.98415  0.68561  Biso   1.000  Zn
  Zn5      1.0000 0.38376  0.16450  0.17438  Biso   1.000  Zn
  Zn6      1.0000 0.24182  0.09925  0.25938  Biso   1.000  Zn
  Zn7      1.0000 0.51473  0.10486  0.26089  Biso   1.000  Zn
  Zn8      1.0000 0.34597  0.01585  0.18561  Biso   1.000  Zn
  Zn9      1.0000 0.88376  0.33550  0.67438  Biso   1.000  Zn
  Zn10     1.0000 0.74182  0.40075  0.75938  Biso   1.000  Zn
  Zn11     1.0000 0.01473  0.39514  0.76089  Biso   1.000  Zn
  Zn12     1.0000 0.84597  0.48415  0.68561  Biso   1.000  Zn
  Zn13     1.0000 0.11624  0.66450  0.17438  Biso   1.000  Zn
  Zn14     1.0000 0.25818  0.59925  0.25938  Biso   1.000  Zn
  Zn15     1.0000 0.98527  0.60486  0.26089  Biso   1.000  Zn
  Zn16     1.0000 0.15403  0.51585  0.18561  Biso   1.000  Zn
  H1       1.0000 0.87940  0.99750  0.55980  Biso   1.000  H
  H2       1.0000 0.97470  0.97770  0.48940  Biso   1.000  H
  H3       1.0000 0.81660  0.81170  0.48280  Biso   1.000  H
  H4       1.0000 0.70460  0.83380  0.54930  Biso   1.000  H
  H5       1.0000 0.08950  0.95370  0.34260  Biso   1.000  H
  H6       1.0000 0.17180  0.84600  0.23170  Biso   1.000  H
  H7       1.0000 0.97950  0.77770  0.34090  Biso   1.000  H
  H8       1.0000 0.29680  0.68810  0.39100  Biso   1.000  H
  H9       1.0000 0.29130  0.72270  0.46420  Biso   1.000  H
  H10      1.0000 0.94930  0.68800  0.46910  Biso   1.000  H
  H11      1.0000 0.95670  0.65250  0.39370  Biso   1.000  H
  H12      1.0000 0.29270  0.80300  0.60590  Biso   1.000  H
  H13      1.0000 0.11890  0.86510  0.71590  Biso   1.000  H
  H14      1.0000 0.94010  0.80020  0.60760  Biso   1.000  H
  H15      1.0000 0.12060  0.00250  0.05980  Biso   1.000  H
  H16      1.0000 0.02530  0.02230  0.98940  Biso   1.000  H
  H17      1.0000 0.18340  0.18830  0.98280  Biso   1.000  H
  H18      1.0000 0.29540  0.16620  0.04930  Biso   1.000  H
  H19      1.0000 0.91050  0.04630  0.84260  Biso   1.000  H
  H20      1.0000 0.82820  0.15400  0.73170  Biso   1.000  H
  H21      1.0000 0.02050  0.22230  0.84090  Biso   1.000  H
  H22      1.0000 0.70320  0.31190  0.89100  Biso   1.000  H
  H23      1.0000 0.70870  0.27730  0.96420  Biso   1.000  H
  H24      1.0000 0.05070  0.31200  0.96910  Biso   1.000  H
  H25      1.0000 0.04330  0.34750  0.89370  Biso   1.000  H
  H26      1.0000 0.70730  0.19700  0.10590  Biso   1.000  H
  H27      1.0000 0.88110  0.13490  0.21590  Biso   1.000  H
  H28      1.0000 0.05990  0.19980  0.10760  Biso   1.000  H
  H29      1.0000 0.62060  0.49750  0.55980  Biso   1.000  H
  H30      1.0000 0.52530  0.47770  0.48940  Biso   1.000  H
  H31      1.0000 0.68340  0.31170  0.48280  Biso   1.000  H
  H32      1.0000 0.79540  0.33380  0.54930  Biso   1.000  H
  H33      1.0000 0.41050  0.45370  0.34260  Biso   1.000  H
  H34      1.0000 0.32820  0.34600  0.23170  Biso   1.000  H
  H35      1.0000 0.52050  0.27770  0.34090  Biso   1.000  H
  H36      1.0000 0.20320  0.18810  0.39100  Biso   1.000  H
  H37      1.0000 0.20870  0.22270  0.46420  Biso   1.000  H
  H38      1.0000 0.55070  0.18800  0.46910  Biso   1.000  H
  H39      1.0000 0.54330  0.15250  0.39370  Biso   1.000  H
  H40      1.0000 0.20730  0.30300  0.60590  Biso   1.000  H
  H41      1.0000 0.38110  0.36510  0.71590  Biso   1.000  H
  H42      1.0000 0.55990  0.30020  0.60760  Biso   1.000  H
  H43      1.0000 0.37940  0.50250  0.05980  Biso   1.000  H
  H44      1.0000 0.47470  0.52230  0.98940  Biso   1.000  H
  H45      1.0000 0.31660  0.68830  0.98280  Biso   1.000  H
  H46      1.0000 0.20460  0.66620  0.04930  Biso   1.000  H
  H47      1.0000 0.58950  0.54630  0.84260  Biso   1.000  H
  H48      1.0000 0.67180  0.65400  0.73170  Biso   1.000  H
  H49      1.0000 0.47950  0.72230  0.84090  Biso   1.000  H
  H50      1.0000 0.79680  0.81190  0.89100  Biso   1.000  H
  H51      1.0000 0.79130  0.77730  0.96420  Biso   1.000  H
  H52      1.0000 0.44930  0.81200  0.96910  Biso   1.000  H
  H53      1.0000 0.45670  0.84750  0.89370  Biso   1.000  H
  H54      1.0000 0.79270  0.69700  0.10590  Biso   1.000  H
  H55      1.0000 0.61890  0.63490  0.21590  Biso   1.000  H
  H56      1.0000 0.44010  0.69980  0.10760  Biso   1.000  H
  C1       1.0000 0.71770  0.92930  0.60530  Biso   1.000  C
  C2       1.0000 0.78170  0.91500  0.56060  Biso   1.000  C
  C3       1.0000 0.86460  0.96070  0.54360  Biso   1.000  C
  C4       1.0000 0.92300  0.94800  0.50150  Biso   1.000  C
  C5       1.0000 0.90430  0.89110  0.47750  Biso   1.000  C
  C6       1.0000 0.82730  0.85030  0.49710  Biso   1.000  C
  C7       1.0000 0.76050  0.86230  0.53860  Biso   1.000  C
  C8       1.0000 0.95020  0.88480  0.43180  Biso   1.000  C
  C9       1.0000 0.98910  0.87510  0.39650  Biso   1.000  C
  C10      1.0000 0.04490  0.86600  0.35060  Biso   1.000  C
  C11      1.0000 0.09110  0.91450  0.32860  Biso   1.000  C
  C12      1.0000 0.14280  0.90880  0.28450  Biso   1.000  C
  C13      1.0000 0.13640  0.85120  0.26030  Biso   1.000  C
  C14      1.0000 0.07330  0.80170  0.28200  Biso   1.000  C
  C15      1.0000 0.02400  0.80940  0.32740  Biso   1.000  C
  C16      1.0000 0.19530  0.96590  0.26210  Biso   1.000  C
  C17      1.0000 0.06560  0.74031  0.25820  Biso   1.000  C
  C18      1.0000 0.13760  0.63260  0.34070  Biso   1.000  C
  C19      1.0000 0.13280  0.65890  0.38690  Biso   1.000  C
  C20      1.0000 0.22560  0.68640  0.40700  Biso   1.000  C
  C21      1.0000 0.22090  0.71200  0.44960  Biso   1.000  C
  C22      1.0000 0.12110  0.72210  0.47080  Biso   1.000  C
  C23      1.0000 0.01890  0.69090  0.45210  Biso   1.000  C
  C24      1.0000 0.02550  0.66540  0.40850  Biso   1.000  C
  C25      1.0000 0.11220  0.75110  0.51480  Biso   1.000  C
  C26      1.0000 0.11350  0.76890  0.55370  Biso   1.000  C
  C27      1.0000 0.11800  0.79570  0.59990  Biso   1.000  C
  C28      1.0000 0.22160  0.81010  0.62110  Biso   1.000  C
  C29      1.0000 0.22340  0.83460  0.66410  Biso   1.000  C
  C30      1.0000 0.11660  0.84730  0.68680  Biso   1.000  C
  C31      1.0000 0.00760  0.83410  0.66710  Biso   1.000  C
  C32      1.0000 0.01110  0.80870  0.62260  Biso   1.000  C
  C33      1.0000 0.34220  0.85210  0.68660  Biso   1.000  C
  C34      1.0000 0.90160  0.84350  0.68950  Biso   1.000  C
  C35      1.0000 0.28230  0.07070  0.10530  Biso   1.000  C
  C36      1.0000 0.21830  0.08500  0.06060  Biso   1.000  C
  C37      1.0000 0.13540  0.03930  0.04360  Biso   1.000  C
  C38      1.0000 0.07700  0.05200  0.00150  Biso   1.000  C
  C39      1.0000 0.09570  0.10890  0.97750  Biso   1.000  C
  C40      1.0000 0.17270  0.14970  0.99710  Biso   1.000  C
  C41      1.0000 0.23950  0.13770  0.03860  Biso   1.000  C
  C42      1.0000 0.04980  0.11520  0.93180  Biso   1.000  C
  C43      1.0000 0.01090  0.12490  0.89650  Biso   1.000  C
  C44      1.0000 0.95510  0.13400  0.85060  Biso   1.000  C
  C45      1.0000 0.90890  0.08550  0.82860  Biso   1.000  C
  C46      1.0000 0.85720  0.09120  0.78450  Biso   1.000  C
  C47      1.0000 0.86360  0.14880  0.76030  Biso   1.000  C
  C48      1.0000 0.92670  0.19830  0.78200  Biso   1.000  C
  C49      1.0000 0.97600  0.19060  0.82740  Biso   1.000  C
  C50      1.0000 0.80470  0.03410  0.76210  Biso   1.000  C
  C51      1.0000 0.93440  0.25969  0.75820  Biso   1.000  C
  C52      1.0000 0.86240  0.36740  0.84070  Biso   1.000  C
  C53      1.0000 0.86720  0.34110  0.88690  Biso   1.000  C
  C54      1.0000 0.77440  0.31360  0.90700  Biso   1.000  C
  C55      1.0000 0.77910  0.28800  0.94960  Biso   1.000  C
  C56      1.0000 0.87890  0.27790  0.97080  Biso   1.000  C
  C57      1.0000 0.98110  0.30910  0.95210  Biso   1.000  C
  C58      1.0000 0.97450  0.33460  0.90850  Biso   1.000  C
  C59      1.0000 0.88780  0.24890  0.01480  Biso   1.000  C
  C60      1.0000 0.88650  0.23110  0.05370  Biso   1.000  C
  C61      1.0000 0.88200  0.20430  0.09990  Biso   1.000  C
  C62      1.0000 0.77840  0.18990  0.12110  Biso   1.000  C
  C63      1.0000 0.77660  0.16540  0.16410  Biso   1.000  C
  C64      1.0000 0.88340  0.15270  0.18680  Biso   1.000  C
  C65      1.0000 0.99240  0.16590  0.16710  Biso   1.000  C
  C66      1.0000 0.98890  0.19130  0.12260  Biso   1.000  C
  C67      1.0000 0.65780  0.14790  0.18660  Biso   1.000  C
  C68      1.0000 0.09840  0.15650  0.18950  Biso   1.000  C
  C69      1.0000 0.78230  0.42930  0.60530  Biso   1.000  C
  C70      1.0000 0.71830  0.41500  0.56060  Biso   1.000  C
  C71      1.0000 0.63540  0.46070  0.54360  Biso   1.000  C
  C72      1.0000 0.57700  0.44800  0.50150  Biso   1.000  C
  C73      1.0000 0.59570  0.39110  0.47750  Biso   1.000  C
  C74      1.0000 0.67270  0.35030  0.49710  Biso   1.000  C
  C75      1.0000 0.73950  0.36230  0.53860  Biso   1.000  C
  C76      1.0000 0.54980  0.38480  0.43180  Biso   1.000  C
  C77      1.0000 0.51090  0.37510  0.39650  Biso   1.000  C
  C78      1.0000 0.45510  0.36600  0.35060  Biso   1.000  C
  C79      1.0000 0.40890  0.41450  0.32860  Biso   1.000  C
  C80      1.0000 0.35720  0.40880  0.28450  Biso   1.000  C
  C81      1.0000 0.36360  0.35120  0.26030  Biso   1.000  C
  C82      1.0000 0.42670  0.30170  0.28200  Biso   1.000  C
  C83      1.0000 0.47600  0.30940  0.32740  Biso   1.000  C
  C84      1.0000 0.30470  0.46590  0.26210  Biso   1.000  C
  C85      1.0000 0.43440  0.24031  0.25820  Biso   1.000  C
  C86      1.0000 0.36240  0.13260  0.34070  Biso   1.000  C
  C87      1.0000 0.36720  0.15890  0.38690  Biso   1.000  C
  C88      1.0000 0.27440  0.18640  0.40700  Biso   1.000  C
  C89      1.0000 0.27910  0.21200  0.44960  Biso   1.000  C
  C90      1.0000 0.37890  0.22210  0.47080  Biso   1.000  C
  C91      1.0000 0.48110  0.19090  0.45210  Biso   1.000  C
  C92      1.0000 0.47450  0.16540  0.40850  Biso   1.000  C
  C93      1.0000 0.38780  0.25110  0.51480  Biso   1.000  C
  C94      1.0000 0.38650  0.26890  0.55370  Biso   1.000  C
  C95      1.0000 0.38200  0.29570  0.59990  Biso   1.000  C
  C96      1.0000 0.27840  0.31010  0.62110  Biso   1.000  C
  C97      1.0000 0.27660  0.33460  0.66410  Biso   1.000  C
  C98      1.0000 0.38340  0.34730  0.68680  Biso   1.000  C
  C99      1.0000 0.49240  0.33410  0.66710  Biso   1.000  C
  C100     1.0000 0.48890  0.30870  0.62260  Biso   1.000  C
  C101     1.0000 0.15780  0.35210  0.68660  Biso   1.000  C
  C102     1.0000 0.59840  0.34350  0.68950  Biso   1.000  C
  C103     1.0000 0.21770  0.57070  0.10530  Biso   1.000  C
  C104     1.0000 0.28170  0.58500  0.06060  Biso   1.000  C
  C105     1.0000 0.36460  0.53930  0.04360  Biso   1.000  C
  C106     1.0000 0.42300  0.55200  0.00150  Biso   1.000  C
  C107     1.0000 0.40430  0.60890  0.97750  Biso   1.000  C
  C108     1.0000 0.32730  0.64970  0.99710  Biso   1.000  C
  C109     1.0000 0.26050  0.63770  0.03860  Biso   1.000  C
  C110     1.0000 0.45020  0.61520  0.93180  Biso   1.000  C
  C111     1.0000 0.48910  0.62490  0.89650  Biso   1.000  C
  C112     1.0000 0.54490  0.63400  0.85060  Biso   1.000  C
  C113     1.0000 0.59110  0.58550  0.82860  Biso   1.000  C
  C114     1.0000 0.64280  0.59120  0.78450  Biso   1.000  C
  C115     1.0000 0.63640  0.64880  0.76030  Biso   1.000  C
  C116     1.0000 0.57330  0.69830  0.78200  Biso   1.000  C
  C117     1.0000 0.52400  0.69060  0.82740  Biso   1.000  C
  C118     1.0000 0.69530  0.53410  0.76210  Biso   1.000  C
  C119     1.0000 0.56560  0.75969  0.75820  Biso   1.000  C
  C120     1.0000 0.63760  0.86740  0.84070  Biso   1.000  C
  C121     1.0000 0.63280  0.84110  0.88690  Biso   1.000  C
  C122     1.0000 0.72560  0.81360  0.90700  Biso   1.000  C
  C123     1.0000 0.72090  0.78800  0.94960  Biso   1.000  C
  C124     1.0000 0.62110  0.77790  0.97080  Biso   1.000  C
  C125     1.0000 0.51890  0.80910  0.95210  Biso   1.000  C
  C126     1.0000 0.52550  0.83460  0.90850  Biso   1.000  C
  C127     1.0000 0.61220  0.74890  0.01480  Biso   1.000  C
  C128     1.0000 0.61350  0.73110  0.05370  Biso   1.000  C
  C129     1.0000 0.61800  0.70430  0.09990  Biso   1.000  C
  C130     1.0000 0.72160  0.68990  0.12110  Biso   1.000  C
  C131     1.0000 0.72340  0.66540  0.16410  Biso   1.000  C
  C132     1.0000 0.61660  0.65270  0.18680  Biso   1.000  C
  C133     1.0000 0.50760  0.66590  0.16710  Biso   1.000  C
  C134     1.0000 0.51110  0.69130  0.12260  Biso   1.000  C
  C135     1.0000 0.84220  0.64790  0.18660  Biso   1.000  C
  C136     1.0000 0.40160  0.65650  0.18950  Biso   1.000  C
  O1       1.0000 0.62210  0.90853  0.71936  Biso   1.000  O
  O2       1.0000 0.63320  0.89640  0.61450  Biso   1.000  O
  O3       1.0000 0.75240  0.97460  0.63060  Biso   1.000  O
  O4       1.0000 0.18980  0.01632  0.28144  Biso   1.000  O
  O5       1.0000 0.24660  0.95673  0.22233  Biso   1.000  O
  O6       1.0000 0.12510  0.73260  0.22230  Biso   1.000  O
  O7       1.0000 0.99630  0.69975  0.27661  Biso   1.000  O
  O8       1.0000 0.23570  0.64349  0.31844  Biso   1.000  O
  O9       1.0000 0.05350  0.59676  0.32744  Biso   1.000  O
  O10      1.0000 0.43630  0.83679  0.66518  Biso   1.000  O
  O11      1.0000 0.33790  0.87938  0.72451  Biso   1.000  O
  O12      1.0000 0.80500  0.83210  0.66820  Biso   1.000  O
  O13      1.0000 0.90330  0.86993  0.73002  Biso   1.000  O
  O14      1.0000 0.61450  0.76460  0.62380  Biso   1.000  O
  O15      1.0000 0.41640  0.98420  0.77190  Biso   1.000  O
  O16      1.0000 0.51950  0.03420  0.66220  Biso   1.000  O
  O17      1.0000 0.37790  0.09147  0.21936  Biso   1.000  O
  O18      1.0000 0.36680  0.10360  0.11450  Biso   1.000  O
  O19      1.0000 0.24760  0.02540  0.13060  Biso   1.000  O
  O20      1.0000 0.81020  0.98368  0.78144  Biso   1.000  O
  O21      1.0000 0.75340  0.04327  0.72233  Biso   1.000  O
  O22      1.0000 0.87490  0.26740  0.72230  Biso   1.000  O
  O23      1.0000 0.00370  0.30025  0.77661  Biso   1.000  O
  O24      1.0000 0.76430  0.35651  0.81844  Biso   1.000  O
  O25      1.0000 0.94650  0.40324  0.82744  Biso   1.000  O
  O26      1.0000 0.56370  0.16321  0.16518  Biso   1.000  O
  O27      1.0000 0.66210  0.12062  0.22451  Biso   1.000  O
  O28      1.0000 0.19500  0.16790  0.16820  Biso   1.000  O
  O29      1.0000 0.09670  0.13007  0.23002  Biso   1.000  O
  O30      1.0000 0.38550  0.23540  0.12380  Biso   1.000  O
  O31      1.0000 0.58360  0.01580  0.27190  Biso   1.000  O
  O32      1.0000 0.48050  0.96580  0.16220  Biso   1.000  O
  O33      1.0000 0.87790  0.40853  0.71936  Biso   1.000  O
  O34      1.0000 0.86680  0.39640  0.61450  Biso   1.000  O
  O35      1.0000 0.74760  0.47460  0.63060  Biso   1.000  O
  O36      1.0000 0.31020  0.51632  0.28144  Biso   1.000  O
  O37      1.0000 0.25340  0.45673  0.22233  Biso   1.000  O
  O38      1.0000 0.37490  0.23260  0.22230  Biso   1.000  O
  O39      1.0000 0.50370  0.19975  0.27661  Biso   1.000  O
  O40      1.0000 0.26430  0.14349  0.31844  Biso   1.000  O
  O41      1.0000 0.44650  0.09676  0.32744  Biso   1.000  O
  O42      1.0000 0.06370  0.33679  0.66518  Biso   1.000  O
  O43      1.0000 0.16210  0.37938  0.72451  Biso   1.000  O
  O44      1.0000 0.69500  0.33210  0.66820  Biso   1.000  O
  O45      1.0000 0.59670  0.36993  0.73002  Biso   1.000  O
  O46      1.0000 0.88550  0.26460  0.62380  Biso   1.000  O
  O47      1.0000 0.08360  0.48420  0.77190  Biso   1.000  O
  O48      1.0000 0.98050  0.53420  0.66220  Biso   1.000  O
  O49      1.0000 0.12210  0.59147  0.21936  Biso   1.000  O
  O50      1.0000 0.13320  0.60360  0.11450  Biso   1.000  O
  O51      1.0000 0.25240  0.52540  0.13060  Biso   1.000  O
  O52      1.0000 0.68980  0.48368  0.78144  Biso   1.000  O
  O53      1.0000 0.74660  0.54327  0.72233  Biso   1.000  O
  O54      1.0000 0.62510  0.76740  0.72230  Biso   1.000  O
  O55      1.0000 0.49630  0.80025  0.77661  Biso   1.000  O
  O56      1.0000 0.73570  0.85651  0.81844  Biso   1.000  O
  O57      1.0000 0.55350  0.90324  0.82744  Biso   1.000  O
  O58      1.0000 0.93630  0.66321  0.16518  Biso   1.000  O
  O59      1.0000 0.83790  0.62062  0.22451  Biso   1.000  O
  O60      1.0000 0.30500  0.66790  0.16820  Biso   1.000  O
  O61      1.0000 0.40330  0.63007  0.23002  Biso   1.000  O
  O62      1.0000 0.11450  0.73540  0.12380  Biso   1.000  O
  O63      1.0000 0.91640  0.51580  0.27190  Biso   1.000  O
  O64      1.0000 0.01950  0.46580  0.16220  Biso   1.000  O
