data_image0
_cell_length_a       9.479
_cell_length_b       9.479
_cell_length_c       16.3869
_cell_angle_alpha    88.6422
_cell_angle_beta     88.6422
_cell_angle_gamma    83.2092

_symmetry_space_group_name_H-M    P 1
_symmetry_int_tables_number       1

loop_
  _symmetry_equiv_pos_as_xyz
  'x, y, z'

loop_
  _atom_site_label
  _atom_site_occupancy
  _atom_site_fract_x
  _atom_site_fract_y
  _atom_site_fract_z
  _atom_site_thermal_displace_type
  _atom_site_B_iso_or_equiv
  _atom_site_type_symbol
  Zn1      1.0000 0.00000  0.00000  0.50000  Biso   1.000  Zn
  Zn2      1.0000 0.00000  0.00000  0.00000  Biso   1.000  Zn
  Cu1      1.0000 0.13631  0.49227  0.50206  Biso   1.000  Cu
  Cu2      1.0000 0.50773  0.86369  0.99794  Biso   1.000  Cu
  Cu3      1.0000 0.86369  0.50773  0.49794  Biso   1.000  Cu
  Cu4      1.0000 0.49227  0.13631  0.00206  Biso   1.000  Cu
  Cu5      1.0000 0.36396  0.63604  0.75000  Biso   1.000  Cu
  Cu6      1.0000 0.63604  0.36396  0.25000  Biso   1.000  Cu
  Cu7      1.0000 0.39785  0.60215  0.25000  Biso   1.000  Cu
  Cu8      1.0000 0.60215  0.39785  0.75000  Biso   1.000  Cu
  C1       1.0000 0.28250  0.57050  0.66030  Biso   1.000  C
  C2       1.0000 0.04210  0.31730  0.51110  Biso   1.000  C
  C3       1.0000 0.30600  0.53660  0.33990  Biso   1.000  C
  C4       1.0000 0.08620  0.11060  0.33760  Biso   1.000  C
  C5       1.0000 0.26750  0.00570  0.24300  Biso   1.000  C
  C6       1.0000 0.14330  0.24970  0.21790  Biso   1.000  C
  C7       1.0000 0.42950  0.71750  0.83970  Biso   1.000  C
  C8       1.0000 0.68270  0.95790  0.98890  Biso   1.000  C
  C9       1.0000 0.46340  0.69400  0.16010  Biso   1.000  C
  C10      1.0000 0.88940  0.91380  0.16240  Biso   1.000  C
  C11      1.0000 0.99430  0.73250  0.25700  Biso   1.000  C
  C12      1.0000 0.75030  0.85670  0.28210  Biso   1.000  C
  C13      1.0000 0.71750  0.42950  0.33970  Biso   1.000  C
  C14      1.0000 0.95790  0.68270  0.48890  Biso   1.000  C
  C15      1.0000 0.69400  0.46340  0.66010  Biso   1.000  C
  C16      1.0000 0.91380  0.88940  0.66240  Biso   1.000  C
  C17      1.0000 0.73250  0.99430  0.75700  Biso   1.000  C
  C18      1.0000 0.85670  0.75030  0.78210  Biso   1.000  C
  C19      1.0000 0.57050  0.28250  0.16030  Biso   1.000  C
  C20      1.0000 0.31730  0.04210  0.01110  Biso   1.000  C
  C21      1.0000 0.53660  0.30600  0.83990  Biso   1.000  C
  C22      1.0000 0.11060  0.08620  0.83760  Biso   1.000  C
  C23      1.0000 0.00570  0.26750  0.74300  Biso   1.000  C
  C24      1.0000 0.24970  0.14330  0.71790  Biso   1.000  C
  N1       1.0000 0.22940  0.54240  0.60220  Biso   1.000  N
  N2       1.0000 0.02660  0.20220  0.51450  Biso   1.000  N
  N3       1.0000 0.24400  0.51560  0.39880  Biso   1.000  N
  N4       1.0000 0.16290  0.12130  0.26990  Biso   1.000  N
  N5       1.0000 0.45760  0.77060  0.89780  Biso   1.000  N
  N6       1.0000 0.79780  0.97340  0.98550  Biso   1.000  N
  N7       1.0000 0.48440  0.75600  0.10120  Biso   1.000  N
  N8       1.0000 0.87870  0.83710  0.23010  Biso   1.000  N
  N9       1.0000 0.77060  0.45760  0.39780  Biso   1.000  N
  N10      1.0000 0.97340  0.79780  0.48550  Biso   1.000  N
  N11      1.0000 0.75600  0.48440  0.60120  Biso   1.000  N
  N12      1.0000 0.83710  0.87870  0.73010  Biso   1.000  N
  N13      1.0000 0.54240  0.22940  0.10220  Biso   1.000  N
  N14      1.0000 0.20220  0.02660  0.01450  Biso   1.000  N
  N15      1.0000 0.51560  0.24400  0.89880  Biso   1.000  N
  N16      1.0000 0.12130  0.16290  0.76990  Biso   1.000  N
  O1       1.0000 0.09790  0.00430  0.38310  Biso   1.000  O
  O2       1.0000 0.99570  0.90210  0.11690  Biso   1.000  O
  O3       1.0000 0.90210  0.99570  0.61690  Biso   1.000  O
  O4       1.0000 0.00430  0.09790  0.88310  Biso   1.000  O
