data_image0
_cell_length_a       16.642
_cell_length_b       19.545
_cell_length_c       22.6601
_cell_angle_alpha    115.548
_cell_angle_beta     90.6469
_cell_angle_gamma    90

_symmetry_space_group_name_H-M    P 1
_symmetry_int_tables_number       1

loop_
  _symmetry_equiv_pos_as_xyz
  'x, y, z'

loop_
  _atom_site_label
  _atom_site_occupancy
  _atom_site_fract_x
  _atom_site_fract_y
  _atom_site_fract_z
  _atom_site_thermal_displace_type
  _atom_site_B_iso_or_equiv
  _atom_site_type_symbol
  Cu1      1.0000 0.14236  0.09817  0.77472  Biso   1.000  Cu
  Cu2      1.0000 0.62019  0.09010  0.72996  Biso   1.000  Cu
  Cu3      1.0000 0.40258  0.90482  0.74154  Biso   1.000  Cu
  Cu4      1.0000 0.35764  0.32345  0.22528  Biso   1.000  Cu
  Cu5      1.0000 0.87981  0.36014  0.27004  Biso   1.000  Cu
  Cu6      1.0000 0.09742  0.16328  0.25846  Biso   1.000  Cu
  Cu7      1.0000 0.85764  0.90183  0.22528  Biso   1.000  Cu
  Cu8      1.0000 0.37981  0.90990  0.27004  Biso   1.000  Cu
  Cu9      1.0000 0.59742  0.09518  0.25846  Biso   1.000  Cu
  Cu10     1.0000 0.64236  0.67655  0.77472  Biso   1.000  Cu
  Cu11     1.0000 0.12019  0.63986  0.72996  Biso   1.000  Cu
  Cu12     1.0000 0.90258  0.83672  0.74154  Biso   1.000  Cu
  H1       1.0000 0.29840  0.84200  0.35280  Biso   1.000  H
  H2       1.0000 0.25020  0.88010  0.45600  Biso   1.000  H
  H3       1.0000 0.31390  0.09280  0.49540  Biso   1.000  H
  H4       1.0000 0.35970  0.04760  0.38940  Biso   1.000  H
  H5       1.0000 0.12740  0.96990  0.64460  Biso   1.000  H
  H6       1.0000 0.17050  0.92830  0.53920  Biso   1.000  H
  H7       1.0000 0.30980  0.11510  0.59980  Biso   1.000  H
  H8       1.0000 0.25930  0.15120  0.70180  Biso   1.000  H
  H9       1.0000 0.20670  0.56430  0.79520  Biso   1.000  H
  H10      1.0000 0.21010  0.45590  0.81060  Biso   1.000  H
  H11      1.0000 0.00420  0.39250  0.70720  Biso   1.000  H
  H12      1.0000 0.00770  0.50160  0.69400  Biso   1.000  H
  H13      1.0000 0.17370  0.26240  0.86040  Biso   1.000  H
  H14      1.0000 0.16880  0.37620  0.85220  Biso   1.000  H
  H15      1.0000 0.04770  0.27280  0.68260  Biso   1.000  H
  H16      1.0000 0.05650  0.16260  0.69280  Biso   1.000  H
  H17      1.0000 0.02470  0.36120  0.20200  Biso   1.000  H
  H18      1.0000 0.08390  0.30200  0.09900  Biso   1.000  H
  H19      1.0000 0.89200  0.16430  0.03780  Biso   1.000  H
  H20      1.0000 0.84160  0.22600  0.14160  Biso   1.000  H
  H21      1.0000 0.53800  0.88610  0.81580  Biso   1.000  H
  H22      1.0000 0.58610  0.92970  0.92060  Biso   1.000  H
  H23      1.0000 0.37540  0.02970  0.98160  Biso   1.000  H
  H24      1.0000 0.33770  0.98920  0.87700  Biso   1.000  H
  H25      1.0000 0.19800  0.15410  0.91400  Biso   1.000  H
  H26      1.0000 0.14690  0.20210  0.01720  Biso   1.000  H
  H27      1.0000 0.92670  0.16750  0.93820  Biso   1.000  H
  H28      1.0000 0.98380  0.12410  0.83880  Biso   1.000  H
  H29      1.0000 0.23520  0.77320  0.64840  Biso   1.000  H
  H30      1.0000 0.32670  0.75200  0.64400  Biso   1.000  H
  H31      1.0000 0.26580  0.88500  0.64060  Biso   1.000  H
  H32      1.0000 0.30110  0.81610  0.58000  Biso   1.000  H
  H33      1.0000 0.41040  0.94070  0.59580  Biso   1.000  H
  H34      1.0000 0.34880  0.97990  0.65280  Biso   1.000  H
  H35      1.0000 0.48540  0.84820  0.58640  Biso   1.000  H
  H36      1.0000 0.42650  0.78000  0.57100  Biso   1.000  H
  H37      1.0000 0.36330  0.75870  0.74400  Biso   1.000  H
  H38      1.0000 0.32300  0.81490  0.80840  Biso   1.000  H
  H39      1.0000 0.17860  0.86010  0.73400  Biso   1.000  H
  H40      1.0000 0.21610  0.88710  0.80420  Biso   1.000  H
  H41      1.0000 0.20160  0.48920  0.64720  Biso   1.000  H
  H42      1.0000 0.24980  0.42410  0.54400  Biso   1.000  H
  H43      1.0000 0.18610  0.59740  0.50460  Biso   1.000  H
  H44      1.0000 0.14030  0.65820  0.61060  Biso   1.000  H
  H45      1.0000 0.37260  0.32530  0.35540  Biso   1.000  H
  H46      1.0000 0.32950  0.38910  0.46080  Biso   1.000  H
  H47      1.0000 0.19020  0.51530  0.40020  Biso   1.000  H
  H48      1.0000 0.24070  0.44940  0.29820  Biso   1.000  H
  H49      1.0000 0.29330  0.76910  0.20480  Biso   1.000  H
  H50      1.0000 0.28990  0.64530  0.18940  Biso   1.000  H
  H51      1.0000 0.49580  0.68530  0.29280  Biso   1.000  H
  H52      1.0000 0.49230  0.80760  0.30600  Biso   1.000  H
  H53      1.0000 0.32630  0.40200  0.13960  Biso   1.000  H
  H54      1.0000 0.33120  0.52400  0.14780  Biso   1.000  H
  H55      1.0000 0.45230  0.59020  0.31740  Biso   1.000  H
  H56      1.0000 0.44350  0.46980  0.30720  Biso   1.000  H
  H57      1.0000 0.47530  0.15920  0.79800  Biso   1.000  H
  H58      1.0000 0.41610  0.20300  0.90100  Biso   1.000  H
  H59      1.0000 0.60800  0.12650  0.96220  Biso   1.000  H
  H60      1.0000 0.65840  0.08440  0.85840  Biso   1.000  H
  H61      1.0000 0.96200  0.07030  0.18420  Biso   1.000  H
  H62      1.0000 0.91390  0.00910  0.07940  Biso   1.000  H
  H63      1.0000 0.12460  0.04810  0.01840  Biso   1.000  H
  H64      1.0000 0.16230  0.11220  0.12300  Biso   1.000  H
  H65      1.0000 0.30200  0.24010  0.08600  Biso   1.000  H
  H66      1.0000 0.35310  0.18490  0.98280  Biso   1.000  H
  H67      1.0000 0.57330  0.22930  0.06180  Biso   1.000  H
  H68      1.0000 0.51620  0.28530  0.16120  Biso   1.000  H
  H69      1.0000 0.26480  0.12480  0.35160  Biso   1.000  H
  H70      1.0000 0.17330  0.10800  0.35600  Biso   1.000  H
  H71      1.0000 0.23420  0.24440  0.35940  Biso   1.000  H
  H72      1.0000 0.19890  0.23610  0.42000  Biso   1.000  H
  H73      1.0000 0.08960  0.34490  0.40420  Biso   1.000  H
  H74      1.0000 0.15120  0.32710  0.34720  Biso   1.000  H
  H75      1.0000 0.01460  0.26180  0.41360  Biso   1.000  H
  H76      1.0000 0.07350  0.20900  0.42900  Biso   1.000  H
  H77      1.0000 0.13670  0.01470  0.25600  Biso   1.000  H
  H78      1.0000 0.17700  0.00650  0.19160  Biso   1.000  H
  H79      1.0000 0.32140  0.12610  0.26600  Biso   1.000  H
  H80      1.0000 0.28390  0.08290  0.19580  Biso   1.000  H
  H81      1.0000 0.70160  0.15800  0.64720  Biso   1.000  H
  H82      1.0000 0.74980  0.11990  0.54400  Biso   1.000  H
  H83      1.0000 0.68610  0.90720  0.50460  Biso   1.000  H
  H84      1.0000 0.64030  0.95240  0.61060  Biso   1.000  H
  H85      1.0000 0.87260  0.03010  0.35540  Biso   1.000  H
  H86      1.0000 0.82950  0.07170  0.46080  Biso   1.000  H
  H87      1.0000 0.69020  0.88490  0.40020  Biso   1.000  H
  H88      1.0000 0.74070  0.84880  0.29820  Biso   1.000  H
  H89      1.0000 0.79330  0.43570  0.20480  Biso   1.000  H
  H90      1.0000 0.78990  0.54410  0.18940  Biso   1.000  H
  H91      1.0000 0.99580  0.60750  0.29280  Biso   1.000  H
  H92      1.0000 0.99230  0.49840  0.30600  Biso   1.000  H
  H93      1.0000 0.82630  0.73760  0.13960  Biso   1.000  H
  H94      1.0000 0.83120  0.62380  0.14780  Biso   1.000  H
  H95      1.0000 0.95230  0.72720  0.31740  Biso   1.000  H
  H96      1.0000 0.94350  0.83740  0.30720  Biso   1.000  H
  H97      1.0000 0.97530  0.63880  0.79800  Biso   1.000  H
  H98      1.0000 0.91610  0.69800  0.90100  Biso   1.000  H
  H99      1.0000 0.10800  0.83570  0.96220  Biso   1.000  H
  H100     1.0000 0.15840  0.77400  0.85840  Biso   1.000  H
  H101     1.0000 0.46200  0.11390  0.18420  Biso   1.000  H
  H102     1.0000 0.41390  0.07030  0.07940  Biso   1.000  H
  H103     1.0000 0.62460  0.97030  0.01840  Biso   1.000  H
  H104     1.0000 0.66230  0.01080  0.12300  Biso   1.000  H
  H105     1.0000 0.80200  0.84590  0.08600  Biso   1.000  H
  H106     1.0000 0.85310  0.79790  0.98280  Biso   1.000  H
  H107     1.0000 0.07330  0.83250  0.06180  Biso   1.000  H
  H108     1.0000 0.01620  0.87590  0.16120  Biso   1.000  H
  H109     1.0000 0.76480  0.22680  0.35160  Biso   1.000  H
  H110     1.0000 0.67330  0.24800  0.35600  Biso   1.000  H
  H111     1.0000 0.73420  0.11500  0.35940  Biso   1.000  H
  H112     1.0000 0.69890  0.18390  0.42000  Biso   1.000  H
  H113     1.0000 0.58960  0.05930  0.40420  Biso   1.000  H
  H114     1.0000 0.65120  0.02010  0.34720  Biso   1.000  H
  H115     1.0000 0.51460  0.15180  0.41360  Biso   1.000  H
  H116     1.0000 0.57350  0.22000  0.42900  Biso   1.000  H
  H117     1.0000 0.63670  0.24130  0.25600  Biso   1.000  H
  H118     1.0000 0.67700  0.18510  0.19160  Biso   1.000  H
  H119     1.0000 0.82140  0.13990  0.26600  Biso   1.000  H
  H120     1.0000 0.78390  0.11290  0.19580  Biso   1.000  H
  H121     1.0000 0.79840  0.51080  0.35280  Biso   1.000  H
  H122     1.0000 0.75020  0.57590  0.45600  Biso   1.000  H
  H123     1.0000 0.81390  0.40260  0.49540  Biso   1.000  H
  H124     1.0000 0.85970  0.34180  0.38940  Biso   1.000  H
  H125     1.0000 0.62740  0.67470  0.64460  Biso   1.000  H
  H126     1.0000 0.67050  0.61090  0.53920  Biso   1.000  H
  H127     1.0000 0.80980  0.48470  0.59980  Biso   1.000  H
  H128     1.0000 0.75930  0.55060  0.70180  Biso   1.000  H
  H129     1.0000 0.70670  0.23090  0.79520  Biso   1.000  H
  H130     1.0000 0.71010  0.35470  0.81060  Biso   1.000  H
  H131     1.0000 0.50420  0.31470  0.70720  Biso   1.000  H
  H132     1.0000 0.50770  0.19240  0.69400  Biso   1.000  H
  H133     1.0000 0.67370  0.59800  0.86040  Biso   1.000  H
  H134     1.0000 0.66880  0.47600  0.85220  Biso   1.000  H
  H135     1.0000 0.54770  0.40980  0.68260  Biso   1.000  H
  H136     1.0000 0.55650  0.53020  0.69280  Biso   1.000  H
  H137     1.0000 0.52470  0.84080  0.20200  Biso   1.000  H
  H138     1.0000 0.58390  0.79700  0.09900  Biso   1.000  H
  H139     1.0000 0.39200  0.87350  0.03780  Biso   1.000  H
  H140     1.0000 0.34160  0.91560  0.14160  Biso   1.000  H
  H141     1.0000 0.03800  0.92970  0.81580  Biso   1.000  H
  H142     1.0000 0.08610  0.99090  0.92060  Biso   1.000  H
  H143     1.0000 0.87540  0.95190  0.98160  Biso   1.000  H
  H144     1.0000 0.83770  0.88780  0.87700  Biso   1.000  H
  H145     1.0000 0.69800  0.75990  0.91400  Biso   1.000  H
  H146     1.0000 0.64690  0.81510  0.01720  Biso   1.000  H
  H147     1.0000 0.42670  0.77070  0.93820  Biso   1.000  H
  H148     1.0000 0.48380  0.71470  0.83880  Biso   1.000  H
  H149     1.0000 0.73520  0.87520  0.64840  Biso   1.000  H
  H150     1.0000 0.82670  0.89200  0.64400  Biso   1.000  H
  H151     1.0000 0.76580  0.75560  0.64060  Biso   1.000  H
  H152     1.0000 0.80110  0.76390  0.58000  Biso   1.000  H
  H153     1.0000 0.91040  0.65510  0.59580  Biso   1.000  H
  H154     1.0000 0.84880  0.67290  0.65280  Biso   1.000  H
  H155     1.0000 0.98540  0.73820  0.58640  Biso   1.000  H
  H156     1.0000 0.92650  0.79100  0.57100  Biso   1.000  H
  H157     1.0000 0.86330  0.98530  0.74400  Biso   1.000  H
  H158     1.0000 0.82300  0.99350  0.80840  Biso   1.000  H
  H159     1.0000 0.67860  0.87390  0.73400  Biso   1.000  H
  H160     1.0000 0.71610  0.91710  0.80420  Biso   1.000  H
  C1       1.0000 0.30150  0.89310  0.38180  Biso   1.000  C
  C2       1.0000 0.27230  0.91570  0.44380  Biso   1.000  C
  C3       1.0000 0.27570  0.99079  0.48798  Biso   1.000  C
  C4       1.0000 0.30980  0.04146  0.46732  Biso   1.000  C
  C5       1.0000 0.33750  0.01350  0.40340  Biso   1.000  C
  C6       1.0000 0.16400  0.99959  0.63498  Biso   1.000  C
  C7       1.0000 0.18950  0.97416  0.57152  Biso   1.000  C
  C8       1.0000 0.24440  0.01810  0.55600  Biso   1.000  C
  C9       1.0000 0.27170  0.08490  0.60720  Biso   1.000  C
  C10      1.0000 0.24190  0.10557  0.66834  Biso   1.000  C
  C11      1.0000 0.16560  0.52890  0.77720  Biso   1.000  C
  C12      1.0000 0.16830  0.46390  0.78680  Biso   1.000  C
  C13      1.0000 0.10730  0.41031  0.76002  Biso   1.000  C
  C14      1.0000 0.04650  0.42660  0.72540  Biso   1.000  C
  C15      1.0000 0.04850  0.49200  0.71780  Biso   1.000  C
  C16      1.0000 0.14960  0.26450  0.82400  Biso   1.000  C
  C17      1.0000 0.14580  0.33330  0.81920  Biso   1.000  C
  C18      1.0000 0.10920  0.33924  0.76728  Biso   1.000  C
  C19      1.0000 0.07420  0.27190  0.71860  Biso   1.000  C
  C20      1.0000 0.08000  0.20620  0.72500  Biso   1.000  C
  C21      1.0000 0.99780  0.32145  0.16850  Biso   1.000  C
  C22      1.0000 0.03410  0.28540  0.10600  Biso   1.000  C
  C23      1.0000 0.99600  0.22720  0.05700  Biso   1.000  C
  C24      1.0000 0.92060  0.20390  0.07000  Biso   1.000  C
  C25      1.0000 0.89060  0.24210  0.13260  Biso   1.000  C
  C26      1.0000 0.50540  0.91730  0.84980  Biso   1.000  C
  C27      1.0000 0.53430  0.94240  0.91300  Biso   1.000  C
  C28      1.0000 0.48650  0.98630  0.96520  Biso   1.000  C
  C29      1.0000 0.41120  0.00170  0.94880  Biso   1.000  C
  C30      1.0000 0.38890  0.97650  0.88580  Biso   1.000  C
  C31      1.0000 0.14260  0.15740  0.91920  Biso   1.000  C
  C32      1.0000 0.11190  0.18630  0.98140  Biso   1.000  C
  C33      1.0000 0.03090  0.19230  0.99140  Biso   1.000  C
  C34      1.0000 0.98240  0.16640  0.93500  Biso   1.000  C
  C35      1.0000 0.01740  0.13950  0.87540  Biso   1.000  C
  C36      1.0000 0.28910  0.79392  0.65964  Biso   1.000  C
  C37      1.0000 0.30540  0.84489  0.62718  Biso   1.000  C
  C38      1.0000 0.39770  0.95032  0.64044  Biso   1.000  C
  C39      1.0000 0.46630  0.99349  0.68638  Biso   1.000  C
  C40      1.0000 0.45180  0.82340  0.60620  Biso   1.000  C
  C41      1.0000 0.50440  0.79560  0.64560  Biso   1.000  C
  C42      1.0000 0.31350  0.78463  0.76206  Biso   1.000  C
  C43      1.0000 0.25150  0.72443  0.75506  Biso   1.000  C
  C44      1.0000 0.22510  0.88460  0.76100  Biso   1.000  C
  C45      1.0000 0.23170  0.96506  0.76692  Biso   1.000  C
  C46      1.0000 0.19850  0.51130  0.61820  Biso   1.000  C
  C47      1.0000 0.22770  0.47190  0.55620  Biso   1.000  C
  C48      1.0000 0.22430  0.50281  0.51202  Biso   1.000  C
  C49      1.0000 0.19020  0.57414  0.53268  Biso   1.000  C
  C50      1.0000 0.16250  0.61010  0.59660  Biso   1.000  C
  C51      1.0000 0.33600  0.36461  0.36502  Biso   1.000  C
  C52      1.0000 0.31050  0.40264  0.42848  Biso   1.000  C
  C53      1.0000 0.25560  0.46210  0.44400  Biso   1.000  C
  C54      1.0000 0.22830  0.47770  0.39280  Biso   1.000  C
  C55      1.0000 0.25810  0.43723  0.33166  Biso   1.000  C
  C56      1.0000 0.33440  0.75170  0.22280  Biso   1.000  C
  C57      1.0000 0.33170  0.67710  0.21320  Biso   1.000  C
  C58      1.0000 0.39270  0.65029  0.23998  Biso   1.000  C
  C59      1.0000 0.45350  0.70120  0.27460  Biso   1.000  C
  C60      1.0000 0.45150  0.77420  0.28220  Biso   1.000  C
  C61      1.0000 0.35040  0.44050  0.17600  Biso   1.000  C
  C62      1.0000 0.35420  0.51410  0.18080  Biso   1.000  C
  C63      1.0000 0.39080  0.57196  0.23272  Biso   1.000  C
  C64      1.0000 0.42580  0.55330  0.28140  Biso   1.000  C
  C65      1.0000 0.42000  0.48120  0.27500  Biso   1.000  C
  C66      1.0000 0.50220  0.15295  0.83150  Biso   1.000  C
  C67      1.0000 0.46590  0.17940  0.89400  Biso   1.000  C
  C68      1.0000 0.50400  0.17020  0.94300  Biso   1.000  C
  C69      1.0000 0.57940  0.13390  0.93000  Biso   1.000  C
  C70      1.0000 0.60940  0.10950  0.86740  Biso   1.000  C
  C71      1.0000 0.99460  0.06750  0.15020  Biso   1.000  C
  C72      1.0000 0.96570  0.02940  0.08700  Biso   1.000  C
  C73      1.0000 0.01350  0.02110  0.03480  Biso   1.000  C
  C74      1.0000 0.08880  0.05290  0.05120  Biso   1.000  C
  C75      1.0000 0.11110  0.09070  0.11420  Biso   1.000  C
  C76      1.0000 0.35740  0.23820  0.08080  Biso   1.000  C
  C77      1.0000 0.38810  0.20490  0.01860  Biso   1.000  C
  C78      1.0000 0.46910  0.20090  0.00860  Biso   1.000  C
  C79      1.0000 0.51760  0.23140  0.06500  Biso   1.000  C
  C80      1.0000 0.48260  0.26410  0.12460  Biso   1.000  C
  C81      1.0000 0.21090  0.13428  0.34036  Biso   1.000  C
  C82      1.0000 0.19460  0.21771  0.37282  Biso   1.000  C
  C83      1.0000 0.10230  0.30988  0.35956  Biso   1.000  C
  C84      1.0000 0.03370  0.30711  0.31362  Biso   1.000  C
  C85      1.0000 0.04820  0.21720  0.39380  Biso   1.000  C
  C86      1.0000 0.99560  0.15000  0.35440  Biso   1.000  C
  C87      1.0000 0.18650  0.02257  0.23794  Biso   1.000  C
  C88      1.0000 0.24850  0.96937  0.24494  Biso   1.000  C
  C89      1.0000 0.27490  0.12360  0.23900  Biso   1.000  C
  C90      1.0000 0.26830  0.19814  0.23308  Biso   1.000  C
  C91      1.0000 0.69850  0.10690  0.61820  Biso   1.000  C
  C92      1.0000 0.72770  0.08430  0.55620  Biso   1.000  C
  C93      1.0000 0.72430  0.00921  0.51202  Biso   1.000  C
  C94      1.0000 0.69020  0.95854  0.53268  Biso   1.000  C
  C95      1.0000 0.66250  0.98650  0.59660  Biso   1.000  C
  C96      1.0000 0.83600  0.00041  0.36502  Biso   1.000  C
  C97      1.0000 0.81050  0.02584  0.42848  Biso   1.000  C
  C98      1.0000 0.75560  0.98190  0.44400  Biso   1.000  C
  C99      1.0000 0.72830  0.91510  0.39280  Biso   1.000  C
  C100     1.0000 0.75810  0.89443  0.33166  Biso   1.000  C
  C101     1.0000 0.83440  0.47110  0.22280  Biso   1.000  C
  C102     1.0000 0.83170  0.53610  0.21320  Biso   1.000  C
  C103     1.0000 0.89270  0.58969  0.23998  Biso   1.000  C
  C104     1.0000 0.95350  0.57340  0.27460  Biso   1.000  C
  C105     1.0000 0.95150  0.50800  0.28220  Biso   1.000  C
  C106     1.0000 0.85040  0.73550  0.17600  Biso   1.000  C
  C107     1.0000 0.85420  0.66670  0.18080  Biso   1.000  C
  C108     1.0000 0.89080  0.66076  0.23272  Biso   1.000  C
  C109     1.0000 0.92580  0.72810  0.28140  Biso   1.000  C
  C110     1.0000 0.92000  0.79380  0.27500  Biso   1.000  C
  C111     1.0000 0.00220  0.67855  0.83150  Biso   1.000  C
  C112     1.0000 0.96590  0.71460  0.89400  Biso   1.000  C
  C113     1.0000 0.00400  0.77280  0.94300  Biso   1.000  C
  C114     1.0000 0.07940  0.79610  0.93000  Biso   1.000  C
  C115     1.0000 0.10940  0.75790  0.86740  Biso   1.000  C
  C116     1.0000 0.49460  0.08270  0.15020  Biso   1.000  C
  C117     1.0000 0.46570  0.05760  0.08700  Biso   1.000  C
  C118     1.0000 0.51350  0.01370  0.03480  Biso   1.000  C
  C119     1.0000 0.58880  0.99830  0.05120  Biso   1.000  C
  C120     1.0000 0.61110  0.02350  0.11420  Biso   1.000  C
  C121     1.0000 0.85740  0.84260  0.08080  Biso   1.000  C
  C122     1.0000 0.88810  0.81370  0.01860  Biso   1.000  C
  C123     1.0000 0.96910  0.80770  0.00860  Biso   1.000  C
  C124     1.0000 0.01760  0.83360  0.06500  Biso   1.000  C
  C125     1.0000 0.98260  0.86050  0.12460  Biso   1.000  C
  C126     1.0000 0.71090  0.20608  0.34036  Biso   1.000  C
  C127     1.0000 0.69460  0.15511  0.37282  Biso   1.000  C
  C128     1.0000 0.60230  0.04968  0.35956  Biso   1.000  C
  C129     1.0000 0.53370  0.00651  0.31362  Biso   1.000  C
  C130     1.0000 0.54820  0.17660  0.39380  Biso   1.000  C
  C131     1.0000 0.49560  0.20440  0.35440  Biso   1.000  C
  C132     1.0000 0.68650  0.21537  0.23794  Biso   1.000  C
  C133     1.0000 0.74850  0.27557  0.24494  Biso   1.000  C
  C134     1.0000 0.77490  0.11540  0.23900  Biso   1.000  C
  C135     1.0000 0.76830  0.03494  0.23308  Biso   1.000  C
  C136     1.0000 0.80150  0.48870  0.38180  Biso   1.000  C
  C137     1.0000 0.77230  0.52810  0.44380  Biso   1.000  C
  C138     1.0000 0.77570  0.49719  0.48798  Biso   1.000  C
  C139     1.0000 0.80980  0.42586  0.46732  Biso   1.000  C
  C140     1.0000 0.83750  0.38990  0.40340  Biso   1.000  C
  C141     1.0000 0.66400  0.63539  0.63498  Biso   1.000  C
  C142     1.0000 0.68950  0.59736  0.57152  Biso   1.000  C
  C143     1.0000 0.74440  0.53790  0.55600  Biso   1.000  C
  C144     1.0000 0.77170  0.52230  0.60720  Biso   1.000  C
  C145     1.0000 0.74190  0.56277  0.66834  Biso   1.000  C
  C146     1.0000 0.66560  0.24830  0.77720  Biso   1.000  C
  C147     1.0000 0.66830  0.32290  0.78680  Biso   1.000  C
  C148     1.0000 0.60730  0.34971  0.76002  Biso   1.000  C
  C149     1.0000 0.54650  0.29880  0.72540  Biso   1.000  C
  C150     1.0000 0.54850  0.22580  0.71780  Biso   1.000  C
  C151     1.0000 0.64960  0.55950  0.82400  Biso   1.000  C
  C152     1.0000 0.64580  0.48590  0.81920  Biso   1.000  C
  C153     1.0000 0.60920  0.42804  0.76728  Biso   1.000  C
  C154     1.0000 0.57420  0.44670  0.71860  Biso   1.000  C
  C155     1.0000 0.58000  0.51880  0.72500  Biso   1.000  C
  C156     1.0000 0.49780  0.84705  0.16850  Biso   1.000  C
  C157     1.0000 0.53410  0.82060  0.10600  Biso   1.000  C
  C158     1.0000 0.49600  0.82980  0.05700  Biso   1.000  C
  C159     1.0000 0.42060  0.86610  0.07000  Biso   1.000  C
  C160     1.0000 0.39060  0.89050  0.13260  Biso   1.000  C
  C161     1.0000 0.00540  0.93250  0.84980  Biso   1.000  C
  C162     1.0000 0.03430  0.97060  0.91300  Biso   1.000  C
  C163     1.0000 0.98650  0.97890  0.96520  Biso   1.000  C
  C164     1.0000 0.91120  0.94710  0.94880  Biso   1.000  C
  C165     1.0000 0.88890  0.90930  0.88580  Biso   1.000  C
  C166     1.0000 0.64260  0.76180  0.91920  Biso   1.000  C
  C167     1.0000 0.61190  0.79510  0.98140  Biso   1.000  C
  C168     1.0000 0.53090  0.79910  0.99140  Biso   1.000  C
  C169     1.0000 0.48240  0.76860  0.93500  Biso   1.000  C
  C170     1.0000 0.51740  0.73590  0.87540  Biso   1.000  C
  C171     1.0000 0.78910  0.86572  0.65964  Biso   1.000  C
  C172     1.0000 0.80540  0.78229  0.62718  Biso   1.000  C
  C173     1.0000 0.89770  0.69012  0.64044  Biso   1.000  C
  C174     1.0000 0.96630  0.69289  0.68638  Biso   1.000  C
  C175     1.0000 0.95180  0.78280  0.60620  Biso   1.000  C
  C176     1.0000 0.00440  0.85000  0.64560  Biso   1.000  C
  C177     1.0000 0.81350  0.97743  0.76206  Biso   1.000  C
  C178     1.0000 0.75150  0.03063  0.75506  Biso   1.000  C
  C179     1.0000 0.72510  0.87640  0.76100  Biso   1.000  C
  C180     1.0000 0.73170  0.80186  0.76692  Biso   1.000  C
  N1       1.0000 0.33400  0.94127  0.36154  Biso   1.000  N
  N2       1.0000 0.18880  0.06360  0.68260  Biso   1.000  N
  N3       1.0000 0.10860  0.54371  0.74422  Biso   1.000  N
  N4       1.0000 0.11780  0.20071  0.77542  Biso   1.000  N
  N5       1.0000 0.92710  0.29978  0.17996  Biso   1.000  N
  N6       1.0000 0.43400  0.93516  0.83512  Biso   1.000  N
  N7       1.0000 0.09580  0.13366  0.86572  Biso   1.000  N
  N8       1.0000 0.38670  0.87817  0.64514  Biso   1.000  N
  N9       1.0000 0.29740  0.83716  0.73252  Biso   1.000  N
  N10      1.0000 0.16600  0.57973  0.63846  Biso   1.000  N
  N11      1.0000 0.31120  0.38100  0.31740  Biso   1.000  N
  N12      1.0000 0.39140  0.79949  0.25578  Biso   1.000  N
  N13      1.0000 0.38220  0.42529  0.22458  Biso   1.000  N
  N14      1.0000 0.57290  0.11982  0.82004  Biso   1.000  N
  N15      1.0000 0.06600  0.10004  0.16488  Biso   1.000  N
  N16      1.0000 0.40420  0.26794  0.13428  Biso   1.000  N
  N17      1.0000 0.11330  0.23303  0.35486  Biso   1.000  N
  N18      1.0000 0.20260  0.10464  0.26748  Biso   1.000  N
  N19      1.0000 0.66600  0.05873  0.63846  Biso   1.000  N
  N20      1.0000 0.81120  0.93640  0.31740  Biso   1.000  N
  N21      1.0000 0.89140  0.45629  0.25578  Biso   1.000  N
  N22      1.0000 0.88220  0.79929  0.22458  Biso   1.000  N
  N23      1.0000 0.07290  0.70022  0.82004  Biso   1.000  N
  N24      1.0000 0.56600  0.06484  0.16488  Biso   1.000  N
  N25      1.0000 0.90420  0.86634  0.13428  Biso   1.000  N
  N26      1.0000 0.61330  0.12183  0.35486  Biso   1.000  N
  N27      1.0000 0.70260  0.16284  0.26748  Biso   1.000  N
  N28      1.0000 0.83400  0.42027  0.36154  Biso   1.000  N
  N29      1.0000 0.68880  0.61900  0.68260  Biso   1.000  N
  N30      1.0000 0.60860  0.20051  0.74422  Biso   1.000  N
  N31      1.0000 0.61780  0.57471  0.77542  Biso   1.000  N
  N32      1.0000 0.42710  0.88018  0.17996  Biso   1.000  N
  N33      1.0000 0.93400  0.89996  0.83512  Biso   1.000  N
  N34      1.0000 0.59580  0.73206  0.86572  Biso   1.000  N
  N35      1.0000 0.88670  0.76697  0.64514  Biso   1.000  N
  N36      1.0000 0.79740  0.89536  0.73252  Biso   1.000  N
  O1       1.0000 0.48150  0.97701  0.73342  Biso   1.000  O
  O2       1.0000 0.50300  0.04406  0.67692  Biso   1.000  O
  O3       1.0000 0.48400  0.80579  0.70178  Biso   1.000  O
  O4       1.0000 0.56880  0.76660  0.62000  Biso   1.000  O
  O5       1.0000 0.18170  0.72943  0.73426  Biso   1.000  O
  O6       1.0000 0.27050  0.67474  0.77188  Biso   1.000  O
  O7       1.0000 0.29940  0.99206  0.76512  Biso   1.000  O
  O8       1.0000 0.16570  0.99900  0.77560  Biso   1.000  O
  O9       1.0000 0.01850  0.24359  0.26658  Biso   1.000  O
  O10      1.0000 0.99700  0.36714  0.32308  Biso   1.000  O
  O11      1.0000 0.01600  0.10401  0.29822  Biso   1.000  O
  O12      1.0000 0.93120  0.14660  0.38000  Biso   1.000  O
  O13      1.0000 0.31830  0.99517  0.26574  Biso   1.000  O
  O14      1.0000 0.22950  0.90286  0.22812  Biso   1.000  O
  O15      1.0000 0.20060  0.22694  0.23488  Biso   1.000  O
  O16      1.0000 0.33430  0.22340  0.22440  Biso   1.000  O
  O17      1.0000 0.51850  0.02299  0.26658  Biso   1.000  O
  O18      1.0000 0.49700  0.95594  0.32308  Biso   1.000  O
  O19      1.0000 0.51600  0.19421  0.29822  Biso   1.000  O
  O20      1.0000 0.43120  0.23340  0.38000  Biso   1.000  O
  O21      1.0000 0.81830  0.27057  0.26574  Biso   1.000  O
  O22      1.0000 0.72950  0.32526  0.22812  Biso   1.000  O
  O23      1.0000 0.70060  0.00794  0.23488  Biso   1.000  O
  O24      1.0000 0.83430  0.00100  0.22440  Biso   1.000  O
  O25      1.0000 0.98150  0.75641  0.73342  Biso   1.000  O
  O26      1.0000 0.00300  0.63286  0.67692  Biso   1.000  O
  O27      1.0000 0.98400  0.89599  0.70178  Biso   1.000  O
  O28      1.0000 0.06880  0.85340  0.62000  Biso   1.000  O
  O29      1.0000 0.68170  0.00483  0.73426  Biso   1.000  O
  O30      1.0000 0.77050  0.09714  0.77188  Biso   1.000  O
  O31      1.0000 0.79940  0.77306  0.76512  Biso   1.000  O
  O32      1.0000 0.66570  0.77660  0.77560  Biso   1.000  O
