data_image0
_cell_length_a       16.4166
_cell_length_b       16.4166
_cell_length_c       16.4166
_cell_angle_alpha    96.0643
_cell_angle_beta     116.563
_cell_angle_gamma    116.563

_symmetry_space_group_name_H-M    P 1
_symmetry_int_tables_number       1

loop_
  _symmetry_equiv_pos_as_xyz
  'x, y, z'

loop_
  _atom_site_label
  _atom_site_occupancy
  _atom_site_fract_x
  _atom_site_fract_y
  _atom_site_fract_z
  _atom_site_thermal_displace_type
  _atom_site_B_iso_or_equiv
  _atom_site_type_symbol
  H1       1.0000 0.50460  0.46150  0.19770  Biso   1.000  H
  H2       1.0000 0.44280  0.47420  0.30200  Biso   1.000  H
  H3       1.0000 0.53200  0.62690  0.42130  Biso   1.000  H
  H4       1.0000 0.68120  0.75910  0.44230  Biso   1.000  H
  Pb1      1.0000 0.82508  0.84658  0.33106  Biso   1.000  Pb
  C1       1.0000 0.68430  0.51640  0.00590  Biso   1.000  C
  C2       1.0000 0.69750  0.57510  0.09100  Biso   1.000  C
  C3       1.0000 0.76850  0.67520  0.14590  Biso   1.000  C
  C4       1.0000 0.67010  0.60850  0.20100  Biso   1.000  C
  C5       1.0000 0.84710  0.75960  0.13930  Biso   1.000  C
  C6       1.0000 0.62920  0.60540  0.26360  Biso   1.000  C
  C7       1.0000 0.53950  0.52130  0.24740  Biso   1.000  C
  C8       1.0000 0.50230  0.52920  0.30950  Biso   1.000  C
  C9       1.0000 0.55600  0.61980  0.38100  Biso   1.000  C
  C10      1.0000 0.64480  0.69910  0.39230  Biso   1.000  C
  N1       1.0000 0.63530  0.53300  0.12510  Biso   1.000  N
  N2       1.0000 0.75070  0.69470  0.21660  Biso   1.000  N
  N3       1.0000 0.68200  0.69540  0.33640  Biso   1.000  N
  O1       1.0000 0.61970  0.42790  0.96640  Biso   1.000  O
  O2       1.0000 0.74530  0.56450  0.97500  Biso   1.000  O
  O3       1.0000 0.86440  0.74520  0.07420  Biso   1.000  O
  O4       1.0000 0.89110  0.84310  0.20080  Biso   1.000  O
  H5       1.0000 0.99540  0.19310  0.95690  Biso   1.000  H
  H6       1.0000 0.05720  0.35920  0.03140  Biso   1.000  H
  H7       1.0000 0.96800  0.38930  0.09490  Biso   1.000  H
  H8       1.0000 0.81880  0.26110  0.07790  Biso   1.000  H
  Pb2      1.0000 0.67492  0.00598  0.02150  Biso   1.000  Pb
  C11      1.0000 0.81570  0.82160  0.83210  Biso   1.000  C
  C12      1.0000 0.80250  0.89350  0.87760  Biso   1.000  C
  C13      1.0000 0.73150  0.87740  0.90670  Biso   1.000  C
  C14      1.0000 0.82990  0.03090  0.93840  Biso   1.000  C
  C15      1.0000 0.65290  0.79220  0.91250  Biso   1.000  C
  C16      1.0000 0.87080  0.13440  0.97620  Biso   1.000  C
  C17      1.0000 0.96050  0.20790  0.98180  Biso   1.000  C
  C18      1.0000 0.99770  0.30720  0.02690  Biso   1.000  C
  C19      1.0000 0.94400  0.32500  0.06380  Biso   1.000  C
  C20      1.0000 0.85520  0.24750  0.05430  Biso   1.000  C
  N4       1.0000 0.86470  0.98980  0.89770  Biso   1.000  N
  N5       1.0000 0.74930  0.96590  0.94400  Biso   1.000  N
  N6       1.0000 0.81800  0.15440  0.01340  Biso   1.000  N
  O5       1.0000 0.88030  0.84670  0.80820  Biso   1.000  O
  O6       1.0000 0.75470  0.72970  0.81920  Biso   1.000  O
  O7       1.0000 0.63560  0.70980  0.88080  Biso   1.000  O
  O8       1.0000 0.60890  0.80970  0.95200  Biso   1.000  O
  H9       1.0000 0.73620  0.19770  0.19310  Biso   1.000  H
  H10      1.0000 0.82780  0.30200  0.35920  Biso   1.000  H
  H11      1.0000 0.79440  0.42130  0.38930  Biso   1.000  H
  H12      1.0000 0.68320  0.44230  0.26110  Biso   1.000  H
  Pb3      1.0000 0.48448  0.33106  0.00598  Biso   1.000  Pb
  C21      1.0000 0.48950  0.00590  0.82160  Biso   1.000  C
  C22      1.0000 0.51590  0.09100  0.89350  Biso   1.000  C
  C23      1.0000 0.47070  0.14590  0.87740  Biso   1.000  C
  C24      1.0000 0.59250  0.20100  0.03090  Biso   1.000  C
  C25      1.0000 0.37970  0.13930  0.79220  Biso   1.000  C
  C26      1.0000 0.65820  0.26360  0.13440  Biso   1.000  C
  C27      1.0000 0.72610  0.24740  0.20790  Biso   1.000  C
  C28      1.0000 0.78030  0.30950  0.30720  Biso   1.000  C
  C29      1.0000 0.76120  0.38100  0.32500  Biso   1.000  C
  C30      1.0000 0.69320  0.39230  0.24750  Biso   1.000  C
  N7       1.0000 0.59210  0.12510  0.98980  Biso   1.000  N
  N8       1.0000 0.52190  0.21660  0.96590  Biso   1.000  N
  N9       1.0000 0.64100  0.33640  0.15440  Biso   1.000  N
  O9       1.0000 0.53850  0.96640  0.84670  Biso   1.000  O
  O10      1.0000 0.41050  0.97500  0.72970  Biso   1.000  O
  O11      1.0000 0.32900  0.07420  0.70980  Biso   1.000  O
  O12      1.0000 0.35770  0.20080  0.80970  Biso   1.000  O
  H13      1.0000 0.76380  0.95690  0.46150  Biso   1.000  H
  H14      1.0000 0.67220  0.03140  0.47420  Biso   1.000  H
  H15      1.0000 0.70560  0.09490  0.62690  Biso   1.000  H
  H16      1.0000 0.81680  0.07790  0.75910  Biso   1.000  H
  Pb4      1.0000 0.01552  0.02150  0.84658  Biso   1.000  Pb
  C31      1.0000 0.01050  0.83210  0.51640  Biso   1.000  C
  C32      1.0000 0.98410  0.87760  0.57510  Biso   1.000  C
  C33      1.0000 0.02930  0.90670  0.67520  Biso   1.000  C
  C34      1.0000 0.90750  0.93840  0.60850  Biso   1.000  C
  C35      1.0000 0.12030  0.91250  0.75960  Biso   1.000  C
  C36      1.0000 0.84180  0.97620  0.60540  Biso   1.000  C
  C37      1.0000 0.77390  0.98180  0.52130  Biso   1.000  C
  C38      1.0000 0.71970  0.02690  0.52920  Biso   1.000  C
  C39      1.0000 0.73880  0.06380  0.61980  Biso   1.000  C
  C40      1.0000 0.80680  0.05430  0.69910  Biso   1.000  C
  N10      1.0000 0.90790  0.89770  0.53300  Biso   1.000  N
  N11      1.0000 0.97810  0.94400  0.69470  Biso   1.000  N
  N12      1.0000 0.85900  0.01340  0.69540  Biso   1.000  N
  O13      1.0000 0.96150  0.80820  0.42790  Biso   1.000  O
  O14      1.0000 0.08950  0.81920  0.56450  Biso   1.000  O
  O15      1.0000 0.17100  0.88080  0.74520  Biso   1.000  O
  O16      1.0000 0.14230  0.95200  0.84310  Biso   1.000  O
  H17      1.0000 0.49540  0.53850  0.80230  Biso   1.000  H
  H18      1.0000 0.55720  0.52580  0.69800  Biso   1.000  H
  H19      1.0000 0.46800  0.37310  0.57870  Biso   1.000  H
  H20      1.0000 0.31880  0.24090  0.55770  Biso   1.000  H
  Pb5      1.0000 0.17492  0.15342  0.66894  Biso   1.000  Pb
  C41      1.0000 0.31570  0.48360  0.99410  Biso   1.000  C
  C42      1.0000 0.30250  0.42490  0.90900  Biso   1.000  C
  C43      1.0000 0.23150  0.32480  0.85410  Biso   1.000  C
  C44      1.0000 0.32990  0.39150  0.79900  Biso   1.000  C
  C45      1.0000 0.15290  0.24040  0.86070  Biso   1.000  C
  C46      1.0000 0.37080  0.39460  0.73640  Biso   1.000  C
  C47      1.0000 0.46050  0.47870  0.75260  Biso   1.000  C
  C48      1.0000 0.49770  0.47080  0.69050  Biso   1.000  C
  C49      1.0000 0.44400  0.38020  0.61900  Biso   1.000  C
  C50      1.0000 0.35520  0.30090  0.60770  Biso   1.000  C
  N13      1.0000 0.36470  0.46700  0.87490  Biso   1.000  N
  N14      1.0000 0.24930  0.30530  0.78340  Biso   1.000  N
  N15      1.0000 0.31800  0.30460  0.66360  Biso   1.000  N
  O17      1.0000 0.38030  0.57210  0.03360  Biso   1.000  O
  O18      1.0000 0.25470  0.43550  0.02500  Biso   1.000  O
  O19      1.0000 0.13560  0.25480  0.92580  Biso   1.000  O
  O20      1.0000 0.10890  0.15690  0.79920  Biso   1.000  O
  H21      1.0000 0.00460  0.80690  0.04310  Biso   1.000  H
  H22      1.0000 0.94280  0.64080  0.96860  Biso   1.000  H
  H23      1.0000 0.03200  0.61070  0.90510  Biso   1.000  H
  H24      1.0000 0.18120  0.73890  0.92210  Biso   1.000  H
  Pb6      1.0000 0.32508  0.99402  0.97850  Biso   1.000  Pb
  C51      1.0000 0.18430  0.17840  0.16790  Biso   1.000  C
  C52      1.0000 0.19750  0.10650  0.12240  Biso   1.000  C
  C53      1.0000 0.26850  0.12260  0.09330  Biso   1.000  C
  C54      1.0000 0.17010  0.96910  0.06160  Biso   1.000  C
  C55      1.0000 0.34710  0.20780  0.08750  Biso   1.000  C
  C56      1.0000 0.12920  0.86560  0.02380  Biso   1.000  C
  C57      1.0000 0.03950  0.79210  0.01820  Biso   1.000  C
  C58      1.0000 0.00230  0.69280  0.97310  Biso   1.000  C
  C59      1.0000 0.05600  0.67500  0.93620  Biso   1.000  C
  C60      1.0000 0.14480  0.75250  0.94570  Biso   1.000  C
  N16      1.0000 0.13530  0.01020  0.10230  Biso   1.000  N
  N17      1.0000 0.25070  0.03410  0.05600  Biso   1.000  N
  N18      1.0000 0.18200  0.84560  0.98660  Biso   1.000  N
  O21      1.0000 0.11970  0.15330  0.19180  Biso   1.000  O
  O22      1.0000 0.24530  0.27030  0.18080  Biso   1.000  O
  O23      1.0000 0.36440  0.29020  0.11920  Biso   1.000  O
  O24      1.0000 0.39110  0.19030  0.04800  Biso   1.000  O
  H25      1.0000 0.26380  0.80230  0.80690  Biso   1.000  H
  H26      1.0000 0.17220  0.69800  0.64080  Biso   1.000  H
  H27      1.0000 0.20560  0.57870  0.61070  Biso   1.000  H
  H28      1.0000 0.31680  0.55770  0.73890  Biso   1.000  H
  Pb7      1.0000 0.51552  0.66894  0.99402  Biso   1.000  Pb
  C61      1.0000 0.51050  0.99410  0.17840  Biso   1.000  C
  C62      1.0000 0.48410  0.90900  0.10650  Biso   1.000  C
  C63      1.0000 0.52930  0.85410  0.12260  Biso   1.000  C
  C64      1.0000 0.40750  0.79900  0.96910  Biso   1.000  C
  C65      1.0000 0.62030  0.86070  0.20780  Biso   1.000  C
  C66      1.0000 0.34180  0.73640  0.86560  Biso   1.000  C
  C67      1.0000 0.27390  0.75260  0.79210  Biso   1.000  C
  C68      1.0000 0.21970  0.69050  0.69280  Biso   1.000  C
  C69      1.0000 0.23880  0.61900  0.67500  Biso   1.000  C
  C70      1.0000 0.30680  0.60770  0.75250  Biso   1.000  C
  N19      1.0000 0.40790  0.87490  0.01020  Biso   1.000  N
  N20      1.0000 0.47810  0.78340  0.03410  Biso   1.000  N
  N21      1.0000 0.35900  0.66360  0.84560  Biso   1.000  N
  O25      1.0000 0.46150  0.03360  0.15330  Biso   1.000  O
  O26      1.0000 0.58950  0.02500  0.27030  Biso   1.000  O
  O27      1.0000 0.67100  0.92580  0.29020  Biso   1.000  O
  O28      1.0000 0.64230  0.79920  0.19030  Biso   1.000  O
  H29      1.0000 0.23620  0.04310  0.53850  Biso   1.000  H
  H30      1.0000 0.32780  0.96860  0.52580  Biso   1.000  H
  H31      1.0000 0.29440  0.90510  0.37310  Biso   1.000  H
  H32      1.0000 0.18320  0.92210  0.24090  Biso   1.000  H
  Pb8      1.0000 0.98448  0.97850  0.15342  Biso   1.000  Pb
  C71      1.0000 0.98950  0.16790  0.48360  Biso   1.000  C
  C72      1.0000 0.01590  0.12240  0.42490  Biso   1.000  C
  C73      1.0000 0.97070  0.09330  0.32480  Biso   1.000  C
  C74      1.0000 0.09250  0.06160  0.39150  Biso   1.000  C
  C75      1.0000 0.87970  0.08750  0.24040  Biso   1.000  C
  C76      1.0000 0.15820  0.02380  0.39460  Biso   1.000  C
  C77      1.0000 0.22610  0.01820  0.47870  Biso   1.000  C
  C78      1.0000 0.28030  0.97310  0.47080  Biso   1.000  C
  C79      1.0000 0.26120  0.93620  0.38020  Biso   1.000  C
  C80      1.0000 0.19320  0.94570  0.30090  Biso   1.000  C
  N22      1.0000 0.09210  0.10230  0.46700  Biso   1.000  N
  N23      1.0000 0.02190  0.05600  0.30530  Biso   1.000  N
  N24      1.0000 0.14100  0.98660  0.30460  Biso   1.000  N
  O29      1.0000 0.03850  0.19180  0.57210  Biso   1.000  O
  O30      1.0000 0.91050  0.18080  0.43550  Biso   1.000  O
  O31      1.0000 0.82900  0.11920  0.25480  Biso   1.000  O
  O32      1.0000 0.85770  0.04800  0.15690  Biso   1.000  O
