data_image0
_cell_length_a       7.00116
_cell_length_b       16.002
_cell_length_c       16.002
_cell_angle_alpha    62.0892
_cell_angle_beta     81.6141
_cell_angle_gamma    98.3859

_symmetry_space_group_name_H-M    P 1
_symmetry_int_tables_number       1

loop_
  _symmetry_equiv_pos_as_xyz
  'x, y, z'

loop_
  _atom_site_label
  _atom_site_occupancy
  _atom_site_fract_x
  _atom_site_fract_y
  _atom_site_fract_z
  _atom_site_thermal_displace_type
  _atom_site_B_iso_or_equiv
  _atom_site_type_symbol
  Dy1      1.0000 0.28898  0.06436  0.84684  Biso   1.000  Dy
  Dy2      1.0000 0.13582  0.84684  0.08880  Biso   1.000  Dy
  Dy3      1.0000 0.22462  0.08880  0.06436  Biso   1.000  Dy
  Dy4      1.0000 0.71102  0.93564  0.15316  Biso   1.000  Dy
  Dy5      1.0000 0.86418  0.15316  0.91120  Biso   1.000  Dy
  Dy6      1.0000 0.77538  0.91120  0.93564  Biso   1.000  Dy
  Cu1      1.0000 0.50000  0.00000  0.50000  Biso   1.000  Cu
  Cu2      1.0000 0.00000  0.50000  0.50000  Biso   1.000  Cu
  Cu3      1.0000 0.50000  0.50000  0.00000  Biso   1.000  Cu
  H1       1.0000 0.84540  0.91120  0.57710  Biso   1.000  H
  H2       1.0000 0.95600  0.87510  0.71560  Biso   1.000  H
  H3       1.0000 0.42250  0.57710  0.51170  Biso   1.000  H
  H4       1.0000 0.67160  0.71560  0.40930  Biso   1.000  H
  H5       1.0000 0.93420  0.51170  0.91120  Biso   1.000  H
  H6       1.0000 0.08090  0.40930  0.87510  Biso   1.000  H
  H7       1.0000 0.15460  0.08880  0.42290  Biso   1.000  H
  H8       1.0000 0.04400  0.12490  0.28440  Biso   1.000  H
  H9       1.0000 0.57750  0.42290  0.48830  Biso   1.000  H
  H10      1.0000 0.32840  0.28440  0.59070  Biso   1.000  H
  H11      1.0000 0.06580  0.48830  0.08880  Biso   1.000  H
  H12      1.0000 0.91910  0.59070  0.12490  Biso   1.000  H
  C1       1.0000 0.61450  0.97010  0.75660  Biso   1.000  C
  C2       1.0000 0.54110  0.98740  0.67370  Biso   1.000  C
  C3       1.0000 0.78280  0.92480  0.62310  Biso   1.000  C
  C4       1.0000 0.85040  0.90480  0.70540  Biso   1.000  C
  C5       1.0000 0.36750  0.03030  0.64880  Biso   1.000  C
  C6       1.0000 0.37110  0.75660  0.27330  Biso   1.000  C
  C7       1.0000 0.21480  0.67370  0.33890  Biso   1.000  C
  C8       1.0000 0.40590  0.62310  0.45210  Biso   1.000  C
  C9       1.0000 0.55580  0.70540  0.38980  Biso   1.000  C
  C10      1.0000 0.01630  0.64880  0.32090  Biso   1.000  C
  C11      1.0000 0.64440  0.27330  0.97010  Biso   1.000  C
  C12      1.0000 0.55370  0.33890  0.98740  Biso   1.000  C
  C13      1.0000 0.85800  0.45210  0.92480  Biso   1.000  C
  C14      1.0000 0.94560  0.38980  0.90480  Biso   1.000  C
  C15      1.0000 0.33720  0.32090  0.03030  Biso   1.000  C
  C16      1.0000 0.38550  0.02990  0.24340  Biso   1.000  C
  C17      1.0000 0.45890  0.01260  0.32630  Biso   1.000  C
  C18      1.0000 0.21720  0.07520  0.37690  Biso   1.000  C
  C19      1.0000 0.14960  0.09520  0.29460  Biso   1.000  C
  C20      1.0000 0.63250  0.96970  0.35120  Biso   1.000  C
  C21      1.0000 0.62890  0.24340  0.72670  Biso   1.000  C
  C22      1.0000 0.78520  0.32630  0.66110  Biso   1.000  C
  C23      1.0000 0.59410  0.37690  0.54790  Biso   1.000  C
  C24      1.0000 0.44420  0.29460  0.61020  Biso   1.000  C
  C25      1.0000 0.98370  0.35120  0.67910  Biso   1.000  C
  C26      1.0000 0.35560  0.72670  0.02990  Biso   1.000  C
  C27      1.0000 0.44630  0.66110  0.01260  Biso   1.000  C
  C28      1.0000 0.14200  0.54790  0.07520  Biso   1.000  C
  C29      1.0000 0.05440  0.61020  0.09520  Biso   1.000  C
  C30      1.0000 0.66280  0.67910  0.96970  Biso   1.000  C
  N1       1.0000 0.76950  0.92670  0.77080  Biso   1.000  N
  N2       1.0000 0.62660  0.96410  0.60990  Biso   1.000  N
  N3       1.0000 0.54030  0.77080  0.30250  Biso   1.000  N
  N4       1.0000 0.23650  0.60990  0.42600  Biso   1.000  N
  N5       1.0000 0.84280  0.30250  0.92670  Biso   1.000  N
  N6       1.0000 0.66250  0.42600  0.96410  Biso   1.000  N
  N7       1.0000 0.23050  0.07330  0.22920  Biso   1.000  N
  N8       1.0000 0.37340  0.03590  0.39010  Biso   1.000  N
  N9       1.0000 0.45970  0.22920  0.69750  Biso   1.000  N
  N10      1.0000 0.76350  0.39010  0.57400  Biso   1.000  N
  N11      1.0000 0.15720  0.69750  0.07330  Biso   1.000  N
  N12      1.0000 0.33750  0.57400  0.03590  Biso   1.000  N
  O1       1.0000 0.54828  0.99113  0.82149  Biso   1.000  O
  O2       1.0000 0.27199  0.05107  0.70500  Biso   1.000  O
  O3       1.0000 0.32417  0.04037  0.57136  Biso   1.000  O
  O4       1.0000 0.10676  0.90130  0.92372  Biso   1.000  O
  O5       1.0000 0.36977  0.82149  0.18738  Biso   1.000  O
  O6       1.0000 0.97699  0.70500  0.24393  Biso   1.000  O
  O7       1.0000 0.89553  0.57136  0.38827  Biso   1.000  O
  O8       1.0000 0.03048  0.92372  0.17498  Biso   1.000  O
  O9       1.0000 0.55715  0.18738  0.99113  Biso   1.000  O
  O10      1.0000 0.22092  0.24393  0.05107  Biso   1.000  O
  O11      1.0000 0.28380  0.38827  0.04037  Biso   1.000  O
  O12      1.0000 0.20546  0.17498  0.90130  Biso   1.000  O
  O13      1.0000 0.45172  0.00887  0.17851  Biso   1.000  O
  O14      1.0000 0.72801  0.94893  0.29500  Biso   1.000  O
  O15      1.0000 0.67583  0.95963  0.42864  Biso   1.000  O
  O16      1.0000 0.89324  0.09870  0.07628  Biso   1.000  O
  O17      1.0000 0.63023  0.17851  0.81262  Biso   1.000  O
  O18      1.0000 0.02301  0.29500  0.75607  Biso   1.000  O
  O19      1.0000 0.10447  0.42864  0.61173  Biso   1.000  O
  O20      1.0000 0.96952  0.07628  0.82502  Biso   1.000  O
  O21      1.0000 0.44285  0.81262  0.00887  Biso   1.000  O
  O22      1.0000 0.77908  0.75607  0.94893  Biso   1.000  O
  O23      1.0000 0.71620  0.61173  0.95963  Biso   1.000  O
  O24      1.0000 0.79454  0.82502  0.09870  Biso   1.000  O
  O25      1.0000 0.31923  0.00000  0.00000  Biso   1.000  O
  O26      1.0000 0.68077  1.00000  0.00000  Biso   1.000  O
  O27      1.0000 0.00000  0.00000  0.00000  Biso   1.000  O
