data_image0
_cell_length_a       6.98158
_cell_length_b       15.9669
_cell_length_c       15.9669
_cell_angle_alpha    62.0867
_cell_angle_beta     81.6192
_cell_angle_gamma    98.3808

_symmetry_space_group_name_H-M    P 1
_symmetry_int_tables_number       1

loop_
  _symmetry_equiv_pos_as_xyz
  'x, y, z'

loop_
  _atom_site_label
  _atom_site_occupancy
  _atom_site_fract_x
  _atom_site_fract_y
  _atom_site_fract_z
  _atom_site_thermal_displace_type
  _atom_site_B_iso_or_equiv
  _atom_site_type_symbol
  Ho1      1.0000 0.28915  0.06431  0.84704  Biso   1.000  Ho
  Ho2      1.0000 0.13619  0.84704  0.08865  Biso   1.000  Ho
  Ho3      1.0000 0.22484  0.08865  0.06431  Biso   1.000  Ho
  Ho4      1.0000 0.71085  0.93569  0.15296  Biso   1.000  Ho
  Ho5      1.0000 0.86381  0.15296  0.91135  Biso   1.000  Ho
  Ho6      1.0000 0.77516  0.91135  0.93569  Biso   1.000  Ho
  Cu1      1.0000 0.50000  0.00000  0.50000  Biso   1.000  Cu
  Cu2      1.0000 0.00000  0.50000  0.50000  Biso   1.000  Cu
  Cu3      1.0000 0.50000  0.50000  0.00000  Biso   1.000  Cu
  H1       1.0000 0.84580  0.91000  0.57780  Biso   1.000  H
  H2       1.0000 0.95880  0.87550  0.71610  Biso   1.000  H
  H3       1.0000 0.42360  0.57780  0.51220  Biso   1.000  H
  H4       1.0000 0.67490  0.71610  0.40840  Biso   1.000  H
  H5       1.0000 0.93580  0.51220  0.91000  Biso   1.000  H
  H6       1.0000 0.08330  0.40840  0.87550  Biso   1.000  H
  H7       1.0000 0.15420  0.09000  0.42220  Biso   1.000  H
  H8       1.0000 0.04120  0.12450  0.28390  Biso   1.000  H
  H9       1.0000 0.57640  0.42220  0.48780  Biso   1.000  H
  H10      1.0000 0.32510  0.28390  0.59160  Biso   1.000  H
  H11      1.0000 0.06420  0.48780  0.09000  Biso   1.000  H
  H12      1.0000 0.91670  0.59160  0.12450  Biso   1.000  H
  C1       1.0000 0.61450  0.96990  0.75740  Biso   1.000  C
  C2       1.0000 0.54060  0.98700  0.67430  Biso   1.000  C
  C3       1.0000 0.78360  0.92420  0.62350  Biso   1.000  C
  C4       1.0000 0.85190  0.90450  0.70610  Biso   1.000  C
  C5       1.0000 0.36650  0.02900  0.65000  Biso   1.000  C
  C6       1.0000 0.37190  0.75740  0.27270  Biso   1.000  C
  C7       1.0000 0.21490  0.67430  0.33870  Biso   1.000  C
  C8       1.0000 0.40710  0.62350  0.45230  Biso   1.000  C
  C9       1.0000 0.55800  0.70610  0.38940  Biso   1.000  C
  C10      1.0000 0.01650  0.65000  0.32100  Biso   1.000  C
  C11      1.0000 0.64460  0.27270  0.96990  Biso   1.000  C
  C12      1.0000 0.55360  0.33870  0.98700  Biso   1.000  C
  C13      1.0000 0.85940  0.45230  0.92420  Biso   1.000  C
  C14      1.0000 0.94740  0.38940  0.90450  Biso   1.000  C
  C15      1.0000 0.33750  0.32100  0.02900  Biso   1.000  C
  C16      1.0000 0.38550  0.03010  0.24260  Biso   1.000  C
  C17      1.0000 0.45940  0.01300  0.32570  Biso   1.000  C
  C18      1.0000 0.21640  0.07580  0.37650  Biso   1.000  C
  C19      1.0000 0.14810  0.09550  0.29390  Biso   1.000  C
  C20      1.0000 0.63350  0.97100  0.35000  Biso   1.000  C
  C21      1.0000 0.62810  0.24260  0.72730  Biso   1.000  C
  C22      1.0000 0.78510  0.32570  0.66130  Biso   1.000  C
  C23      1.0000 0.59290  0.37650  0.54770  Biso   1.000  C
  C24      1.0000 0.44200  0.29390  0.61060  Biso   1.000  C
  C25      1.0000 0.98350  0.35000  0.67900  Biso   1.000  C
  C26      1.0000 0.35540  0.72730  0.03010  Biso   1.000  C
  C27      1.0000 0.44640  0.66130  0.01300  Biso   1.000  C
  C28      1.0000 0.14060  0.54770  0.07580  Biso   1.000  C
  C29      1.0000 0.05260  0.61060  0.09550  Biso   1.000  C
  C30      1.0000 0.66250  0.67900  0.97100  Biso   1.000  C
  N1       1.0000 0.76926  0.92606  0.77188  Biso   1.000  N
  N2       1.0000 0.62760  0.96370  0.61020  Biso   1.000  N
  N3       1.0000 0.54114  0.77188  0.30206  Biso   1.000  N
  N4       1.0000 0.23780  0.61020  0.42610  Biso   1.000  N
  N5       1.0000 0.84320  0.30206  0.92606  Biso   1.000  N
  N6       1.0000 0.66390  0.42610  0.96370  Biso   1.000  N
  N7       1.0000 0.23074  0.07394  0.22812  Biso   1.000  N
  N8       1.0000 0.37240  0.03630  0.38980  Biso   1.000  N
  N9       1.0000 0.45886  0.22812  0.69794  Biso   1.000  N
  N10      1.0000 0.76220  0.38980  0.57390  Biso   1.000  N
  N11      1.0000 0.15680  0.69794  0.07394  Biso   1.000  N
  N12      1.0000 0.33610  0.57390  0.03630  Biso   1.000  N
  O1       1.0000 0.54781  0.99116  0.82273  Biso   1.000  O
  O2       1.0000 0.27046  0.05082  0.70554  Biso   1.000  O
  O3       1.0000 0.32350  0.04090  0.57130  Biso   1.000  O
  O4       1.0000 0.20406  0.17334  0.90186  Biso   1.000  O
  O5       1.0000 0.37054  0.82273  0.18611  Biso   1.000  O
  O6       1.0000 0.97600  0.70554  0.24364  Biso   1.000  O
  O7       1.0000 0.89480  0.57130  0.38780  Biso   1.000  O
  O8       1.0000 0.10592  0.90186  0.92480  Biso   1.000  O
  O9       1.0000 0.55665  0.18611  0.99116  Biso   1.000  O
  O10      1.0000 0.21964  0.24364  0.05082  Biso   1.000  O
  O11      1.0000 0.28260  0.38780  0.04090  Biso   1.000  O
  O12      1.0000 0.03072  0.92480  0.17334  Biso   1.000  O
  O13      1.0000 0.45219  0.00884  0.17727  Biso   1.000  O
  O14      1.0000 0.72954  0.94918  0.29446  Biso   1.000  O
  O15      1.0000 0.67650  0.95910  0.42870  Biso   1.000  O
  O16      1.0000 0.79594  0.82666  0.09814  Biso   1.000  O
  O17      1.0000 0.62946  0.17727  0.81389  Biso   1.000  O
  O18      1.0000 0.02400  0.29446  0.75636  Biso   1.000  O
  O19      1.0000 0.10520  0.42870  0.61220  Biso   1.000  O
  O20      1.0000 0.89408  0.09814  0.07520  Biso   1.000  O
  O21      1.0000 0.44335  0.81389  0.00884  Biso   1.000  O
  O22      1.0000 0.78036  0.75636  0.94918  Biso   1.000  O
  O23      1.0000 0.71740  0.61220  0.95910  Biso   1.000  O
  O24      1.0000 0.96928  0.07520  0.82666  Biso   1.000  O
  O25      1.0000 0.32017  0.00000  0.00000  Biso   1.000  O
  O26      1.0000 0.67983  0.00000  0.00000  Biso   1.000  O
  O27      1.0000 0.00000  0.00000  0.00000  Biso   1.000  O
