data_image0
_cell_length_a       18.219
_cell_length_b       22.1055
_cell_length_c       22.1055
_cell_angle_alpha    80.2227
_cell_angle_beta     65.6637
_cell_angle_gamma    65.6637

_symmetry_space_group_name_H-M    P 1
_symmetry_int_tables_number       1

loop_
  _symmetry_equiv_pos_as_xyz
  'x, y, z'

loop_
  _atom_site_label
  _atom_site_occupancy
  _atom_site_fract_x
  _atom_site_fract_y
  _atom_site_fract_z
  _atom_site_thermal_displace_type
  _atom_site_B_iso_or_equiv
  _atom_site_type_symbol
  Cu1      1.0000 0.75000  0.50757  0.49243  Biso   1.000  Cu
  Cu2      1.0000 0.25000  0.99243  0.00757  Biso   1.000  Cu
  Cu3      1.0000 0.25757  0.49243  0.99243  Biso   1.000  Cu
  Cu4      1.0000 0.24243  0.00757  0.50757  Biso   1.000  Cu
  H1       1.0000 0.42960  0.93580  0.42380  Biso   1.000  H
  H2       1.0000 0.56660  0.56930  0.50390  Biso   1.000  H
  H3       1.0000 0.26640  0.87710  0.57310  Biso   1.000  H
  H4       1.0000 0.73970  0.64650  0.46190  Biso   1.000  H
  H5       1.0000 0.37090  0.77330  0.56810  Biso   1.000  H
  H6       1.0000 0.46020  0.67150  0.50830  Biso   1.000  H
  H7       1.0000 0.63750  0.75190  0.46410  Biso   1.000  H
  H8       1.0000 0.53910  0.83440  0.41560  Biso   1.000  H
  H9       1.0000 0.28920  0.56420  0.07620  Biso   1.000  H
  H10      1.0000 0.13980  0.93070  0.99610  Biso   1.000  H
  H11      1.0000 0.21660  0.62290  0.92690  Biso   1.000  H
  H12      1.0000 0.34810  0.85350  0.03810  Biso   1.000  H
  H13      1.0000 0.21230  0.72670  0.93190  Biso   1.000  H
  H14      1.0000 0.14000  0.82850  0.99170  Biso   1.000  H
  H15      1.0000 0.35350  0.74810  0.03590  Biso   1.000  H
  H16      1.0000 0.28910  0.66560  0.08440  Biso   1.000  H
  H17      1.0000 0.21080  0.92380  0.43580  Biso   1.000  H
  H18      1.0000 0.36020  0.00390  0.06930  Biso   1.000  H
  H19      1.0000 0.28340  0.07310  0.37710  Biso   1.000  H
  H20      1.0000 0.15190  0.96190  0.14650  Biso   1.000  H
  H21      1.0000 0.28770  0.06810  0.27330  Biso   1.000  H
  H22      1.0000 0.36000  0.00830  0.17150  Biso   1.000  H
  H23      1.0000 0.14650  0.96410  0.25190  Biso   1.000  H
  H24      1.0000 0.21090  0.91560  0.33440  Biso   1.000  H
  H25      1.0000 0.07040  0.57620  0.06420  Biso   1.000  H
  H26      1.0000 0.93340  0.49610  0.43070  Biso   1.000  H
  H27      1.0000 0.23360  0.42690  0.12290  Biso   1.000  H
  H28      1.0000 0.76030  0.53810  0.35350  Biso   1.000  H
  H29      1.0000 0.12910  0.43190  0.22670  Biso   1.000  H
  H30      1.0000 0.03980  0.49170  0.32850  Biso   1.000  H
  H31      1.0000 0.86250  0.53590  0.24810  Biso   1.000  H
  H32      1.0000 0.96090  0.58440  0.16560  Biso   1.000  H
  H33      1.0000 0.64660  0.42380  0.56420  Biso   1.000  H
  H34      1.0000 0.42950  0.50390  0.93070  Biso   1.000  H
  H35      1.0000 0.66050  0.57310  0.62290  Biso   1.000  H
  H36      1.0000 0.29840  0.46190  0.85350  Biso   1.000  H
  H37      1.0000 0.56100  0.56810  0.72670  Biso   1.000  H
  H38      1.0000 0.53150  0.50830  0.82850  Biso   1.000  H
  H39      1.0000 0.39840  0.46410  0.74810  Biso   1.000  H
  H40      1.0000 0.54530  0.41560  0.66560  Biso   1.000  H
  H41      1.0000 0.13460  0.07620  0.93580  Biso   1.000  H
  H42      1.0000 0.36410  0.99610  0.56930  Biso   1.000  H
  H43      1.0000 0.35650  0.92690  0.87710  Biso   1.000  H
  H44      1.0000 0.11380  0.03810  0.64650  Biso   1.000  H
  H45      1.0000 0.35580  0.93190  0.77330  Biso   1.000  H
  H46      1.0000 0.36830  0.99170  0.67150  Biso   1.000  H
  H47      1.0000 0.11060  0.03590  0.75190  Biso   1.000  H
  H48      1.0000 0.12650  0.08440  0.83440  Biso   1.000  H
  H49      1.0000 0.36540  0.06420  0.92380  Biso   1.000  H
  H50      1.0000 0.13590  0.43070  0.00390  Biso   1.000  H
  H51      1.0000 0.14350  0.12290  0.07310  Biso   1.000  H
  H52      1.0000 0.38620  0.35350  0.96190  Biso   1.000  H
  H53      1.0000 0.14420  0.22670  0.06810  Biso   1.000  H
  H54      1.0000 0.13170  0.32850  0.00830  Biso   1.000  H
  H55      1.0000 0.38940  0.24810  0.96410  Biso   1.000  H
  H56      1.0000 0.37350  0.16560  0.91560  Biso   1.000  H
  H57      1.0000 0.85340  0.43580  0.57620  Biso   1.000  H
  H58      1.0000 0.07050  0.06930  0.49610  Biso   1.000  H
  H59      1.0000 0.83950  0.37710  0.42690  Biso   1.000  H
  H60      1.0000 0.20160  0.14650  0.53810  Biso   1.000  H
  H61      1.0000 0.93900  0.27330  0.43190  Biso   1.000  H
  H62      1.0000 0.96850  0.17150  0.49170  Biso   1.000  H
  H63      1.0000 0.10160  0.25190  0.53590  Biso   1.000  H
  H64      1.0000 0.95470  0.33440  0.58440  Biso   1.000  H
  C1       1.0000 0.41770  0.90260  0.45320  Biso   1.000  C
  C2       1.0000 0.53620  0.72403  0.48677  Biso   1.000  C
  C3       1.0000 0.46780  0.79110  0.49010  Biso   1.000  C
  C4       1.0000 0.58060  0.60660  0.49660  Biso   1.000  C
  C5       1.0000 0.32210  0.86800  0.54060  Biso   1.000  C
  C6       1.0000 0.68250  0.65200  0.47180  Biso   1.000  C
  C7       1.0000 0.38440  0.80570  0.53790  Biso   1.000  C
  C8       1.0000 0.51660  0.66770  0.49890  Biso   1.000  C
  C9       1.0000 0.62160  0.71550  0.47270  Biso   1.000  C
  C10      1.0000 0.48370  0.84160  0.44780  Biso   1.000  C
  C11      1.0000 0.27350  0.59740  0.04680  Biso   1.000  C
  C12      1.0000 0.24700  0.77597  0.01323  Biso   1.000  C
  C13      1.0000 0.24900  0.70890  0.00990  Biso   1.000  C
  C14      1.0000 0.18380  0.89340  0.00340  Biso   1.000  C
  C15      1.0000 0.23070  0.63200  0.95940  Biso   1.000  C
  C16      1.0000 0.30630  0.84800  0.02820  Biso   1.000  C
  C17      1.0000 0.22800  0.69430  0.96210  Biso   1.000  C
  C18      1.0000 0.18320  0.83230  0.00110  Biso   1.000  C
  C19      1.0000 0.30980  0.78450  0.02730  Biso   1.000  C
  C20      1.0000 0.27310  0.65840  0.05220  Biso   1.000  C
  C21      1.0000 0.22650  0.95320  0.40260  Biso   1.000  C
  C22      1.0000 0.25300  0.98677  0.22403  Biso   1.000  C
  C23      1.0000 0.25100  0.99010  0.29110  Biso   1.000  C
  C24      1.0000 0.31620  0.99660  0.10660  Biso   1.000  C
  C25      1.0000 0.26930  0.04060  0.36800  Biso   1.000  C
  C26      1.0000 0.19370  0.97180  0.15200  Biso   1.000  C
  C27      1.0000 0.27200  0.03790  0.30570  Biso   1.000  C
  C28      1.0000 0.31680  0.99890  0.16770  Biso   1.000  C
  C29      1.0000 0.19020  0.97270  0.21550  Biso   1.000  C
  C30      1.0000 0.22690  0.94780  0.34160  Biso   1.000  C
  C31      1.0000 0.08230  0.54680  0.09740  Biso   1.000  C
  C32      1.0000 0.96380  0.51323  0.27597  Biso   1.000  C
  C33      1.0000 0.03220  0.50990  0.20890  Biso   1.000  C
  C34      1.0000 0.91940  0.50340  0.39340  Biso   1.000  C
  C35      1.0000 0.17790  0.45940  0.13200  Biso   1.000  C
  C36      1.0000 0.81750  0.52820  0.34800  Biso   1.000  C
  C37      1.0000 0.11560  0.46210  0.19430  Biso   1.000  C
  C38      1.0000 0.98340  0.50110  0.33230  Biso   1.000  C
  C39      1.0000 0.87840  0.52730  0.28450  Biso   1.000  C
  C40      1.0000 0.01630  0.55220  0.15840  Biso   1.000  C
  C41      1.0000 0.62910  0.45320  0.59740  Biso   1.000  C
  C42      1.0000 0.47703  0.48677  0.77597  Biso   1.000  C
  C43      1.0000 0.54210  0.49010  0.70890  Biso   1.000  C
  C44      1.0000 0.42280  0.49660  0.89340  Biso   1.000  C
  C45      1.0000 0.63730  0.54060  0.63200  Biso   1.000  C
  C46      1.0000 0.34570  0.47180  0.84800  Biso   1.000  C
  C47      1.0000 0.57770  0.53790  0.69430  Biso   1.000  C
  C48      1.0000 0.48450  0.49890  0.83230  Biso   1.000  C
  C49      1.0000 0.40570  0.47270  0.78450  Biso   1.000  C
  C50      1.0000 0.56850  0.44780  0.65840  Biso   1.000  C
  C51      1.0000 0.17970  0.04680  0.90260  Biso   1.000  C
  C52      1.0000 0.23977  0.01323  0.72403  Biso   1.000  C
  C53      1.0000 0.24110  0.00990  0.79110  Biso   1.000  C
  C54      1.0000 0.31280  0.00340  0.60660  Biso   1.000  C
  C55      1.0000 0.30990  0.95940  0.86800  Biso   1.000  C
  C56      1.0000 0.16550  0.02820  0.65200  Biso   1.000  C
  C57      1.0000 0.30990  0.96210  0.80570  Biso   1.000  C
  C58      1.0000 0.31570  0.00110  0.66770  Biso   1.000  C
  C59      1.0000 0.16290  0.02730  0.71550  Biso   1.000  C
  C60      1.0000 0.17470  0.05220  0.84160  Biso   1.000  C
  C61      1.0000 0.32030  0.09740  0.95320  Biso   1.000  C
  C62      1.0000 0.26023  0.27597  0.98677  Biso   1.000  C
  C63      1.0000 0.25890  0.20890  0.99010  Biso   1.000  C
  C64      1.0000 0.18720  0.39340  0.99660  Biso   1.000  C
  C65      1.0000 0.19010  0.13200  0.04060  Biso   1.000  C
  C66      1.0000 0.33450  0.34800  0.97180  Biso   1.000  C
  C67      1.0000 0.19010  0.19430  0.03790  Biso   1.000  C
  C68      1.0000 0.18430  0.33230  0.99890  Biso   1.000  C
  C69      1.0000 0.33710  0.28450  0.97270  Biso   1.000  C
  C70      1.0000 0.32530  0.15840  0.94780  Biso   1.000  C
  C71      1.0000 0.87090  0.40260  0.54680  Biso   1.000  C
  C72      1.0000 0.02297  0.22403  0.51323  Biso   1.000  C
  C73      1.0000 0.95790  0.29110  0.50990  Biso   1.000  C
  C74      1.0000 0.07720  0.10660  0.50340  Biso   1.000  C
  C75      1.0000 0.86270  0.36800  0.45940  Biso   1.000  C
  C76      1.0000 0.15430  0.15200  0.52820  Biso   1.000  C
  C77      1.0000 0.92230  0.30570  0.46210  Biso   1.000  C
  C78      1.0000 0.01550  0.16770  0.50110  Biso   1.000  C
  C79      1.0000 0.09430  0.21550  0.52730  Biso   1.000  C
  C80      1.0000 0.93150  0.34160  0.55220  Biso   1.000  C
  N1       1.0000 0.66305  0.59817  0.48453  Biso   1.000  N
  N2       1.0000 0.33738  0.91616  0.49888  Biso   1.000  N
  N3       1.0000 0.24575  0.90183  0.01547  Biso   1.000  N
  N4       1.0000 0.25242  0.58384  0.00112  Biso   1.000  N
  N5       1.0000 0.25425  0.98453  0.09817  Biso   1.000  N
  N6       1.0000 0.24758  0.99888  0.41616  Biso   1.000  N
  N7       1.0000 0.83695  0.51547  0.40183  Biso   1.000  N
  N8       1.0000 0.16262  0.50112  0.08384  Biso   1.000  N
  N9       1.0000 0.35242  0.48453  0.90183  Biso   1.000  N
  N10      1.0000 0.66374  0.49888  0.58384  Biso   1.000  N
  N11      1.0000 0.23878  0.01547  0.59817  Biso   1.000  N
  N12      1.0000 0.24646  0.00112  0.91616  Biso   1.000  N
  N13      1.0000 0.26122  0.40183  0.98453  Biso   1.000  N
  N14      1.0000 0.25354  0.08384  0.99888  Biso   1.000  N
  N15      1.0000 0.14758  0.09817  0.51547  Biso   1.000  N
  N16      1.0000 0.83626  0.41616  0.50112  Biso   1.000  N
  Cu5      1.0000 0.74243  0.50757  0.00757  Biso   1.000  Cu
  Cu6      1.0000 0.75757  0.99243  0.49243  Biso   1.000  Cu
  Cu7      1.0000 0.25000  0.49243  0.50757  Biso   1.000  Cu
  Cu8      1.0000 0.75000  0.00757  0.99243  Biso   1.000  Cu
  H65      1.0000 0.35340  0.57620  0.43580  Biso   1.000  H
  H66      1.0000 0.57050  0.49610  0.06930  Biso   1.000  H
  H67      1.0000 0.33950  0.42690  0.37710  Biso   1.000  H
  H68      1.0000 0.70160  0.53810  0.14650  Biso   1.000  H
  H69      1.0000 0.43900  0.43190  0.27330  Biso   1.000  H
  H70      1.0000 0.46850  0.49170  0.17150  Biso   1.000  H
  H71      1.0000 0.60160  0.53590  0.25190  Biso   1.000  H
  H72      1.0000 0.45470  0.58440  0.33440  Biso   1.000  H
  H73      1.0000 0.86540  0.92380  0.06420  Biso   1.000  H
  H74      1.0000 0.63590  0.00390  0.43070  Biso   1.000  H
  H75      1.0000 0.64350  0.07310  0.12290  Biso   1.000  H
  H76      1.0000 0.88620  0.96190  0.35350  Biso   1.000  H
  H77      1.0000 0.64420  0.06810  0.22670  Biso   1.000  H
  H78      1.0000 0.63170  0.00830  0.32850  Biso   1.000  H
  H79      1.0000 0.88940  0.96410  0.24810  Biso   1.000  H
  H80      1.0000 0.87350  0.91560  0.16560  Biso   1.000  H
  H81      1.0000 0.63460  0.93580  0.07620  Biso   1.000  H
  H82      1.0000 0.86410  0.56930  0.99610  Biso   1.000  H
  H83      1.0000 0.85650  0.87710  0.92690  Biso   1.000  H
  H84      1.0000 0.61380  0.64650  0.03810  Biso   1.000  H
  H85      1.0000 0.85580  0.77330  0.93190  Biso   1.000  H
  H86      1.0000 0.86830  0.67150  0.99170  Biso   1.000  H
  H87      1.0000 0.61060  0.75190  0.03590  Biso   1.000  H
  H88      1.0000 0.62650  0.83440  0.08440  Biso   1.000  H
  H89      1.0000 0.14660  0.56420  0.42380  Biso   1.000  H
  H90      1.0000 0.92950  0.93070  0.50390  Biso   1.000  H
  H91      1.0000 0.16050  0.62290  0.57310  Biso   1.000  H
  H92      1.0000 0.79840  0.85350  0.46190  Biso   1.000  H
  H93      1.0000 0.06100  0.72670  0.56810  Biso   1.000  H
  H94      1.0000 0.03150  0.82850  0.50830  Biso   1.000  H
  H95      1.0000 0.89840  0.74810  0.46410  Biso   1.000  H
  H96      1.0000 0.04530  0.66560  0.41560  Biso   1.000  H
  H97      1.0000 0.57040  0.06420  0.57620  Biso   1.000  H
  H98      1.0000 0.43340  0.43070  0.49610  Biso   1.000  H
  H99      1.0000 0.73360  0.12290  0.42690  Biso   1.000  H
  H100     1.0000 0.26030  0.35350  0.53810  Biso   1.000  H
  H101     1.0000 0.62910  0.22670  0.43190  Biso   1.000  H
  H102     1.0000 0.53980  0.32850  0.49170  Biso   1.000  H
  H103     1.0000 0.36250  0.24810  0.53590  Biso   1.000  H
  H104     1.0000 0.46090  0.16560  0.58440  Biso   1.000  H
  H105     1.0000 0.71080  0.43580  0.92380  Biso   1.000  H
  H106     1.0000 0.86020  0.06930  0.00390  Biso   1.000  H
  H107     1.0000 0.78340  0.37710  0.07310  Biso   1.000  H
  H108     1.0000 0.65190  0.14650  0.96190  Biso   1.000  H
  H109     1.0000 0.78770  0.27330  0.06810  Biso   1.000  H
  H110     1.0000 0.86000  0.17150  0.00830  Biso   1.000  H
  H111     1.0000 0.64650  0.25190  0.96410  Biso   1.000  H
  H112     1.0000 0.71090  0.33440  0.91560  Biso   1.000  H
  H113     1.0000 0.78920  0.07620  0.56420  Biso   1.000  H
  H114     1.0000 0.63980  0.99610  0.93070  Biso   1.000  H
  H115     1.0000 0.71660  0.92690  0.62290  Biso   1.000  H
  H116     1.0000 0.84810  0.03810  0.85350  Biso   1.000  H
  H117     1.0000 0.71230  0.93190  0.72670  Biso   1.000  H
  H118     1.0000 0.64000  0.99170  0.82850  Biso   1.000  H
  H119     1.0000 0.85350  0.03590  0.74810  Biso   1.000  H
  H120     1.0000 0.78910  0.08440  0.66560  Biso   1.000  H
  H121     1.0000 0.92960  0.42380  0.93580  Biso   1.000  H
  H122     1.0000 0.06660  0.50390  0.56930  Biso   1.000  H
  H123     1.0000 0.76640  0.57310  0.87710  Biso   1.000  H
  H124     1.0000 0.23970  0.46190  0.64650  Biso   1.000  H
  H125     1.0000 0.87090  0.56810  0.77330  Biso   1.000  H
  H126     1.0000 0.96020  0.50830  0.67150  Biso   1.000  H
  H127     1.0000 0.13750  0.46410  0.75190  Biso   1.000  H
  H128     1.0000 0.03910  0.41560  0.83440  Biso   1.000  H
  C81      1.0000 0.37090  0.54680  0.40260  Biso   1.000  C
  C82      1.0000 0.52297  0.51323  0.22403  Biso   1.000  C
  C83      1.0000 0.45790  0.50990  0.29110  Biso   1.000  C
  C84      1.0000 0.57720  0.50340  0.10660  Biso   1.000  C
  C85      1.0000 0.36270  0.45940  0.36800  Biso   1.000  C
  C86      1.0000 0.65430  0.52820  0.15200  Biso   1.000  C
  C87      1.0000 0.42230  0.46210  0.30570  Biso   1.000  C
  C88      1.0000 0.51550  0.50110  0.16770  Biso   1.000  C
  C89      1.0000 0.59430  0.52730  0.21550  Biso   1.000  C
  C90      1.0000 0.43150  0.55220  0.34160  Biso   1.000  C
  C91      1.0000 0.82030  0.95320  0.09740  Biso   1.000  C
  C92      1.0000 0.76023  0.98677  0.27597  Biso   1.000  C
  C93      1.0000 0.75890  0.99010  0.20890  Biso   1.000  C
  C94      1.0000 0.68720  0.99660  0.39340  Biso   1.000  C
  C95      1.0000 0.69010  0.04060  0.13200  Biso   1.000  C
  C96      1.0000 0.83450  0.97180  0.34800  Biso   1.000  C
  C97      1.0000 0.69010  0.03790  0.19430  Biso   1.000  C
  C98      1.0000 0.68430  0.99890  0.33230  Biso   1.000  C
  C99      1.0000 0.83710  0.97270  0.28450  Biso   1.000  C
  C100     1.0000 0.82530  0.94780  0.15840  Biso   1.000  C
  C101     1.0000 0.67970  0.90260  0.04680  Biso   1.000  C
  C102     1.0000 0.73977  0.72403  0.01323  Biso   1.000  C
  C103     1.0000 0.74110  0.79110  0.00990  Biso   1.000  C
  C104     1.0000 0.81280  0.60660  0.00340  Biso   1.000  C
  C105     1.0000 0.80990  0.86800  0.95940  Biso   1.000  C
  C106     1.0000 0.66550  0.65200  0.02820  Biso   1.000  C
  C107     1.0000 0.80990  0.80570  0.96210  Biso   1.000  C
  C108     1.0000 0.81570  0.66770  0.00110  Biso   1.000  C
  C109     1.0000 0.66290  0.71550  0.02730  Biso   1.000  C
  C110     1.0000 0.67470  0.84160  0.05220  Biso   1.000  C
  C111     1.0000 0.12910  0.59740  0.45320  Biso   1.000  C
  C112     1.0000 0.97703  0.77597  0.48677  Biso   1.000  C
  C113     1.0000 0.04210  0.70890  0.49010  Biso   1.000  C
  C114     1.0000 0.92280  0.89340  0.49660  Biso   1.000  C
  C115     1.0000 0.13730  0.63200  0.54060  Biso   1.000  C
  C116     1.0000 0.84570  0.84800  0.47180  Biso   1.000  C
  C117     1.0000 0.07770  0.69430  0.53790  Biso   1.000  C
  C118     1.0000 0.98450  0.83230  0.49890  Biso   1.000  C
  C119     1.0000 0.90570  0.78450  0.47270  Biso   1.000  C
  C120     1.0000 0.06850  0.65840  0.44780  Biso   1.000  C
  C121     1.0000 0.58230  0.09740  0.54680  Biso   1.000  C
  C122     1.0000 0.46380  0.27597  0.51323  Biso   1.000  C
  C123     1.0000 0.53220  0.20890  0.50990  Biso   1.000  C
  C124     1.0000 0.41940  0.39340  0.50340  Biso   1.000  C
  C125     1.0000 0.67790  0.13200  0.45940  Biso   1.000  C
  C126     1.0000 0.31750  0.34800  0.52820  Biso   1.000  C
  C127     1.0000 0.61560  0.19430  0.46210  Biso   1.000  C
  C128     1.0000 0.48340  0.33230  0.50110  Biso   1.000  C
  C129     1.0000 0.37840  0.28450  0.52730  Biso   1.000  C
  C130     1.0000 0.51630  0.15840  0.55220  Biso   1.000  C
  C131     1.0000 0.72650  0.40260  0.95320  Biso   1.000  C
  C132     1.0000 0.75300  0.22403  0.98677  Biso   1.000  C
  C133     1.0000 0.75100  0.29110  0.99010  Biso   1.000  C
  C134     1.0000 0.81620  0.10660  0.99660  Biso   1.000  C
  C135     1.0000 0.76930  0.36800  0.04060  Biso   1.000  C
  C136     1.0000 0.69370  0.15200  0.97180  Biso   1.000  C
  C137     1.0000 0.77200  0.30570  0.03790  Biso   1.000  C
  C138     1.0000 0.81680  0.16770  0.99890  Biso   1.000  C
  C139     1.0000 0.69020  0.21550  0.97270  Biso   1.000  C
  C140     1.0000 0.72690  0.34160  0.94780  Biso   1.000  C
  C141     1.0000 0.77350  0.04680  0.59740  Biso   1.000  C
  C142     1.0000 0.74700  0.01323  0.77597  Biso   1.000  C
  C143     1.0000 0.74900  0.00990  0.70890  Biso   1.000  C
  C144     1.0000 0.68380  0.00340  0.89340  Biso   1.000  C
  C145     1.0000 0.73070  0.95940  0.63200  Biso   1.000  C
  C146     1.0000 0.80630  0.02820  0.84800  Biso   1.000  C
  C147     1.0000 0.72800  0.96210  0.69430  Biso   1.000  C
  C148     1.0000 0.68320  0.00110  0.83230  Biso   1.000  C
  C149     1.0000 0.80980  0.02730  0.78450  Biso   1.000  C
  C150     1.0000 0.77310  0.05220  0.65840  Biso   1.000  C
  C151     1.0000 0.91770  0.45320  0.90260  Biso   1.000  C
  C152     1.0000 0.03620  0.48677  0.72403  Biso   1.000  C
  C153     1.0000 0.96780  0.49010  0.79110  Biso   1.000  C
  C154     1.0000 0.08060  0.49660  0.60660  Biso   1.000  C
  C155     1.0000 0.82210  0.54060  0.86800  Biso   1.000  C
  C156     1.0000 0.18250  0.47180  0.65200  Biso   1.000  C
  C157     1.0000 0.88440  0.53790  0.80570  Biso   1.000  C
  C158     1.0000 0.01660  0.49890  0.66770  Biso   1.000  C
  C159     1.0000 0.12160  0.47270  0.71550  Biso   1.000  C
  C160     1.0000 0.98370  0.44780  0.84160  Biso   1.000  C
  N17      1.0000 0.64758  0.51547  0.09817  Biso   1.000  N
  N18      1.0000 0.33626  0.50112  0.41616  Biso   1.000  N
  N19      1.0000 0.76122  0.98453  0.40183  Biso   1.000  N
  N20      1.0000 0.75354  0.99888  0.08384  Biso   1.000  N
  N21      1.0000 0.73878  0.59817  0.01547  Biso   1.000  N
  N22      1.0000 0.74646  0.91616  0.00112  Biso   1.000  N
  N23      1.0000 0.85242  0.90183  0.48453  Biso   1.000  N
  N24      1.0000 0.16374  0.58384  0.49888  Biso   1.000  N
  N25      1.0000 0.33695  0.40183  0.51547  Biso   1.000  N
  N26      1.0000 0.66262  0.08384  0.50112  Biso   1.000  N
  N27      1.0000 0.75425  0.09817  0.98453  Biso   1.000  N
  N28      1.0000 0.74758  0.41616  0.99888  Biso   1.000  N
  N29      1.0000 0.74575  0.01547  0.90183  Biso   1.000  N
  N30      1.0000 0.75242  0.00112  0.58384  Biso   1.000  N
  N31      1.0000 0.16305  0.48453  0.59817  Biso   1.000  N
  N32      1.0000 0.83738  0.49888  0.91616  Biso   1.000  N
