data_image0
_cell_length_a       13.1866
_cell_length_b       13.1866
_cell_length_c       29.4577
_cell_angle_alpha    90
_cell_angle_beta     90
_cell_angle_gamma    90

_symmetry_space_group_name_H-M    P 1
_symmetry_int_tables_number       1

loop_
  _symmetry_equiv_pos_as_xyz
  'x, y, z'

loop_
  _atom_site_label
  _atom_site_occupancy
  _atom_site_fract_x
  _atom_site_fract_y
  _atom_site_fract_z
  _atom_site_thermal_displace_type
  _atom_site_B_iso_or_equiv
  _atom_site_type_symbol
  Ni1      1.0000 0.73851  0.71969  0.36708  Biso   1.000  Ni
  Ni2      1.0000 0.26149  0.28031  0.86708  Biso   1.000  Ni
  Ni3      1.0000 0.78031  0.23851  0.11708  Biso   1.000  Ni
  Ni4      1.0000 0.21969  0.76149  0.61708  Biso   1.000  Ni
  Ni5      1.0000 0.76149  0.21969  0.38292  Biso   1.000  Ni
  Ni6      1.0000 0.23851  0.78031  0.88292  Biso   1.000  Ni
  Ni7      1.0000 0.71969  0.73851  0.63292  Biso   1.000  Ni
  Ni8      1.0000 0.28031  0.26149  0.13292  Biso   1.000  Ni
  Mo1      1.0000 0.61903  0.46371  0.38003  Biso   1.000  Mo
  Mo2      1.0000 0.38097  0.53629  0.88003  Biso   1.000  Mo
  Mo3      1.0000 0.03629  0.11903  0.13003  Biso   1.000  Mo
  Mo4      1.0000 0.96371  0.88097  0.63003  Biso   1.000  Mo
  Mo5      1.0000 0.88097  0.96371  0.36997  Biso   1.000  Mo
  Mo6      1.0000 0.11903  0.03629  0.86997  Biso   1.000  Mo
  Mo7      1.0000 0.46371  0.61903  0.61997  Biso   1.000  Mo
  Mo8      1.0000 0.53629  0.38097  0.11997  Biso   1.000  Mo
  H1       1.0000 0.85770  0.53610  0.39380  Biso   1.000  H
  H2       1.0000 0.99150  0.48840  0.43950  Biso   1.000  H
  H3       1.0000 0.94710  0.74990  0.50890  Biso   1.000  H
  H4       1.0000 0.82520  0.79030  0.45750  Biso   1.000  H
  H5       1.0000 0.15110  0.93910  0.56210  Biso   1.000  H
  H6       1.0000 0.17550  0.01820  0.49200  Biso   1.000  H
  H7       1.0000 0.30060  0.95780  0.44290  Biso   1.000  H
  H8       1.0000 0.37530  0.75540  0.53950  Biso   1.000  H
  H9       1.0000 0.62710  0.65780  0.45590  Biso   1.000  H
  H10      1.0000 0.49170  0.70000  0.49790  Biso   1.000  H
  H11      1.0000 0.43870  0.92710  0.41140  Biso   1.000  H
  H12      1.0000 0.57520  0.87840  0.37170  Biso   1.000  H
  H13      1.0000 0.25770  0.53080  0.60030  Biso   1.000  H
  H14      1.0000 0.20460  0.40260  0.55220  Biso   1.000  H
  H15      1.0000 0.08510  0.43440  0.49800  Biso   1.000  H
  H16      1.0000 0.09260  0.72590  0.53760  Biso   1.000  H
  H17      1.0000 0.14230  0.46390  0.89380  Biso   1.000  H
  H18      1.0000 0.00850  0.51160  0.93950  Biso   1.000  H
  H19      1.0000 0.05290  0.25010  0.00890  Biso   1.000  H
  H20      1.0000 0.17480  0.20970  0.95750  Biso   1.000  H
  H21      1.0000 0.84890  0.06090  0.06210  Biso   1.000  H
  H22      1.0000 0.82450  0.98180  0.99200  Biso   1.000  H
  H23      1.0000 0.69940  0.04220  0.94290  Biso   1.000  H
  H24      1.0000 0.62470  0.24460  0.03950  Biso   1.000  H
  H25      1.0000 0.37290  0.34220  0.95590  Biso   1.000  H
  H26      1.0000 0.50830  0.30000  0.99790  Biso   1.000  H
  H27      1.0000 0.56130  0.07290  0.91140  Biso   1.000  H
  H28      1.0000 0.42480  0.12160  0.87170  Biso   1.000  H
  H29      1.0000 0.74230  0.46920  0.10030  Biso   1.000  H
  H30      1.0000 0.79540  0.59740  0.05220  Biso   1.000  H
  H31      1.0000 0.91490  0.56560  0.99800  Biso   1.000  H
  H32      1.0000 0.90740  0.27410  0.03760  Biso   1.000  H
  H33      1.0000 0.96390  0.35770  0.14380  Biso   1.000  H
  H34      1.0000 0.01160  0.49150  0.18950  Biso   1.000  H
  H35      1.0000 0.75010  0.44710  0.25890  Biso   1.000  H
  H36      1.0000 0.70970  0.32520  0.20750  Biso   1.000  H
  H37      1.0000 0.56090  0.65110  0.31210  Biso   1.000  H
  H38      1.0000 0.48180  0.67550  0.24200  Biso   1.000  H
  H39      1.0000 0.54220  0.80060  0.19290  Biso   1.000  H
  H40      1.0000 0.74460  0.87530  0.28950  Biso   1.000  H
  H41      1.0000 0.84220  0.12710  0.20590  Biso   1.000  H
  H42      1.0000 0.80000  0.99170  0.24790  Biso   1.000  H
  H43      1.0000 0.57290  0.93870  0.16140  Biso   1.000  H
  H44      1.0000 0.62160  0.07520  0.12170  Biso   1.000  H
  H45      1.0000 0.96920  0.75770  0.35030  Biso   1.000  H
  H46      1.0000 0.09740  0.70460  0.30220  Biso   1.000  H
  H47      1.0000 0.06560  0.58510  0.24800  Biso   1.000  H
  H48      1.0000 0.77410  0.59260  0.28760  Biso   1.000  H
  H49      1.0000 0.03610  0.64230  0.64380  Biso   1.000  H
  H50      1.0000 0.98840  0.50850  0.68950  Biso   1.000  H
  H51      1.0000 0.24990  0.55290  0.75890  Biso   1.000  H
  H52      1.0000 0.29030  0.67480  0.70750  Biso   1.000  H
  H53      1.0000 0.43910  0.34890  0.81210  Biso   1.000  H
  H54      1.0000 0.51820  0.32450  0.74200  Biso   1.000  H
  H55      1.0000 0.45780  0.19940  0.69290  Biso   1.000  H
  H56      1.0000 0.25540  0.12470  0.78950  Biso   1.000  H
  H57      1.0000 0.15780  0.87290  0.70590  Biso   1.000  H
  H58      1.0000 0.20000  0.00830  0.74790  Biso   1.000  H
  H59      1.0000 0.42710  0.06130  0.66140  Biso   1.000  H
  H60      1.0000 0.37840  0.92480  0.62170  Biso   1.000  H
  H61      1.0000 0.03080  0.24230  0.85030  Biso   1.000  H
  H62      1.0000 0.90260  0.29540  0.80220  Biso   1.000  H
  H63      1.0000 0.93440  0.41490  0.74800  Biso   1.000  H
  H64      1.0000 0.22590  0.40740  0.78760  Biso   1.000  H
  H65      1.0000 0.64230  0.03610  0.35620  Biso   1.000  H
  H66      1.0000 0.50850  0.98840  0.31050  Biso   1.000  H
  H67      1.0000 0.55290  0.24990  0.24110  Biso   1.000  H
  H68      1.0000 0.67480  0.29030  0.29250  Biso   1.000  H
  H69      1.0000 0.34890  0.43910  0.18790  Biso   1.000  H
  H70      1.0000 0.32450  0.51820  0.25800  Biso   1.000  H
  H71      1.0000 0.19940  0.45780  0.30710  Biso   1.000  H
  H72      1.0000 0.12470  0.25540  0.21050  Biso   1.000  H
  H73      1.0000 0.87290  0.15780  0.29410  Biso   1.000  H
  H74      1.0000 0.00830  0.20000  0.25210  Biso   1.000  H
  H75      1.0000 0.06130  0.42710  0.33860  Biso   1.000  H
  H76      1.0000 0.92480  0.37840  0.37830  Biso   1.000  H
  H77      1.0000 0.24230  0.03080  0.14970  Biso   1.000  H
  H78      1.0000 0.29540  0.90260  0.19780  Biso   1.000  H
  H79      1.0000 0.41490  0.93440  0.25200  Biso   1.000  H
  H80      1.0000 0.40740  0.22590  0.21240  Biso   1.000  H
  H81      1.0000 0.35770  0.96390  0.85620  Biso   1.000  H
  H82      1.0000 0.49150  0.01160  0.81050  Biso   1.000  H
  H83      1.0000 0.44710  0.75010  0.74110  Biso   1.000  H
  H84      1.0000 0.32520  0.70970  0.79250  Biso   1.000  H
  H85      1.0000 0.65110  0.56090  0.68790  Biso   1.000  H
  H86      1.0000 0.67550  0.48180  0.75800  Biso   1.000  H
  H87      1.0000 0.80060  0.54220  0.80710  Biso   1.000  H
  H88      1.0000 0.87530  0.74460  0.71050  Biso   1.000  H
  H89      1.0000 0.12710  0.84220  0.79410  Biso   1.000  H
  H90      1.0000 0.99170  0.80000  0.75210  Biso   1.000  H
  H91      1.0000 0.93870  0.57290  0.83860  Biso   1.000  H
  H92      1.0000 0.07520  0.62160  0.87830  Biso   1.000  H
  H93      1.0000 0.75770  0.96920  0.64970  Biso   1.000  H
  H94      1.0000 0.70460  0.09740  0.69780  Biso   1.000  H
  H95      1.0000 0.58510  0.06560  0.75200  Biso   1.000  H
  H96      1.0000 0.59260  0.77410  0.71240  Biso   1.000  H
  H97      1.0000 0.53610  0.85770  0.60620  Biso   1.000  H
  H98      1.0000 0.48840  0.99150  0.56050  Biso   1.000  H
  H99      1.0000 0.74990  0.94710  0.49110  Biso   1.000  H
  H100     1.0000 0.79030  0.82520  0.54250  Biso   1.000  H
  H101     1.0000 0.93910  0.15110  0.43790  Biso   1.000  H
  H102     1.0000 0.01820  0.17550  0.50800  Biso   1.000  H
  H103     1.0000 0.95780  0.30060  0.55710  Biso   1.000  H
  H104     1.0000 0.75540  0.37530  0.46050  Biso   1.000  H
  H105     1.0000 0.65780  0.62710  0.54410  Biso   1.000  H
  H106     1.0000 0.70000  0.49170  0.50210  Biso   1.000  H
  H107     1.0000 0.92710  0.43870  0.58860  Biso   1.000  H
  H108     1.0000 0.87840  0.57520  0.62830  Biso   1.000  H
  H109     1.0000 0.53080  0.25770  0.39970  Biso   1.000  H
  H110     1.0000 0.40260  0.20460  0.44780  Biso   1.000  H
  H111     1.0000 0.43440  0.08510  0.50200  Biso   1.000  H
  H112     1.0000 0.72590  0.09260  0.46240  Biso   1.000  H
  H113     1.0000 0.46390  0.14230  0.10620  Biso   1.000  H
  H114     1.0000 0.51160  0.00850  0.06050  Biso   1.000  H
  H115     1.0000 0.25010  0.05290  0.99110  Biso   1.000  H
  H116     1.0000 0.20970  0.17480  0.04250  Biso   1.000  H
  H117     1.0000 0.06090  0.84890  0.93790  Biso   1.000  H
  H118     1.0000 0.98180  0.82450  0.00800  Biso   1.000  H
  H119     1.0000 0.04220  0.69940  0.05710  Biso   1.000  H
  H120     1.0000 0.24460  0.62470  0.96050  Biso   1.000  H
  H121     1.0000 0.34220  0.37290  0.04410  Biso   1.000  H
  H122     1.0000 0.30000  0.50830  0.00210  Biso   1.000  H
  H123     1.0000 0.07290  0.56130  0.08860  Biso   1.000  H
  H124     1.0000 0.12160  0.42480  0.12830  Biso   1.000  H
  H125     1.0000 0.46920  0.74230  0.89970  Biso   1.000  H
  H126     1.0000 0.59740  0.79540  0.94780  Biso   1.000  H
  H127     1.0000 0.56560  0.91490  0.00200  Biso   1.000  H
  H128     1.0000 0.27410  0.90740  0.96240  Biso   1.000  H
  C1       1.0000 0.87840  0.58050  0.41660  Biso   1.000  C
  C2       1.0000 0.95840  0.54960  0.44470  Biso   1.000  C
  C3       1.0000 0.98750  0.61220  0.48060  Biso   1.000  C
  C4       1.0000 0.93250  0.70560  0.48520  Biso   1.000  C
  C5       1.0000 0.85840  0.72850  0.45440  Biso   1.000  C
  C6       1.0000 0.20280  0.91640  0.54320  Biso   1.000  C
  C7       1.0000 0.21680  0.96430  0.50060  Biso   1.000  C
  C8       1.0000 0.29270  0.92990  0.47170  Biso   1.000  C
  C9       1.0000 0.35720  0.85220  0.48670  Biso   1.000  C
  C10      1.0000 0.33530  0.80910  0.52960  Biso   1.000  C
  C11      1.0000 0.58810  0.71260  0.44640  Biso   1.000  C
  C12      1.0000 0.50680  0.73760  0.47210  Biso   1.000  C
  C13      1.0000 0.44570  0.81930  0.45990  Biso   1.000  C
  C14      1.0000 0.47570  0.87110  0.42110  Biso   1.000  C
  C15      1.0000 0.55770  0.84140  0.39740  Biso   1.000  C
  C16      1.0000 0.21130  0.54590  0.57750  Biso   1.000  C
  C17      1.0000 0.17800  0.46750  0.54900  Biso   1.000  C
  C18      1.0000 0.10750  0.48610  0.51700  Biso   1.000  C
  C19      1.0000 0.06790  0.58590  0.51270  Biso   1.000  C
  C20      1.0000 0.11270  0.65890  0.54160  Biso   1.000  C
  C21      1.0000 0.12160  0.41950  0.91660  Biso   1.000  C
  C22      1.0000 0.04160  0.45040  0.94470  Biso   1.000  C
  C23      1.0000 0.01250  0.38780  0.98060  Biso   1.000  C
  C24      1.0000 0.06750  0.29440  0.98520  Biso   1.000  C
  C25      1.0000 0.14160  0.27150  0.95440  Biso   1.000  C
  C26      1.0000 0.79720  0.08360  0.04320  Biso   1.000  C
  C27      1.0000 0.78320  0.03570  0.00060  Biso   1.000  C
  C28      1.0000 0.70730  0.07010  0.97170  Biso   1.000  C
  C29      1.0000 0.64280  0.14780  0.98670  Biso   1.000  C
  C30      1.0000 0.66470  0.19090  0.02960  Biso   1.000  C
  C31      1.0000 0.41190  0.28740  0.94640  Biso   1.000  C
  C32      1.0000 0.49320  0.26240  0.97210  Biso   1.000  C
  C33      1.0000 0.55430  0.18070  0.95990  Biso   1.000  C
  C34      1.0000 0.52430  0.12890  0.92110  Biso   1.000  C
  C35      1.0000 0.44230  0.15860  0.89740  Biso   1.000  C
  C36      1.0000 0.78870  0.45410  0.07750  Biso   1.000  C
  C37      1.0000 0.82200  0.53250  0.04900  Biso   1.000  C
  C38      1.0000 0.89250  0.51390  0.01700  Biso   1.000  C
  C39      1.0000 0.93210  0.41410  0.01270  Biso   1.000  C
  C40      1.0000 0.88730  0.34110  0.04160  Biso   1.000  C
  C41      1.0000 0.91950  0.37840  0.16660  Biso   1.000  C
  C42      1.0000 0.95040  0.45840  0.19470  Biso   1.000  C
  C43      1.0000 0.88780  0.48750  0.23060  Biso   1.000  C
  C44      1.0000 0.79440  0.43250  0.23520  Biso   1.000  C
  C45      1.0000 0.77150  0.35840  0.20440  Biso   1.000  C
  C46      1.0000 0.58360  0.70280  0.29320  Biso   1.000  C
  C47      1.0000 0.53570  0.71680  0.25060  Biso   1.000  C
  C48      1.0000 0.57010  0.79270  0.22170  Biso   1.000  C
  C49      1.0000 0.64780  0.85720  0.23670  Biso   1.000  C
  C50      1.0000 0.69090  0.83530  0.27960  Biso   1.000  C
  C51      1.0000 0.78740  0.08810  0.19640  Biso   1.000  C
  C52      1.0000 0.76240  0.00680  0.22210  Biso   1.000  C
  C53      1.0000 0.68070  0.94570  0.20990  Biso   1.000  C
  C54      1.0000 0.62890  0.97570  0.17110  Biso   1.000  C
  C55      1.0000 0.65860  0.05770  0.14740  Biso   1.000  C
  C56      1.0000 0.95410  0.71130  0.32750  Biso   1.000  C
  C57      1.0000 0.03250  0.67800  0.29900  Biso   1.000  C
  C58      1.0000 0.01390  0.60750  0.26700  Biso   1.000  C
  C59      1.0000 0.91410  0.56790  0.26270  Biso   1.000  C
  C60      1.0000 0.84110  0.61270  0.29160  Biso   1.000  C
  C61      1.0000 0.08050  0.62160  0.66660  Biso   1.000  C
  C62      1.0000 0.04960  0.54160  0.69470  Biso   1.000  C
  C63      1.0000 0.11220  0.51250  0.73060  Biso   1.000  C
  C64      1.0000 0.20560  0.56750  0.73520  Biso   1.000  C
  C65      1.0000 0.22850  0.64160  0.70440  Biso   1.000  C
  C66      1.0000 0.41640  0.29720  0.79320  Biso   1.000  C
  C67      1.0000 0.46430  0.28320  0.75060  Biso   1.000  C
  C68      1.0000 0.42990  0.20730  0.72170  Biso   1.000  C
  C69      1.0000 0.35220  0.14280  0.73670  Biso   1.000  C
  C70      1.0000 0.30910  0.16470  0.77960  Biso   1.000  C
  C71      1.0000 0.21260  0.91190  0.69640  Biso   1.000  C
  C72      1.0000 0.23760  0.99320  0.72210  Biso   1.000  C
  C73      1.0000 0.31930  0.05430  0.70990  Biso   1.000  C
  C74      1.0000 0.37110  0.02430  0.67110  Biso   1.000  C
  C75      1.0000 0.34140  0.94230  0.64740  Biso   1.000  C
  C76      1.0000 0.04590  0.28870  0.82750  Biso   1.000  C
  C77      1.0000 0.96750  0.32200  0.79900  Biso   1.000  C
  C78      1.0000 0.98610  0.39250  0.76700  Biso   1.000  C
  C79      1.0000 0.08590  0.43210  0.76270  Biso   1.000  C
  C80      1.0000 0.15890  0.38730  0.79160  Biso   1.000  C
  C81      1.0000 0.62160  0.08050  0.33340  Biso   1.000  C
  C82      1.0000 0.54160  0.04960  0.30530  Biso   1.000  C
  C83      1.0000 0.51250  0.11220  0.26940  Biso   1.000  C
  C84      1.0000 0.56750  0.20560  0.26480  Biso   1.000  C
  C85      1.0000 0.64160  0.22850  0.29560  Biso   1.000  C
  C86      1.0000 0.29720  0.41640  0.20680  Biso   1.000  C
  C87      1.0000 0.28320  0.46430  0.24940  Biso   1.000  C
  C88      1.0000 0.20730  0.42990  0.27830  Biso   1.000  C
  C89      1.0000 0.14280  0.35220  0.26330  Biso   1.000  C
  C90      1.0000 0.16470  0.30910  0.22040  Biso   1.000  C
  C91      1.0000 0.91190  0.21260  0.30360  Biso   1.000  C
  C92      1.0000 0.99320  0.23760  0.27790  Biso   1.000  C
  C93      1.0000 0.05430  0.31930  0.29010  Biso   1.000  C
  C94      1.0000 0.02430  0.37110  0.32890  Biso   1.000  C
  C95      1.0000 0.94230  0.34140  0.35260  Biso   1.000  C
  C96      1.0000 0.28870  0.04590  0.17250  Biso   1.000  C
  C97      1.0000 0.32200  0.96750  0.20100  Biso   1.000  C
  C98      1.0000 0.39250  0.98610  0.23300  Biso   1.000  C
  C99      1.0000 0.43210  0.08590  0.23730  Biso   1.000  C
  C100     1.0000 0.38730  0.15890  0.20840  Biso   1.000  C
  C101     1.0000 0.37840  0.91950  0.83340  Biso   1.000  C
  C102     1.0000 0.45840  0.95040  0.80530  Biso   1.000  C
  C103     1.0000 0.48750  0.88780  0.76940  Biso   1.000  C
  C104     1.0000 0.43250  0.79440  0.76480  Biso   1.000  C
  C105     1.0000 0.35840  0.77150  0.79560  Biso   1.000  C
  C106     1.0000 0.70280  0.58360  0.70680  Biso   1.000  C
  C107     1.0000 0.71680  0.53570  0.74940  Biso   1.000  C
  C108     1.0000 0.79270  0.57010  0.77830  Biso   1.000  C
  C109     1.0000 0.85720  0.64780  0.76330  Biso   1.000  C
  C110     1.0000 0.83530  0.69090  0.72040  Biso   1.000  C
  C111     1.0000 0.08810  0.78740  0.80360  Biso   1.000  C
  C112     1.0000 0.00680  0.76240  0.77790  Biso   1.000  C
  C113     1.0000 0.94570  0.68070  0.79010  Biso   1.000  C
  C114     1.0000 0.97570  0.62890  0.82890  Biso   1.000  C
  C115     1.0000 0.05770  0.65860  0.85260  Biso   1.000  C
  C116     1.0000 0.71130  0.95410  0.67250  Biso   1.000  C
  C117     1.0000 0.67800  0.03250  0.70100  Biso   1.000  C
  C118     1.0000 0.60750  0.01390  0.73300  Biso   1.000  C
  C119     1.0000 0.56790  0.91410  0.73730  Biso   1.000  C
  C120     1.0000 0.61270  0.84110  0.70840  Biso   1.000  C
  C121     1.0000 0.58050  0.87840  0.58340  Biso   1.000  C
  C122     1.0000 0.54960  0.95840  0.55530  Biso   1.000  C
  C123     1.0000 0.61220  0.98750  0.51940  Biso   1.000  C
  C124     1.0000 0.70560  0.93250  0.51480  Biso   1.000  C
  C125     1.0000 0.72850  0.85840  0.54560  Biso   1.000  C
  C126     1.0000 0.91640  0.20280  0.45680  Biso   1.000  C
  C127     1.0000 0.96430  0.21680  0.49940  Biso   1.000  C
  C128     1.0000 0.92990  0.29270  0.52830  Biso   1.000  C
  C129     1.0000 0.85220  0.35720  0.51330  Biso   1.000  C
  C130     1.0000 0.80910  0.33530  0.47040  Biso   1.000  C
  C131     1.0000 0.71260  0.58810  0.55360  Biso   1.000  C
  C132     1.0000 0.73760  0.50680  0.52790  Biso   1.000  C
  C133     1.0000 0.81930  0.44570  0.54010  Biso   1.000  C
  C134     1.0000 0.87110  0.47570  0.57890  Biso   1.000  C
  C135     1.0000 0.84140  0.55770  0.60260  Biso   1.000  C
  C136     1.0000 0.54590  0.21130  0.42250  Biso   1.000  C
  C137     1.0000 0.46750  0.17800  0.45100  Biso   1.000  C
  C138     1.0000 0.48610  0.10750  0.48300  Biso   1.000  C
  C139     1.0000 0.58590  0.06790  0.48730  Biso   1.000  C
  C140     1.0000 0.65890  0.11270  0.45840  Biso   1.000  C
  C141     1.0000 0.41950  0.12160  0.08340  Biso   1.000  C
  C142     1.0000 0.45040  0.04160  0.05530  Biso   1.000  C
  C143     1.0000 0.38780  0.01250  0.01940  Biso   1.000  C
  C144     1.0000 0.29440  0.06750  0.01480  Biso   1.000  C
  C145     1.0000 0.27150  0.14160  0.04560  Biso   1.000  C
  C146     1.0000 0.08360  0.79720  0.95680  Biso   1.000  C
  C147     1.0000 0.03570  0.78320  0.99940  Biso   1.000  C
  C148     1.0000 0.07010  0.70730  0.02830  Biso   1.000  C
  C149     1.0000 0.14780  0.64280  0.01330  Biso   1.000  C
  C150     1.0000 0.19090  0.66470  0.97040  Biso   1.000  C
  C151     1.0000 0.28740  0.41190  0.05360  Biso   1.000  C
  C152     1.0000 0.26240  0.49320  0.02790  Biso   1.000  C
  C153     1.0000 0.18070  0.55430  0.04010  Biso   1.000  C
  C154     1.0000 0.12890  0.52430  0.07890  Biso   1.000  C
  C155     1.0000 0.15860  0.44230  0.10260  Biso   1.000  C
  C156     1.0000 0.45410  0.78870  0.92250  Biso   1.000  C
  C157     1.0000 0.53250  0.82200  0.95100  Biso   1.000  C
  C158     1.0000 0.51390  0.89250  0.98300  Biso   1.000  C
  C159     1.0000 0.41410  0.93210  0.98730  Biso   1.000  C
  C160     1.0000 0.34110  0.88730  0.95840  Biso   1.000  C
  N1       1.0000 0.83020  0.66790  0.41990  Biso   1.000  N
  N2       1.0000 0.61680  0.76040  0.40870  Biso   1.000  N
  N3       1.0000 0.26050  0.84080  0.55700  Biso   1.000  N
  N4       1.0000 0.17890  0.64160  0.57310  Biso   1.000  N
  N5       1.0000 0.16980  0.33210  0.91990  Biso   1.000  N
  N6       1.0000 0.38320  0.23960  0.90870  Biso   1.000  N
  N7       1.0000 0.73950  0.15920  0.05700  Biso   1.000  N
  N8       1.0000 0.82110  0.35840  0.07310  Biso   1.000  N
  N9       1.0000 0.83210  0.33020  0.16990  Biso   1.000  N
  N10      1.0000 0.73960  0.11680  0.15870  Biso   1.000  N
  N11      1.0000 0.65920  0.76050  0.30700  Biso   1.000  N
  N12      1.0000 0.85840  0.67890  0.32310  Biso   1.000  N
  N13      1.0000 0.16790  0.66980  0.66990  Biso   1.000  N
  N14      1.0000 0.26040  0.88320  0.65870  Biso   1.000  N
  N15      1.0000 0.34080  0.23950  0.80700  Biso   1.000  N
  N16      1.0000 0.14160  0.32110  0.82310  Biso   1.000  N
  N17      1.0000 0.66980  0.16790  0.33010  Biso   1.000  N
  N18      1.0000 0.88320  0.26040  0.34130  Biso   1.000  N
  N19      1.0000 0.23950  0.34080  0.19300  Biso   1.000  N
  N20      1.0000 0.32110  0.14160  0.17690  Biso   1.000  N
  N21      1.0000 0.33020  0.83210  0.83010  Biso   1.000  N
  N22      1.0000 0.11680  0.73960  0.84130  Biso   1.000  N
  N23      1.0000 0.76050  0.65920  0.69300  Biso   1.000  N
  N24      1.0000 0.67890  0.85840  0.67690  Biso   1.000  N
  N25      1.0000 0.66790  0.83020  0.58010  Biso   1.000  N
  N26      1.0000 0.76040  0.61680  0.59130  Biso   1.000  N
  N27      1.0000 0.84080  0.26050  0.44300  Biso   1.000  N
  N28      1.0000 0.64160  0.17890  0.42690  Biso   1.000  N
  N29      1.0000 0.33210  0.16980  0.08010  Biso   1.000  N
  N30      1.0000 0.23960  0.38320  0.09130  Biso   1.000  N
  N31      1.0000 0.15920  0.73950  0.94300  Biso   1.000  N
  N32      1.0000 0.35840  0.82110  0.92690  Biso   1.000  N
  O1       1.0000 0.58330  0.47070  0.43650  Biso   1.000  O
  O2       1.0000 0.68140  0.57770  0.36310  Biso   1.000  O
  O3       1.0000 0.51280  0.44540  0.34470  Biso   1.000  O
  O4       1.0000 0.70600  0.36250  0.37530  Biso   1.000  O
  O5       1.0000 0.41670  0.52930  0.93650  Biso   1.000  O
  O6       1.0000 0.31860  0.42230  0.86310  Biso   1.000  O
  O7       1.0000 0.48720  0.55460  0.84470  Biso   1.000  O
  O8       1.0000 0.29400  0.63750  0.87530  Biso   1.000  O
  O9       1.0000 0.02930  0.08330  0.18650  Biso   1.000  O
  O10      1.0000 0.92230  0.18140  0.11310  Biso   1.000  O
  O11      1.0000 0.05460  0.01280  0.09470  Biso   1.000  O
  O12      1.0000 0.13750  0.20600  0.12530  Biso   1.000  O
  O13      1.0000 0.97070  0.91670  0.68650  Biso   1.000  O
  O14      1.0000 0.07770  0.81860  0.61310  Biso   1.000  O
  O15      1.0000 0.94540  0.98720  0.59470  Biso   1.000  O
  O16      1.0000 0.86250  0.79400  0.62530  Biso   1.000  O
  O17      1.0000 0.91670  0.97070  0.31350  Biso   1.000  O
  O18      1.0000 0.81860  0.07770  0.38690  Biso   1.000  O
  O19      1.0000 0.98720  0.94540  0.40530  Biso   1.000  O
  O20      1.0000 0.79400  0.86250  0.37470  Biso   1.000  O
  O21      1.0000 0.08330  0.02930  0.81350  Biso   1.000  O
  O22      1.0000 0.18140  0.92230  0.88690  Biso   1.000  O
  O23      1.0000 0.01280  0.05460  0.90530  Biso   1.000  O
  O24      1.0000 0.20600  0.13750  0.87470  Biso   1.000  O
  O25      1.0000 0.47070  0.58330  0.56350  Biso   1.000  O
  O26      1.0000 0.57770  0.68140  0.63690  Biso   1.000  O
  O27      1.0000 0.44540  0.51280  0.65530  Biso   1.000  O
  O28      1.0000 0.36250  0.70600  0.62470  Biso   1.000  O
  O29      1.0000 0.52930  0.41670  0.06350  Biso   1.000  O
  O30      1.0000 0.42230  0.31860  0.13690  Biso   1.000  O
  O31      1.0000 0.55460  0.48720  0.15530  Biso   1.000  O
  O32      1.0000 0.63750  0.29400  0.12470  Biso   1.000  O
