data_image0
_cell_length_a       3.5521
_cell_length_b       12.9977
_cell_length_c       15.8665
_cell_angle_alpha    90
_cell_angle_beta     90
_cell_angle_gamma    95.285

_symmetry_space_group_name_H-M    P 1
_symmetry_int_tables_number       1

loop_
  _symmetry_equiv_pos_as_xyz
  'x, y, z'

loop_
  _atom_site_label
  _atom_site_occupancy
  _atom_site_fract_x
  _atom_site_fract_y
  _atom_site_fract_z
  _atom_site_thermal_displace_type
  _atom_site_B_iso_or_equiv
  _atom_site_type_symbol
  Cu1      1.0000 0.73444  0.50430  0.42254  Biso   1.000  Cu
  Cu2      1.0000 0.76556  0.99570  0.92254  Biso   1.000  Cu
  Cu3      1.0000 0.26556  0.49570  0.57746  Biso   1.000  Cu
  Cu4      1.0000 0.23444  0.00430  0.07746  Biso   1.000  Cu
  H1       1.0000 0.69000  0.36750  0.51500  Biso   1.000  H
  H2       1.0000 0.02270  0.09430  0.37570  Biso   1.000  H
  H3       1.0000 0.16370  0.33510  0.21810  Biso   1.000  H
  H4       1.0000 0.16150  0.98890  0.26630  Biso   1.000  H
  H5       1.0000 0.30020  0.22340  0.11340  Biso   1.000  H
  H6       1.0000 0.81000  0.13250  0.01500  Biso   1.000  H
  H7       1.0000 0.47730  0.40570  0.87570  Biso   1.000  H
  H8       1.0000 0.33630  0.16490  0.71810  Biso   1.000  H
  H9       1.0000 0.33850  0.51110  0.76630  Biso   1.000  H
  H10      1.0000 0.19980  0.27660  0.61340  Biso   1.000  H
  H11      1.0000 0.31000  0.63250  0.48500  Biso   1.000  H
  H12      1.0000 0.97730  0.90570  0.62430  Biso   1.000  H
  H13      1.0000 0.83630  0.66490  0.78190  Biso   1.000  H
  H14      1.0000 0.83850  0.01110  0.73370  Biso   1.000  H
  H15      1.0000 0.69980  0.77660  0.88660  Biso   1.000  H
  H16      1.0000 0.19000  0.86750  0.98500  Biso   1.000  H
  H17      1.0000 0.52270  0.59430  0.12430  Biso   1.000  H
  H18      1.0000 0.66370  0.83510  0.28190  Biso   1.000  H
  H19      1.0000 0.66150  0.48890  0.23370  Biso   1.000  H
  H20      1.0000 0.80020  0.72340  0.38660  Biso   1.000  H
  C1       1.0000 0.94640  0.29764  0.37784  Biso   1.000  C
  C2       1.0000 0.06690  0.22717  0.30846  Biso   1.000  C
  C3       1.0000 0.07390  0.12204  0.32250  Biso   1.000  C
  C4       1.0000 0.15760  0.26473  0.22922  Biso   1.000  C
  C5       1.0000 0.15790  0.05931  0.25633  Biso   1.000  C
  C6       1.0000 0.23900  0.19712  0.16663  Biso   1.000  C
  C7       1.0000 0.55360  0.20236  0.87784  Biso   1.000  C
  C8       1.0000 0.43310  0.27283  0.80846  Biso   1.000  C
  C9       1.0000 0.42610  0.37796  0.82250  Biso   1.000  C
  C10      1.0000 0.34240  0.23527  0.72922  Biso   1.000  C
  C11      1.0000 0.34210  0.44069  0.75633  Biso   1.000  C
  C12      1.0000 0.26100  0.30288  0.66663  Biso   1.000  C
  C13      1.0000 0.05360  0.70236  0.62216  Biso   1.000  C
  C14      1.0000 0.93310  0.77283  0.69154  Biso   1.000  C
  C15      1.0000 0.92610  0.87796  0.67750  Biso   1.000  C
  C16      1.0000 0.84240  0.73527  0.77078  Biso   1.000  C
  C17      1.0000 0.84210  0.94069  0.74367  Biso   1.000  C
  C18      1.0000 0.76100  0.80288  0.83337  Biso   1.000  C
  C19      1.0000 0.44640  0.79764  0.12216  Biso   1.000  C
  C20      1.0000 0.56690  0.72717  0.19154  Biso   1.000  C
  C21      1.0000 0.57390  0.62204  0.17750  Biso   1.000  C
  C22      1.0000 0.65760  0.76473  0.27078  Biso   1.000  C
  C23      1.0000 0.65790  0.55931  0.24367  Biso   1.000  C
  C24      1.0000 0.73900  0.69712  0.33337  Biso   1.000  C
  N1       1.0000 0.23410  0.09479  0.17886  Biso   1.000  N
  N2       1.0000 0.26590  0.40521  0.67886  Biso   1.000  N
  N3       1.0000 0.76590  0.90521  0.82114  Biso   1.000  N
  N4       1.0000 0.73410  0.59479  0.32114  Biso   1.000  N
  O1       1.0000 0.69360  0.43012  0.52842  Biso   1.000  O
  O2       1.0000 0.96410  0.39266  0.35873  Biso   1.000  O
  O3       1.0000 0.83690  0.25785  0.44540  Biso   1.000  O
  O4       1.0000 0.80640  0.06988  0.02842  Biso   1.000  O
  O5       1.0000 0.53590  0.10734  0.85873  Biso   1.000  O
  O6       1.0000 0.66310  0.24215  0.94540  Biso   1.000  O
  O7       1.0000 0.30640  0.56988  0.47158  Biso   1.000  O
  O8       1.0000 0.03590  0.60734  0.64127  Biso   1.000  O
  O9       1.0000 0.16310  0.74215  0.55460  Biso   1.000  O
  O10      1.0000 0.19360  0.93012  0.97158  Biso   1.000  O
  O11      1.0000 0.46410  0.89266  0.14127  Biso   1.000  O
  O12      1.0000 0.33690  0.75785  0.05460  Biso   1.000  O
