data_image0
_cell_length_a       9.675
_cell_length_b       17.489
_cell_length_c       14.354
_cell_angle_alpha    75.416
_cell_angle_beta     90
_cell_angle_gamma    90

_symmetry_space_group_name_H-M    P 1
_symmetry_int_tables_number       1

loop_
  _symmetry_equiv_pos_as_xyz
  'x, y, z'

loop_
  _atom_site_label
  _atom_site_occupancy
  _atom_site_fract_x
  _atom_site_fract_y
  _atom_site_fract_z
  _atom_site_thermal_displace_type
  _atom_site_B_iso_or_equiv
  _atom_site_type_symbol
  Cd1      1.0000 0.45497  0.67853  0.45142  Biso   1.000  Cd
  Cd2      1.0000 0.96228  0.83239  0.54799  Biso   1.000  Cd
  Cd3      1.0000 0.95497  0.32147  0.04858  Biso   1.000  Cd
  Cd4      1.0000 0.46228  0.16761  0.95201  Biso   1.000  Cd
  Cd5      1.0000 0.54503  0.32147  0.54858  Biso   1.000  Cd
  Cd6      1.0000 0.03772  0.16761  0.45201  Biso   1.000  Cd
  Cd7      1.0000 0.04503  0.67853  0.95142  Biso   1.000  Cd
  Cd8      1.0000 0.53772  0.83239  0.04799  Biso   1.000  Cd
  C1       1.0000 0.24410  0.72160  0.62690  Biso   1.000  C
  C2       1.0000 0.14740  0.75680  0.39810  Biso   1.000  C
  C3       1.0000 0.34580  0.48250  0.44890  Biso   1.000  C
  C4       1.0000 0.63030  0.70030  0.24210  Biso   1.000  C
  C5       1.0000 0.65380  0.84260  0.44620  Biso   1.000  C
  C6       1.0000 0.92430  0.00360  0.60380  Biso   1.000  C
  C7       1.0000 0.74410  0.27840  0.87310  Biso   1.000  C
  C8       1.0000 0.64740  0.24320  0.10190  Biso   1.000  C
  C9       1.0000 0.84580  0.51750  0.05110  Biso   1.000  C
  C10      1.0000 0.13030  0.29970  0.25790  Biso   1.000  C
  C11      1.0000 0.15380  0.15740  0.05380  Biso   1.000  C
  C12      1.0000 0.42430  0.99640  0.89620  Biso   1.000  C
  C13      1.0000 0.75590  0.27840  0.37310  Biso   1.000  C
  C14      1.0000 0.85260  0.24320  0.60190  Biso   1.000  C
  C15      1.0000 0.65420  0.51750  0.55110  Biso   1.000  C
  C16      1.0000 0.36970  0.29970  0.75790  Biso   1.000  C
  C17      1.0000 0.34620  0.15740  0.55380  Biso   1.000  C
  C18      1.0000 0.07570  0.99640  0.39620  Biso   1.000  C
  C19      1.0000 0.25590  0.72160  0.12690  Biso   1.000  C
  C20      1.0000 0.35260  0.75680  0.89810  Biso   1.000  C
  C21      1.0000 0.15420  0.48250  0.94890  Biso   1.000  C
  C22      1.0000 0.86970  0.70030  0.74210  Biso   1.000  C
  C23      1.0000 0.84620  0.84260  0.94620  Biso   1.000  C
  C24      1.0000 0.57570  0.00360  0.10380  Biso   1.000  C
  S1       1.0000 0.37941  0.66377  0.63875  Biso   1.000  S
  S2       1.0000 0.97787  0.75808  0.40345  Biso   1.000  S
  S3       1.0000 0.26830  0.56822  0.40984  Biso   1.000  S
  S4       1.0000 0.72118  0.72478  0.14196  Biso   1.000  S
  S5       1.0000 0.75115  0.91953  0.44469  Biso   1.000  S
  S6       1.0000 0.95725  0.91902  0.68031  Biso   1.000  S
  S7       1.0000 0.87941  0.33623  0.86125  Biso   1.000  S
  S8       1.0000 0.47787  0.24192  0.09655  Biso   1.000  S
  S9       1.0000 0.76830  0.43178  0.09016  Biso   1.000  S
  S10      1.0000 0.22118  0.27522  0.35804  Biso   1.000  S
  S11      1.0000 0.25115  0.08047  0.05531  Biso   1.000  S
  S12      1.0000 0.45725  0.08098  0.81969  Biso   1.000  S
  S13      1.0000 0.62059  0.33623  0.36125  Biso   1.000  S
  S14      1.0000 0.02213  0.24192  0.59655  Biso   1.000  S
  S15      1.0000 0.73170  0.43178  0.59016  Biso   1.000  S
  S16      1.0000 0.27882  0.27522  0.85804  Biso   1.000  S
  S17      1.0000 0.24885  0.08047  0.55531  Biso   1.000  S
  S18      1.0000 0.04275  0.08098  0.31969  Biso   1.000  S
  S19      1.0000 0.12059  0.66377  0.13875  Biso   1.000  S
  S20      1.0000 0.52213  0.75808  0.90345  Biso   1.000  S
  S21      1.0000 0.23170  0.56822  0.90984  Biso   1.000  S
  S22      1.0000 0.77882  0.72478  0.64196  Biso   1.000  S
  S23      1.0000 0.74885  0.91953  0.94469  Biso   1.000  S
  S24      1.0000 0.54275  0.91902  0.18031  Biso   1.000  S
  N1       1.0000 0.15000  0.76230  0.61820  Biso   1.000  N
  N2       1.0000 0.26790  0.75630  0.39320  Biso   1.000  N
  N3       1.0000 0.39650  0.42190  0.47640  Biso   1.000  N
  N4       1.0000 0.56870  0.68110  0.31220  Biso   1.000  N
  N5       1.0000 0.58370  0.78880  0.45040  Biso   1.000  N
  N6       1.0000 0.89960  0.06310  0.54990  Biso   1.000  N
  N7       1.0000 0.65000  0.23770  0.88180  Biso   1.000  N
  N8       1.0000 0.76790  0.24370  0.10680  Biso   1.000  N
  N9       1.0000 0.89650  0.57810  0.02360  Biso   1.000  N
  N10      1.0000 0.06870  0.31890  0.18780  Biso   1.000  N
  N11      1.0000 0.08370  0.21120  0.04960  Biso   1.000  N
  N12      1.0000 0.39960  0.93690  0.95010  Biso   1.000  N
  N13      1.0000 0.85000  0.23770  0.38180  Biso   1.000  N
  N14      1.0000 0.73210  0.24370  0.60680  Biso   1.000  N
  N15      1.0000 0.60350  0.57810  0.52360  Biso   1.000  N
  N16      1.0000 0.43130  0.31890  0.68780  Biso   1.000  N
  N17      1.0000 0.41630  0.21120  0.54960  Biso   1.000  N
  N18      1.0000 0.10040  0.93690  0.45010  Biso   1.000  N
  N19      1.0000 0.35000  0.76230  0.11820  Biso   1.000  N
  N20      1.0000 0.23210  0.75630  0.89320  Biso   1.000  N
  N21      1.0000 0.10350  0.42190  0.97640  Biso   1.000  N
  N22      1.0000 0.93130  0.68110  0.81220  Biso   1.000  N
  N23      1.0000 0.91630  0.78880  0.95040  Biso   1.000  N
  N24      1.0000 0.60040  0.06310  0.04990  Biso   1.000  N
