data_image0
_cell_length_a       7.68
_cell_length_b       10.029
_cell_length_c       25.786
_cell_angle_alpha    90
_cell_angle_beta     93.779
_cell_angle_gamma    90

_symmetry_space_group_name_H-M    P 1
_symmetry_int_tables_number       1

loop_
  _symmetry_equiv_pos_as_xyz
  'x, y, z'

loop_
  _atom_site_label
  _atom_site_occupancy
  _atom_site_fract_x
  _atom_site_fract_y
  _atom_site_fract_z
  _atom_site_thermal_displace_type
  _atom_site_B_iso_or_equiv
  _atom_site_type_symbol
  Cd1      1.0000 0.73472  0.25815  0.76152  Biso   1.000  Cd
  Cd2      1.0000 0.26528  0.75815  0.73848  Biso   1.000  Cd
  Cd3      1.0000 0.26528  0.74185  0.23848  Biso   1.000  Cd
  Cd4      1.0000 0.73472  0.24185  0.26152  Biso   1.000  Cd
  H1       1.0000 0.66360  0.51510  0.68890  Biso   1.000  H
  H2       1.0000 0.52810  0.59170  0.61330  Biso   1.000  H
  H3       1.0000 0.31600  0.23030  0.59050  Biso   1.000  H
  H4       1.0000 0.45710  0.16330  0.66720  Biso   1.000  H
  H5       1.0000 0.05470  0.58650  0.38670  Biso   1.000  H
  H6       1.0000 0.89510  0.50260  0.31610  Biso   1.000  H
  H7       1.0000 0.89370  0.14820  0.37660  Biso   1.000  H
  H8       1.0000 0.05470  0.22090  0.44990  Biso   1.000  H
  H9       1.0000 0.33640  0.01510  0.81110  Biso   1.000  H
  H10      1.0000 0.47190  0.09170  0.88670  Biso   1.000  H
  H11      1.0000 0.68400  0.73030  0.90950  Biso   1.000  H
  H12      1.0000 0.54290  0.66330  0.83280  Biso   1.000  H
  H13      1.0000 0.94530  0.08650  0.11330  Biso   1.000  H
  H14      1.0000 0.10490  0.00260  0.18390  Biso   1.000  H
  H15      1.0000 0.10630  0.64820  0.12340  Biso   1.000  H
  H16      1.0000 0.94530  0.72090  0.05010  Biso   1.000  H
  H17      1.0000 0.33640  0.48490  0.31110  Biso   1.000  H
  H18      1.0000 0.47190  0.40830  0.38670  Biso   1.000  H
  H19      1.0000 0.68400  0.76970  0.40950  Biso   1.000  H
  H20      1.0000 0.54290  0.83670  0.33280  Biso   1.000  H
  H21      1.0000 0.94530  0.41350  0.61330  Biso   1.000  H
  H22      1.0000 0.10490  0.49740  0.68390  Biso   1.000  H
  H23      1.0000 0.10630  0.85180  0.62340  Biso   1.000  H
  H24      1.0000 0.94530  0.77910  0.55010  Biso   1.000  H
  H25      1.0000 0.66360  0.98490  0.18890  Biso   1.000  H
  H26      1.0000 0.52810  0.90830  0.11330  Biso   1.000  H
  H27      1.0000 0.31600  0.26970  0.09050  Biso   1.000  H
  H28      1.0000 0.45710  0.33670  0.16720  Biso   1.000  H
  H29      1.0000 0.05470  0.91350  0.88670  Biso   1.000  H
  H30      1.0000 0.89510  0.99740  0.81610  Biso   1.000  H
  H31      1.0000 0.89370  0.35180  0.87660  Biso   1.000  H
  H32      1.0000 0.05470  0.27910  0.94990  Biso   1.000  H
  C1       1.0000 0.59400  0.45670  0.66862  Biso   1.000  C
  C2       1.0000 0.51330  0.50350  0.62323  Biso   1.000  C
  C3       1.0000 0.40960  0.41830  0.59221  Biso   1.000  C
  C4       1.0000 0.38750  0.28960  0.60970  Biso   1.000  C
  C5       1.0000 0.47270  0.25010  0.65580  Biso   1.000  C
  C6       1.0000 0.32900  0.46710  0.54380  Biso   1.000  C
  C7       1.0000 0.17980  0.46430  0.47082  Biso   1.000  C
  C8       1.0000 0.07490  0.41100  0.42609  Biso   1.000  C
  C9       1.0000 0.02440  0.49670  0.38534  Biso   1.000  C
  C10      1.0000 0.92900  0.44530  0.34327  Biso   1.000  C
  C11      1.0000 0.92790  0.23710  0.37870  Biso   1.000  C
  C12      1.0000 0.02470  0.27980  0.42300  Biso   1.000  C
  C13      1.0000 0.09620  0.07220  0.71455  Biso   1.000  C
  C14      1.0000 0.38220  0.44770  0.78190  Biso   1.000  C
  C15      1.0000 0.40600  0.95670  0.83138  Biso   1.000  C
  C16      1.0000 0.48670  0.00350  0.87677  Biso   1.000  C
  C17      1.0000 0.59040  0.91830  0.90779  Biso   1.000  C
  C18      1.0000 0.61250  0.78960  0.89030  Biso   1.000  C
  C19      1.0000 0.52730  0.75010  0.84420  Biso   1.000  C
  C20      1.0000 0.67100  0.96710  0.95620  Biso   1.000  C
  C21      1.0000 0.82020  0.96430  0.02918  Biso   1.000  C
  C22      1.0000 0.92510  0.91100  0.07391  Biso   1.000  C
  C23      1.0000 0.97560  0.99670  0.11466  Biso   1.000  C
  C24      1.0000 0.07100  0.94530  0.15673  Biso   1.000  C
  C25      1.0000 0.07210  0.73710  0.12130  Biso   1.000  C
  C26      1.0000 0.97530  0.77980  0.07700  Biso   1.000  C
  C27      1.0000 0.90380  0.57220  0.78545  Biso   1.000  C
  C28      1.0000 0.61780  0.94770  0.71810  Biso   1.000  C
  C29      1.0000 0.40600  0.54330  0.33138  Biso   1.000  C
  C30      1.0000 0.48670  0.49650  0.37677  Biso   1.000  C
  C31      1.0000 0.59040  0.58170  0.40779  Biso   1.000  C
  C32      1.0000 0.61250  0.71040  0.39030  Biso   1.000  C
  C33      1.0000 0.52730  0.74990  0.34420  Biso   1.000  C
  C34      1.0000 0.67100  0.53290  0.45620  Biso   1.000  C
  C35      1.0000 0.82020  0.53570  0.52918  Biso   1.000  C
  C36      1.0000 0.92510  0.58900  0.57391  Biso   1.000  C
  C37      1.0000 0.97560  0.50330  0.61466  Biso   1.000  C
  C38      1.0000 0.07100  0.55470  0.65673  Biso   1.000  C
  C39      1.0000 0.07210  0.76290  0.62130  Biso   1.000  C
  C40      1.0000 0.97530  0.72020  0.57700  Biso   1.000  C
  C41      1.0000 0.90380  0.92780  0.28545  Biso   1.000  C
  C42      1.0000 0.61780  0.55230  0.21810  Biso   1.000  C
  C43      1.0000 0.59400  0.04330  0.16862  Biso   1.000  C
  C44      1.0000 0.51330  0.99650  0.12323  Biso   1.000  C
  C45      1.0000 0.40960  0.08170  0.09221  Biso   1.000  C
  C46      1.0000 0.38750  0.21040  0.10970  Biso   1.000  C
  C47      1.0000 0.47270  0.24990  0.15580  Biso   1.000  C
  C48      1.0000 0.32900  0.03290  0.04380  Biso   1.000  C
  C49      1.0000 0.17980  0.03570  0.97082  Biso   1.000  C
  C50      1.0000 0.07490  0.08900  0.92609  Biso   1.000  C
  C51      1.0000 0.02440  0.00330  0.88534  Biso   1.000  C
  C52      1.0000 0.92900  0.05470  0.84327  Biso   1.000  C
  C53      1.0000 0.92790  0.26290  0.87870  Biso   1.000  C
  C54      1.0000 0.02470  0.22020  0.92300  Biso   1.000  C
  C55      1.0000 0.09620  0.42780  0.21455  Biso   1.000  C
  C56      1.0000 0.38220  0.05230  0.28190  Biso   1.000  C
  S1       1.0000 0.01920  0.22135  0.70196  Biso   1.000  S
  S2       1.0000 0.44770  0.31494  0.81555  Biso   1.000  S
  S3       1.0000 0.98080  0.72135  0.79804  Biso   1.000  S
  S4       1.0000 0.55230  0.81494  0.68445  Biso   1.000  S
  S5       1.0000 0.98080  0.77865  0.29804  Biso   1.000  S
  S6       1.0000 0.55230  0.68506  0.18445  Biso   1.000  S
  S7       1.0000 0.01920  0.27865  0.20196  Biso   1.000  S
  S8       1.0000 0.44770  0.18506  0.31555  Biso   1.000  S
  N1       1.0000 0.57780  0.33210  0.68513  Biso   1.000  N
  N2       1.0000 0.33500  0.58680  0.52518  Biso   1.000  N
  N3       1.0000 0.23830  0.58410  0.47707  Biso   1.000  N
  N4       1.0000 0.88200  0.31770  0.33909  Biso   1.000  N
  N5       1.0000 0.15280  0.96910  0.72373  Biso   1.000  N
  N6       1.0000 0.34120  0.54200  0.75839  Biso   1.000  N
  N7       1.0000 0.42220  0.83210  0.81487  Biso   1.000  N
  N8       1.0000 0.66500  0.08680  0.97482  Biso   1.000  N
  N9       1.0000 0.76170  0.08410  0.02293  Biso   1.000  N
  N10      1.0000 0.11800  0.81770  0.16091  Biso   1.000  N
  N11      1.0000 0.84720  0.46910  0.77627  Biso   1.000  N
  N12      1.0000 0.65880  0.04200  0.74161  Biso   1.000  N
  N13      1.0000 0.42220  0.66790  0.31487  Biso   1.000  N
  N14      1.0000 0.66500  0.41320  0.47482  Biso   1.000  N
  N15      1.0000 0.76170  0.41590  0.52293  Biso   1.000  N
  N16      1.0000 0.11800  0.68230  0.66091  Biso   1.000  N
  N17      1.0000 0.84720  0.03090  0.27627  Biso   1.000  N
  N18      1.0000 0.65880  0.45800  0.24161  Biso   1.000  N
  N19      1.0000 0.57780  0.16790  0.18513  Biso   1.000  N
  N20      1.0000 0.33500  0.91320  0.02518  Biso   1.000  N
  N21      1.0000 0.23830  0.91590  0.97707  Biso   1.000  N
  N22      1.0000 0.88200  0.18230  0.83909  Biso   1.000  N
  N23      1.0000 0.15280  0.53090  0.22373  Biso   1.000  N
  N24      1.0000 0.34120  0.95800  0.25839  Biso   1.000  N
  O1       1.0000 0.23170  0.38320  0.51169  Biso   1.000  O
  O2       1.0000 0.76830  0.88320  0.98831  Biso   1.000  O
  O3       1.0000 0.76830  0.61680  0.48831  Biso   1.000  O
  O4       1.0000 0.23170  0.11680  0.01169  Biso   1.000  O
