data_image0
_cell_length_a       13.5451
_cell_length_b       13.5451
_cell_length_c       23.0394
_cell_angle_alpha    90
_cell_angle_beta     90
_cell_angle_gamma    120

_symmetry_space_group_name_H-M    P 1
_symmetry_int_tables_number       1

loop_
  _symmetry_equiv_pos_as_xyz
  'x, y, z'

loop_
  _atom_site_label
  _atom_site_occupancy
  _atom_site_fract_x
  _atom_site_fract_y
  _atom_site_fract_z
  _atom_site_thermal_displace_type
  _atom_site_B_iso_or_equiv
  _atom_site_type_symbol
  Yb1      1.0000 0.60258  0.00000  0.00000  Biso   1.000  Yb
  Yb2      1.0000 0.39742  0.39742  0.66667  Biso   1.000  Yb
  Yb3      1.0000 1.00000  0.60258  0.33333  Biso   1.000  Yb
  Co1      1.0000 0.23185  0.90074  0.79304  Biso   1.000  Co
  Co2      1.0000 0.66889  0.76815  0.45971  Biso   1.000  Co
  Co3      1.0000 0.09926  0.33111  0.12637  Biso   1.000  Co
  Co4      1.0000 0.33111  0.09926  0.20696  Biso   1.000  Co
  Co5      1.0000 0.90074  0.23185  0.54029  Biso   1.000  Co
  Co6      1.0000 0.76815  0.66889  0.87363  Biso   1.000  Co
  Co7      1.0000 1.00000  0.79653  0.83333  Biso   1.000  Co
  Co8      1.0000 0.79653  0.00000  0.50000  Biso   1.000  Co
  Co9      1.0000 0.20347  0.20347  0.16667  Biso   1.000  Co
  H1       1.0000 0.38260  0.93990  0.86310  Biso   1.000  H
  H2       1.0000 0.42830  0.03560  0.82110  Biso   1.000  H
  H3       1.0000 0.31680  0.08860  0.74930  Biso   1.000  H
  H4       1.0000 0.36170  0.02330  0.71840  Biso   1.000  H
  H5       1.0000 0.26150  0.78220  0.72020  Biso   1.000  H
  H6       1.0000 0.37040  0.84890  0.75260  Biso   1.000  H
  H7       1.0000 0.21890  0.06200  0.93330  Biso   1.000  H
  H8       1.0000 0.20580  0.93740  0.92920  Biso   1.000  H
  H9       1.0000 0.37620  0.13820  0.86970  Biso   1.000  H
  H10      1.0000 0.04430  0.92660  0.67090  Biso   1.000  H
  H11      1.0000 0.08670  0.99700  0.73060  Biso   1.000  H
  H12      1.0000 0.22600  0.95000  0.65440  Biso   1.000  H
  H13      1.0000 0.12260  0.58220  0.83780  Biso   1.000  H
  H14      1.0000 0.08910  0.62820  0.78100  Biso   1.000  H
  H15      1.0000 0.31620  0.72920  0.82690  Biso   1.000  H
  H16      1.0000 0.55730  0.61740  0.52977  Biso   1.000  H
  H17      1.0000 0.60730  0.57170  0.48777  Biso   1.000  H
  H18      1.0000 0.77180  0.68320  0.41597  Biso   1.000  H
  H19      1.0000 0.66160  0.63830  0.38507  Biso   1.000  H
  H20      1.0000 0.52070  0.73850  0.38687  Biso   1.000  H
  H21      1.0000 0.47850  0.62960  0.41927  Biso   1.000  H
  H22      1.0000 0.84310  0.78110  0.59997  Biso   1.000  H
  H23      1.0000 0.73160  0.79420  0.59587  Biso   1.000  H
  H24      1.0000 0.76200  0.62380  0.53637  Biso   1.000  H
  H25      1.0000 0.88230  0.95570  0.33757  Biso   1.000  H
  H26      1.0000 0.91030  0.91330  0.39727  Biso   1.000  H
  H27      1.0000 0.72400  0.77400  0.32107  Biso   1.000  H
  H28      1.0000 0.45960  0.87740  0.50447  Biso   1.000  H
  H29      1.0000 0.53910  0.91090  0.44767  Biso   1.000  H
  H30      1.0000 0.41300  0.68380  0.49357  Biso   1.000  H
  H31      1.0000 0.06010  0.44270  0.19643  Biso   1.000  H
  H32      1.0000 0.96440  0.39270  0.15443  Biso   1.000  H
  H33      1.0000 0.91140  0.22820  0.08263  Biso   1.000  H
  H34      1.0000 0.97670  0.33840  0.05173  Biso   1.000  H
  H35      1.0000 0.21780  0.47930  0.05353  Biso   1.000  H
  H36      1.0000 0.15110  0.52150  0.08593  Biso   1.000  H
  H37      1.0000 0.93800  0.15690  0.26663  Biso   1.000  H
  H38      1.0000 0.06260  0.26840  0.26253  Biso   1.000  H
  H39      1.0000 0.86180  0.23800  0.20303  Biso   1.000  H
  H40      1.0000 0.07340  0.11770  0.00423  Biso   1.000  H
  H41      1.0000 0.00300  0.08970  0.06393  Biso   1.000  H
  H42      1.0000 0.05000  0.27600  0.98773  Biso   1.000  H
  H43      1.0000 0.41780  0.54040  0.17113  Biso   1.000  H
  H44      1.0000 0.37180  0.46090  0.11433  Biso   1.000  H
  H45      1.0000 0.27080  0.58700  0.16023  Biso   1.000  H
  H46      1.0000 0.44270  0.06010  0.13690  Biso   1.000  H
  H47      1.0000 0.39270  0.96440  0.17890  Biso   1.000  H
  H48      1.0000 0.22820  0.91140  0.25070  Biso   1.000  H
  H49      1.0000 0.33840  0.97670  0.28160  Biso   1.000  H
  H50      1.0000 0.47930  0.21780  0.27980  Biso   1.000  H
  H51      1.0000 0.52150  0.15110  0.24740  Biso   1.000  H
  H52      1.0000 0.15690  0.93800  0.06670  Biso   1.000  H
  H53      1.0000 0.26840  0.06260  0.07080  Biso   1.000  H
  H54      1.0000 0.23800  0.86180  0.13030  Biso   1.000  H
  H55      1.0000 0.11770  0.07340  0.32910  Biso   1.000  H
  H56      1.0000 0.08970  0.00300  0.26940  Biso   1.000  H
  H57      1.0000 0.27600  0.05000  0.34560  Biso   1.000  H
  H58      1.0000 0.54040  0.41780  0.16220  Biso   1.000  H
  H59      1.0000 0.46090  0.37180  0.21900  Biso   1.000  H
  H60      1.0000 0.58700  0.27080  0.17310  Biso   1.000  H
  H61      1.0000 0.93990  0.38260  0.47023  Biso   1.000  H
  H62      1.0000 0.03560  0.42830  0.51223  Biso   1.000  H
  H63      1.0000 0.08860  0.31680  0.58403  Biso   1.000  H
  H64      1.0000 0.02330  0.36170  0.61493  Biso   1.000  H
  H65      1.0000 0.78220  0.26150  0.61313  Biso   1.000  H
  H66      1.0000 0.84890  0.37040  0.58073  Biso   1.000  H
  H67      1.0000 0.06200  0.21890  0.40003  Biso   1.000  H
  H68      1.0000 0.93740  0.20580  0.40413  Biso   1.000  H
  H69      1.0000 0.13820  0.37620  0.46363  Biso   1.000  H
  H70      1.0000 0.92660  0.04430  0.66243  Biso   1.000  H
  H71      1.0000 0.99700  0.08670  0.60273  Biso   1.000  H
  H72      1.0000 0.95000  0.22600  0.67893  Biso   1.000  H
  H73      1.0000 0.58220  0.12260  0.49553  Biso   1.000  H
  H74      1.0000 0.62820  0.08910  0.55233  Biso   1.000  H
  H75      1.0000 0.72920  0.31620  0.50643  Biso   1.000  H
  H76      1.0000 0.61740  0.55730  0.80357  Biso   1.000  H
  H77      1.0000 0.57170  0.60730  0.84557  Biso   1.000  H
  H78      1.0000 0.68320  0.77180  0.91737  Biso   1.000  H
  H79      1.0000 0.63830  0.66160  0.94827  Biso   1.000  H
  H80      1.0000 0.73850  0.52070  0.94647  Biso   1.000  H
  H81      1.0000 0.62960  0.47850  0.91407  Biso   1.000  H
  H82      1.0000 0.78110  0.84310  0.73337  Biso   1.000  H
  H83      1.0000 0.79420  0.73160  0.73747  Biso   1.000  H
  H84      1.0000 0.62380  0.76200  0.79697  Biso   1.000  H
  H85      1.0000 0.95570  0.88230  0.99577  Biso   1.000  H
  H86      1.0000 0.91330  0.91030  0.93607  Biso   1.000  H
  H87      1.0000 0.77400  0.72400  0.01227  Biso   1.000  H
  H88      1.0000 0.87740  0.45960  0.82887  Biso   1.000  H
  H89      1.0000 0.91090  0.53910  0.88567  Biso   1.000  H
  H90      1.0000 0.68380  0.41300  0.83977  Biso   1.000  H
  C1       1.0000 0.22910  0.00900  0.90770  Biso   1.000  C
  C2       1.0000 0.35360  0.06290  0.88800  Biso   1.000  C
  C3       1.0000 0.43230  0.08370  0.94080  Biso   1.000  C
  C4       1.0000 0.09720  0.94550  0.70400  Biso   1.000  C
  C5       1.0000 0.21950  0.00230  0.68280  Biso   1.000  C
  C6       1.0000 0.25330  0.11420  0.65200  Biso   1.000  C
  C7       1.0000 0.14300  0.65050  0.81390  Biso   1.000  C
  C8       1.0000 0.26470  0.70350  0.79240  Biso   1.000  C
  C9       1.0000 0.27980  0.61180  0.76040  Biso   1.000  C
  C10      1.0000 0.77990  0.77090  0.57437  Biso   1.000  C
  C11      1.0000 0.70930  0.64640  0.55467  Biso   1.000  C
  C12      1.0000 0.65140  0.56770  0.60747  Biso   1.000  C
  C13      1.0000 0.84830  0.90280  0.37067  Biso   1.000  C
  C14      1.0000 0.78280  0.78050  0.34947  Biso   1.000  C
  C15      1.0000 0.86090  0.74670  0.31867  Biso   1.000  C
  C16      1.0000 0.50750  0.85700  0.48057  Biso   1.000  C
  C17      1.0000 0.43880  0.73530  0.45907  Biso   1.000  C
  C18      1.0000 0.33200  0.72020  0.42707  Biso   1.000  C
  C19      1.0000 0.99100  0.22010  0.24103  Biso   1.000  C
  C20      1.0000 0.93710  0.29070  0.22133  Biso   1.000  C
  C21      1.0000 0.91630  0.34860  0.27413  Biso   1.000  C
  C22      1.0000 0.05450  0.15170  0.03733  Biso   1.000  C
  C23      1.0000 0.99770  0.21720  0.01613  Biso   1.000  C
  C24      1.0000 0.88580  0.13910  0.98533  Biso   1.000  C
  C25      1.0000 0.34950  0.49250  0.14723  Biso   1.000  C
  C26      1.0000 0.29650  0.56120  0.12573  Biso   1.000  C
  C27      1.0000 0.38820  0.66800  0.09373  Biso   1.000  C
  C28      1.0000 0.22010  0.99100  0.09230  Biso   1.000  C
  C29      1.0000 0.29070  0.93710  0.11200  Biso   1.000  C
  C30      1.0000 0.34860  0.91630  0.05920  Biso   1.000  C
  C31      1.0000 0.15170  0.05450  0.29600  Biso   1.000  C
  C32      1.0000 0.21720  0.99770  0.31720  Biso   1.000  C
  C33      1.0000 0.13910  0.88580  0.34800  Biso   1.000  C
  C34      1.0000 0.49250  0.34950  0.18610  Biso   1.000  C
  C35      1.0000 0.56120  0.29650  0.20760  Biso   1.000  C
  C36      1.0000 0.66800  0.38820  0.23960  Biso   1.000  C
  C37      1.0000 0.00900  0.22910  0.42563  Biso   1.000  C
  C38      1.0000 0.06290  0.35360  0.44533  Biso   1.000  C
  C39      1.0000 0.08370  0.43230  0.39253  Biso   1.000  C
  C40      1.0000 0.94550  0.09720  0.62933  Biso   1.000  C
  C41      1.0000 0.00230  0.21950  0.65053  Biso   1.000  C
  C42      1.0000 0.11420  0.25330  0.68133  Biso   1.000  C
  C43      1.0000 0.65050  0.14300  0.51943  Biso   1.000  C
  C44      1.0000 0.70350  0.26470  0.54093  Biso   1.000  C
  C45      1.0000 0.61180  0.27980  0.57293  Biso   1.000  C
  C46      1.0000 0.77090  0.77990  0.75897  Biso   1.000  C
  C47      1.0000 0.64640  0.70930  0.77867  Biso   1.000  C
  C48      1.0000 0.56770  0.65140  0.72587  Biso   1.000  C
  C49      1.0000 0.90280  0.84830  0.96267  Biso   1.000  C
  C50      1.0000 0.78050  0.78280  0.98387  Biso   1.000  C
  C51      1.0000 0.74670  0.86090  0.01467  Biso   1.000  C
  C52      1.0000 0.85700  0.50750  0.85277  Biso   1.000  C
  C53      1.0000 0.73530  0.43880  0.87427  Biso   1.000  C
  C54      1.0000 0.72020  0.33200  0.90627  Biso   1.000  C
  S1       1.0000 0.14424  0.98019  0.84142  Biso   1.000  S
  S2       1.0000 0.06954  0.81599  0.74207  Biso   1.000  S
  S3       1.0000 0.13988  0.76040  0.85688  Biso   1.000  S
  S4       1.0000 0.83595  0.85576  0.50809  Biso   1.000  S
  S5       1.0000 0.74645  0.93046  0.40874  Biso   1.000  S
  S6       1.0000 0.62052  0.86012  0.52355  Biso   1.000  S
  S7       1.0000 0.01981  0.16405  0.17475  Biso   1.000  S
  S8       1.0000 0.18401  0.25355  0.07540  Biso   1.000  S
  S9       1.0000 0.23960  0.37948  0.19021  Biso   1.000  S
  S10      1.0000 0.16405  0.01981  0.15858  Biso   1.000  S
  S11      1.0000 0.25355  0.18401  0.25793  Biso   1.000  S
  S12      1.0000 0.37948  0.23960  0.14312  Biso   1.000  S
  S13      1.0000 0.98019  0.14424  0.49191  Biso   1.000  S
  S14      1.0000 0.81599  0.06954  0.59126  Biso   1.000  S
  S15      1.0000 0.76040  0.13988  0.47645  Biso   1.000  S
  S16      1.0000 0.85576  0.83595  0.82525  Biso   1.000  S
  S17      1.0000 0.93046  0.74645  0.92460  Biso   1.000  S
  S18      1.0000 0.86012  0.62052  0.80979  Biso   1.000  S
  N1       1.0000 0.36660  0.99000  0.84410  Biso   1.000  N
  N2       1.0000 0.29630  0.01940  0.73250  Biso   1.000  N
  N3       1.0000 0.29250  0.80520  0.75660  Biso   1.000  N
  N4       1.0000 0.62340  0.63340  0.51077  Biso   1.000  N
  N5       1.0000 0.72310  0.70370  0.39917  Biso   1.000  N
  N6       1.0000 0.51270  0.70750  0.42327  Biso   1.000  N
  N7       1.0000 0.01000  0.37660  0.17743  Biso   1.000  N
  N8       1.0000 0.98060  0.27690  0.06583  Biso   1.000  N
  N9       1.0000 0.19480  0.48730  0.08993  Biso   1.000  N
  N10      1.0000 0.37660  0.01000  0.15590  Biso   1.000  N
  N11      1.0000 0.27690  0.98060  0.26750  Biso   1.000  N
  N12      1.0000 0.48730  0.19480  0.24340  Biso   1.000  N
  N13      1.0000 0.99000  0.36660  0.48923  Biso   1.000  N
  N14      1.0000 0.01940  0.29630  0.60083  Biso   1.000  N
  N15      1.0000 0.80520  0.29250  0.57673  Biso   1.000  N
  N16      1.0000 0.63340  0.62340  0.82257  Biso   1.000  N
  N17      1.0000 0.70370  0.72310  0.93417  Biso   1.000  N
  N18      1.0000 0.70750  0.51270  0.91007  Biso   1.000  N
  O1       1.0000 0.48350  0.02890  0.94098  Biso   1.000  O
  O2       1.0000 0.43590  0.15070  0.97915  Biso   1.000  O
  O3       1.0000 0.32260  0.20330  0.67883  Biso   1.000  O
  O4       1.0000 0.21170  0.11050  0.60308  Biso   1.000  O
  O5       1.0000 0.32310  0.56340  0.78830  Biso   1.000  O
  O6       1.0000 0.24180  0.58900  0.70960  Biso   1.000  O
  O7       1.0000 0.67870  0.04770  0.90537  Biso   1.000  O
  O8       1.0000 0.45490  0.82040  0.97041  Biso   1.000  O
  O9       1.0000 0.54540  0.51650  0.60765  Biso   1.000  O
  O10      1.0000 0.71480  0.56410  0.64582  Biso   1.000  O
  O11      1.0000 0.88070  0.67740  0.34550  Biso   1.000  O
  O12      1.0000 0.89880  0.78830  0.26975  Biso   1.000  O
  O13      1.0000 0.24030  0.67690  0.45497  Biso   1.000  O
  O14      1.0000 0.34720  0.75820  0.37627  Biso   1.000  O
  O15      1.0000 0.36900  0.32130  0.57204  Biso   1.000  O
  O16      1.0000 0.36550  0.54510  0.63708  Biso   1.000  O
  O17      1.0000 0.97110  0.45460  0.27431  Biso   1.000  O
  O18      1.0000 0.84930  0.28520  0.31248  Biso   1.000  O
  O19      1.0000 0.79670  0.11930  0.01216  Biso   1.000  O
  O20      1.0000 0.88950  0.10120  0.93641  Biso   1.000  O
  O21      1.0000 0.43660  0.75970  0.12163  Biso   1.000  O
  O22      1.0000 0.41100  0.65280  0.04293  Biso   1.000  O
  O23      1.0000 0.95230  0.63100  0.23870  Biso   1.000  O
  O24      1.0000 0.17960  0.63450  0.30374  Biso   1.000  O
  O25      1.0000 0.45460  0.97110  0.05902  Biso   1.000  O
  O26      1.0000 0.28520  0.84930  0.02085  Biso   1.000  O
  O27      1.0000 0.11930  0.79670  0.32117  Biso   1.000  O
  O28      1.0000 0.10120  0.88950  0.39692  Biso   1.000  O
  O29      1.0000 0.75970  0.43660  0.21170  Biso   1.000  O
  O30      1.0000 0.65280  0.41100  0.29040  Biso   1.000  O
  O31      1.0000 0.63100  0.95230  0.09463  Biso   1.000  O
  O32      1.0000 0.63450  0.17960  0.02959  Biso   1.000  O
  O33      1.0000 0.02890  0.48350  0.39235  Biso   1.000  O
  O34      1.0000 0.15070  0.43590  0.35418  Biso   1.000  O
  O35      1.0000 0.20330  0.32260  0.65450  Biso   1.000  O
  O36      1.0000 0.11050  0.21170  0.73025  Biso   1.000  O
  O37      1.0000 0.56340  0.32310  0.54503  Biso   1.000  O
  O38      1.0000 0.58900  0.24180  0.62373  Biso   1.000  O
  O39      1.0000 0.04770  0.67870  0.42796  Biso   1.000  O
  O40      1.0000 0.82040  0.45490  0.36292  Biso   1.000  O
  O41      1.0000 0.51650  0.54540  0.72569  Biso   1.000  O
  O42      1.0000 0.56410  0.71480  0.68752  Biso   1.000  O
  O43      1.0000 0.67740  0.88070  0.98784  Biso   1.000  O
  O44      1.0000 0.78830  0.89880  0.06359  Biso   1.000  O
  O45      1.0000 0.67690  0.24030  0.87837  Biso   1.000  O
  O46      1.0000 0.75820  0.34720  0.95707  Biso   1.000  O
  O47      1.0000 0.32130  0.36900  0.76130  Biso   1.000  O
  O48      1.0000 0.54510  0.36550  0.69626  Biso   1.000  O
