data_image0
_cell_length_a       8.72531
_cell_length_b       12.7809
_cell_length_c       19.4746
_cell_angle_alpha    90
_cell_angle_beta     90
_cell_angle_gamma    109.959

_symmetry_space_group_name_H-M    P 1
_symmetry_int_tables_number       1

loop_
  _symmetry_equiv_pos_as_xyz
  'x, y, z'

loop_
  _atom_site_label
  _atom_site_occupancy
  _atom_site_fract_x
  _atom_site_fract_y
  _atom_site_fract_z
  _atom_site_thermal_displace_type
  _atom_site_B_iso_or_equiv
  _atom_site_type_symbol
  Nd1      1.0000 0.25807  0.51614  0.50000  Biso   1.000  Nd
  Nd2      1.0000 0.74193  0.48386  0.00000  Biso   1.000  Nd
  Nd3      1.0000 0.74193  0.48386  0.50000  Biso   1.000  Nd
  Nd4      1.0000 0.25807  0.51614  0.00000  Biso   1.000  Nd
  H1       1.0000 0.23900  0.90320  0.54160  Biso   1.000  H
  H2       1.0000 0.66280  0.66600  0.68680  Biso   1.000  H
  H3       1.0000 0.66020  0.54040  0.68400  Biso   1.000  H
  H4       1.0000 0.18090  0.29120  0.57460  Biso   1.000  H
  H5       1.0000 0.33700  0.32100  0.55320  Biso   1.000  H
  H6       1.0000 0.76100  0.09680  0.04160  Biso   1.000  H
  H7       1.0000 0.33720  0.33400  0.18680  Biso   1.000  H
  H8       1.0000 0.33980  0.45960  0.18400  Biso   1.000  H
  H9       1.0000 0.81910  0.70880  0.07460  Biso   1.000  H
  H10      1.0000 0.66300  0.67900  0.05320  Biso   1.000  H
  H11      1.0000 0.33580  0.09680  0.95840  Biso   1.000  H
  H12      1.0000 0.99680  0.33400  0.81320  Biso   1.000  H
  H13      1.0000 0.11980  0.45960  0.81600  Biso   1.000  H
  H14      1.0000 0.88970  0.70880  0.92540  Biso   1.000  H
  H15      1.0000 0.01600  0.67900  0.94680  Biso   1.000  H
  H16      1.0000 0.66420  0.90320  0.45840  Biso   1.000  H
  H17      1.0000 0.00320  0.66600  0.31320  Biso   1.000  H
  H18      1.0000 0.88020  0.54040  0.31600  Biso   1.000  H
  H19      1.0000 0.11030  0.29120  0.42540  Biso   1.000  H
  H20      1.0000 0.98400  0.32100  0.44680  Biso   1.000  H
  H21      1.0000 0.76100  0.09680  0.45840  Biso   1.000  H
  H22      1.0000 0.33720  0.33400  0.31320  Biso   1.000  H
  H23      1.0000 0.33980  0.45960  0.31600  Biso   1.000  H
  H24      1.0000 0.81910  0.70880  0.42540  Biso   1.000  H
  H25      1.0000 0.66300  0.67900  0.44680  Biso   1.000  H
  H26      1.0000 0.23900  0.90320  0.95840  Biso   1.000  H
  H27      1.0000 0.66280  0.66600  0.81320  Biso   1.000  H
  H28      1.0000 0.66020  0.54040  0.81600  Biso   1.000  H
  H29      1.0000 0.18090  0.29120  0.92540  Biso   1.000  H
  H30      1.0000 0.33700  0.32100  0.94680  Biso   1.000  H
  H31      1.0000 0.66420  0.90320  0.04160  Biso   1.000  H
  H32      1.0000 0.00320  0.66600  0.18680  Biso   1.000  H
  H33      1.0000 0.88020  0.54040  0.18400  Biso   1.000  H
  H34      1.0000 0.11030  0.29120  0.07460  Biso   1.000  H
  H35      1.0000 0.98400  0.32100  0.05320  Biso   1.000  H
  H36      1.0000 0.33580  0.09680  0.54160  Biso   1.000  H
  H37      1.0000 0.99680  0.33400  0.68680  Biso   1.000  H
  H38      1.0000 0.11980  0.45960  0.68400  Biso   1.000  H
  H39      1.0000 0.88970  0.70880  0.57460  Biso   1.000  H
  H40      1.0000 0.01600  0.67900  0.55320  Biso   1.000  H
  H41      1.0000 0.41280  0.60420  0.75000  Biso   1.000  H
  H42      1.0000 0.42030  0.48100  0.75000  Biso   1.000  H
  H43      1.0000 0.58720  0.39580  0.25000  Biso   1.000  H
  H44      1.0000 0.57970  0.51900  0.25000  Biso   1.000  H
  H45      1.0000 0.80860  0.39580  0.75000  Biso   1.000  H
  H46      1.0000 0.93930  0.51900  0.75000  Biso   1.000  H
  H47      1.0000 0.19140  0.60420  0.25000  Biso   1.000  H
  H48      1.0000 0.06070  0.48100  0.25000  Biso   1.000  H
  C1       1.0000 0.34531  0.94242  0.52466  Biso   1.000  C
  C2       1.0000 0.49228  0.56876  0.61974  Biso   1.000  C
  C3       1.0000 0.59026  0.58732  0.68508  Biso   1.000  C
  C4       1.0000 0.65469  0.05758  0.02466  Biso   1.000  C
  C5       1.0000 0.50772  0.43124  0.11974  Biso   1.000  C
  C6       1.0000 0.40974  0.41268  0.18508  Biso   1.000  C
  C7       1.0000 0.40289  0.05758  0.97534  Biso   1.000  C
  C8       1.0000 0.92352  0.43124  0.88026  Biso   1.000  C
  C9       1.0000 0.00294  0.41268  0.81492  Biso   1.000  C
  C10      1.0000 0.59711  0.94242  0.47534  Biso   1.000  C
  C11      1.0000 0.07648  0.56876  0.38026  Biso   1.000  C
  C12      1.0000 0.99706  0.58732  0.31492  Biso   1.000  C
  C13      1.0000 0.65469  0.05758  0.47534  Biso   1.000  C
  C14      1.0000 0.50772  0.43124  0.38026  Biso   1.000  C
  C15      1.0000 0.40974  0.41268  0.31492  Biso   1.000  C
  C16      1.0000 0.34531  0.94242  0.97534  Biso   1.000  C
  C17      1.0000 0.49228  0.56876  0.88026  Biso   1.000  C
  C18      1.0000 0.59026  0.58732  0.81492  Biso   1.000  C
  C19      1.0000 0.59711  0.94242  0.02466  Biso   1.000  C
  C20      1.0000 0.07648  0.56876  0.11974  Biso   1.000  C
  C21      1.0000 0.99706  0.58732  0.18508  Biso   1.000  C
  C22      1.0000 0.40289  0.05758  0.52466  Biso   1.000  C
  C23      1.0000 0.92352  0.43124  0.61974  Biso   1.000  C
  C24      1.0000 0.00294  0.41268  0.68508  Biso   1.000  C
  C25      1.0000 0.37958  0.75916  0.50000  Biso   1.000  C
  C26      1.0000 0.44175  0.88350  0.50000  Biso   1.000  C
  C27      1.0000 0.62042  0.24084  0.00000  Biso   1.000  C
  C28      1.0000 0.55825  0.11650  0.00000  Biso   1.000  C
  C29      1.0000 0.62042  0.24084  0.50000  Biso   1.000  C
  C30      1.0000 0.55825  0.11650  0.50000  Biso   1.000  C
  C31      1.0000 0.37958  0.75916  0.00000  Biso   1.000  C
  C32      1.0000 0.44175  0.88350  0.00000  Biso   1.000  C
  C33      1.0000 0.48764  0.56088  0.75000  Biso   1.000  C
  C34      1.0000 0.51236  0.43912  0.25000  Biso   1.000  C
  C35      1.0000 0.92676  0.43912  0.75000  Biso   1.000  C
  C36      1.0000 0.07324  0.56088  0.25000  Biso   1.000  C
  O1       1.0000 0.23509  0.70698  0.51954  Biso   1.000  O
  O2       1.0000 0.35586  0.58272  0.61886  Biso   1.000  O
  O3       1.0000 0.54654  0.53908  0.56543  Biso   1.000  O
  O4       1.0000 0.26283  0.34606  0.56379  Biso   1.000  O
  O5       1.0000 0.76491  0.29302  0.01954  Biso   1.000  O
  O6       1.0000 0.64414  0.41728  0.11886  Biso   1.000  O
  O7       1.0000 0.45346  0.46092  0.06543  Biso   1.000  O
  O8       1.0000 0.73717  0.65394  0.06379  Biso   1.000  O
  O9       1.0000 0.52811  0.29302  0.98046  Biso   1.000  O
  O10      1.0000 0.77314  0.41728  0.88114  Biso   1.000  O
  O11      1.0000 0.00746  0.46092  0.93457  Biso   1.000  O
  O12      1.0000 0.91677  0.65394  0.93621  Biso   1.000  O
  O13      1.0000 0.47189  0.70698  0.48046  Biso   1.000  O
  O14      1.0000 0.22686  0.58272  0.38114  Biso   1.000  O
  O15      1.0000 0.99254  0.53908  0.43457  Biso   1.000  O
  O16      1.0000 0.08323  0.34606  0.43621  Biso   1.000  O
  O17      1.0000 0.76491  0.29302  0.48046  Biso   1.000  O
  O18      1.0000 0.64414  0.41728  0.38114  Biso   1.000  O
  O19      1.0000 0.45346  0.46092  0.43457  Biso   1.000  O
  O20      1.0000 0.73717  0.65394  0.43621  Biso   1.000  O
  O21      1.0000 0.23509  0.70698  0.98046  Biso   1.000  O
  O22      1.0000 0.35586  0.58272  0.88114  Biso   1.000  O
  O23      1.0000 0.54654  0.53908  0.93457  Biso   1.000  O
  O24      1.0000 0.26283  0.34606  0.93621  Biso   1.000  O
  O25      1.0000 0.47189  0.70698  0.01954  Biso   1.000  O
  O26      1.0000 0.22686  0.58272  0.11886  Biso   1.000  O
  O27      1.0000 0.99254  0.53908  0.06543  Biso   1.000  O
  O28      1.0000 0.08323  0.34606  0.06379  Biso   1.000  O
  O29      1.0000 0.52811  0.29302  0.51954  Biso   1.000  O
  O30      1.0000 0.77314  0.41728  0.61886  Biso   1.000  O
  O31      1.0000 0.00746  0.46092  0.56543  Biso   1.000  O
  O32      1.0000 0.91677  0.65394  0.56379  Biso   1.000  O
