data_image0
_cell_length_a       12.5477
_cell_length_b       15.3893
_cell_length_c       15.3893
_cell_angle_alpha    80.433
_cell_angle_beta     65.941
_cell_angle_gamma    65.941

_symmetry_space_group_name_H-M    P 1
_symmetry_int_tables_number       1

loop_
  _symmetry_equiv_pos_as_xyz
  'x, y, z'

loop_
  _atom_site_label
  _atom_site_occupancy
  _atom_site_fract_x
  _atom_site_fract_y
  _atom_site_fract_z
  _atom_site_thermal_displace_type
  _atom_site_B_iso_or_equiv
  _atom_site_type_symbol
  Cu1      1.0000 0.50000  0.00000  0.00000  Biso   1.000  Cu
  Cu2      1.0000 0.00000  0.50000  0.50000  Biso   1.000  Cu
  Cu3      1.0000 0.50000  0.00000  0.50000  Biso   1.000  Cu
  Cu4      1.0000 0.50000  0.50000  0.00000  Biso   1.000  Cu
  H1       1.0000 0.56650  0.04640  0.78680  Biso   1.000  H
  H2       1.0000 0.32140  0.20760  0.01240  Biso   1.000  H
  H3       1.0000 0.27380  0.33850  0.91610  Biso   1.000  H
  H4       1.0000 0.37120  0.32230  0.75230  Biso   1.000  H
  H5       1.0000 0.52070  0.17220  0.68700  Biso   1.000  H
  H6       1.0000 0.89970  0.45360  0.71320  Biso   1.000  H
  H7       1.0000 0.04140  0.29240  0.48760  Biso   1.000  H
  H8       1.0000 0.02840  0.16150  0.58390  Biso   1.000  H
  H9       1.0000 0.94580  0.17770  0.74770  Biso   1.000  H
  H10      1.0000 0.87990  0.32780  0.81300  Biso   1.000  H
  H11      1.0000 0.35330  0.21320  0.54640  Biso   1.000  H
  H12      1.0000 0.33380  0.98760  0.70760  Biso   1.000  H
  H13      1.0000 0.18990  0.08390  0.83850  Biso   1.000  H
  H14      1.0000 0.12350  0.24770  0.82230  Biso   1.000  H
  H15      1.0000 0.20770  0.31300  0.67220  Biso   1.000  H
  H16      1.0000 0.61290  0.28680  0.95360  Biso   1.000  H
  H17      1.0000 0.52900  0.51240  0.79240  Biso   1.000  H
  H18      1.0000 0.61230  0.41610  0.66150  Biso   1.000  H
  H19      1.0000 0.69350  0.25230  0.67770  Biso   1.000  H
  H20      1.0000 0.69290  0.18700  0.82780  Biso   1.000  H
  H21      1.0000 0.43350  0.95360  0.21320  Biso   1.000  H
  H22      1.0000 0.67860  0.79240  0.98760  Biso   1.000  H
  H23      1.0000 0.72620  0.66150  0.08390  Biso   1.000  H
  H24      1.0000 0.62880  0.67770  0.24770  Biso   1.000  H
  H25      1.0000 0.47930  0.82780  0.31300  Biso   1.000  H
  H26      1.0000 0.10030  0.54640  0.28680  Biso   1.000  H
  H27      1.0000 0.95860  0.70760  0.51240  Biso   1.000  H
  H28      1.0000 0.97160  0.83850  0.41610  Biso   1.000  H
  H29      1.0000 0.05420  0.82230  0.25230  Biso   1.000  H
  H30      1.0000 0.12010  0.67220  0.18700  Biso   1.000  H
  H31      1.0000 0.64670  0.78680  0.45360  Biso   1.000  H
  H32      1.0000 0.66620  0.01240  0.29240  Biso   1.000  H
  H33      1.0000 0.81010  0.91610  0.16150  Biso   1.000  H
  H34      1.0000 0.87650  0.75230  0.17770  Biso   1.000  H
  H35      1.0000 0.79230  0.68700  0.32780  Biso   1.000  H
  H36      1.0000 0.38710  0.71320  0.04640  Biso   1.000  H
  H37      1.0000 0.47100  0.48760  0.20760  Biso   1.000  H
  H38      1.0000 0.38770  0.58390  0.33850  Biso   1.000  H
  H39      1.0000 0.30650  0.74770  0.32230  Biso   1.000  H
  H40      1.0000 0.30710  0.81300  0.17220  Biso   1.000  H
  W1       1.0000 0.62500  0.75000  0.75000  Biso   1.000  W
  W2       1.0000 0.37500  0.25000  0.25000  Biso   1.000  W
  C1       1.0000 0.56760  0.85550  0.85010  Biso   1.000  C
  C2       1.0000 0.50570  0.10640  0.81400  Biso   1.000  C
  C3       1.0000 0.76200  0.69000  0.81800  Biso   1.000  C
  C4       1.0000 0.36350  0.20030  0.94530  Biso   1.000  C
  C5       1.0000 0.33390  0.27860  0.88820  Biso   1.000  C
  C6       1.0000 0.39100  0.26930  0.79250  Biso   1.000  C
  C7       1.0000 0.47930  0.18070  0.75410  Biso   1.000  C
  C8       1.0000 0.77320  0.64450  0.64990  Biso   1.000  C
  C9       1.0000 0.92610  0.39360  0.68600  Biso   1.000  C
  C10      1.0000 0.77000  0.81000  0.68200  Biso   1.000  C
  C11      1.0000 0.00910  0.29970  0.55470  Biso   1.000  C
  C12      1.0000 0.00070  0.22140  0.61180  Biso   1.000  C
  C13      1.0000 0.95280  0.23070  0.70750  Biso   1.000  C
  C14      1.0000 0.91410  0.31930  0.74590  Biso   1.000  C
  C15      1.0000 0.41770  0.14990  0.35550  Biso   1.000  C
  C16      1.0000 0.31970  0.18600  0.60640  Biso   1.000  C
  C17      1.0000 0.58000  0.18200  0.19000  Biso   1.000  C
  C18      1.0000 0.30880  0.05470  0.70030  Biso   1.000  C
  C19      1.0000 0.22210  0.11180  0.77860  Biso   1.000  C
  C20      1.0000 0.18350  0.20750  0.76930  Biso   1.000  C
  C21      1.0000 0.23340  0.24590  0.68070  Biso   1.000  C
  C22      1.0000 0.42310  0.35010  0.14450  Biso   1.000  C
  C23      1.0000 0.61210  0.31400  0.89360  Biso   1.000  C
  C24      1.0000 0.45200  0.31800  0.31000  Biso   1.000  C
  C25      1.0000 0.56380  0.44530  0.79970  Biso   1.000  C
  C26      1.0000 0.61250  0.38820  0.72140  Biso   1.000  C
  C27      1.0000 0.66030  0.29250  0.73070  Biso   1.000  C
  C28      1.0000 0.66000  0.25410  0.81930  Biso   1.000  C
  C29      1.0000 0.43240  0.14450  0.14990  Biso   1.000  C
  C30      1.0000 0.49430  0.89360  0.18600  Biso   1.000  C
  C31      1.0000 0.23800  0.31000  0.18200  Biso   1.000  C
  C32      1.0000 0.63650  0.79970  0.05470  Biso   1.000  C
  C33      1.0000 0.66610  0.72140  0.11180  Biso   1.000  C
  C34      1.0000 0.60900  0.73070  0.20750  Biso   1.000  C
  C35      1.0000 0.52070  0.81930  0.24590  Biso   1.000  C
  C36      1.0000 0.22680  0.35550  0.35010  Biso   1.000  C
  C37      1.0000 0.07390  0.60640  0.31400  Biso   1.000  C
  C38      1.0000 0.23000  0.19000  0.31800  Biso   1.000  C
  C39      1.0000 0.99090  0.70030  0.44530  Biso   1.000  C
  C40      1.0000 0.99930  0.77860  0.38820  Biso   1.000  C
  C41      1.0000 0.04720  0.76930  0.29250  Biso   1.000  C
  C42      1.0000 0.08590  0.68070  0.25410  Biso   1.000  C
  C43      1.0000 0.58230  0.85010  0.64450  Biso   1.000  C
  C44      1.0000 0.68030  0.81400  0.39360  Biso   1.000  C
  C45      1.0000 0.42000  0.81800  0.81000  Biso   1.000  C
  C46      1.0000 0.69120  0.94530  0.29970  Biso   1.000  C
  C47      1.0000 0.77790  0.88820  0.22140  Biso   1.000  C
  C48      1.0000 0.81650  0.79250  0.23070  Biso   1.000  C
  C49      1.0000 0.76660  0.75410  0.31930  Biso   1.000  C
  C50      1.0000 0.57690  0.64990  0.85550  Biso   1.000  C
  C51      1.0000 0.38790  0.68600  0.10640  Biso   1.000  C
  C52      1.0000 0.54800  0.68200  0.69000  Biso   1.000  C
  C53      1.0000 0.43620  0.55470  0.20030  Biso   1.000  C
  C54      1.0000 0.38750  0.61180  0.27860  Biso   1.000  C
  C55      1.0000 0.33970  0.70750  0.26930  Biso   1.000  C
  C56      1.0000 0.34000  0.74590  0.18070  Biso   1.000  C
  N1       1.0000 0.44990  0.11350  0.90970  Biso   1.000  N
  N2       1.0000 0.53790  0.91110  0.90550  Biso   1.000  N
  N3       1.0000 0.83410  0.66050  0.85530  Biso   1.000  N
  N4       1.0000 0.97310  0.38650  0.59030  Biso   1.000  N
  N5       1.0000 0.85450  0.58890  0.59450  Biso   1.000  N
  N6       1.0000 0.84990  0.83950  0.64470  Biso   1.000  N
  N7       1.0000 0.35960  0.09030  0.61350  Biso   1.000  N
  N8       1.0000 0.44340  0.09450  0.41110  Biso   1.000  N
  N9       1.0000 0.68940  0.14470  0.16050  Biso   1.000  N
  N10      1.0000 0.56340  0.40970  0.88650  Biso   1.000  N
  N11      1.0000 0.44900  0.40550  0.08890  Biso   1.000  N
  N12      1.0000 0.49460  0.35530  0.33950  Biso   1.000  N
  N13      1.0000 0.55010  0.88650  0.09030  Biso   1.000  N
  N14      1.0000 0.46210  0.08890  0.09450  Biso   1.000  N
  N15      1.0000 0.16590  0.33950  0.14470  Biso   1.000  N
  N16      1.0000 0.02690  0.61350  0.40970  Biso   1.000  N
  N17      1.0000 0.14550  0.41110  0.40550  Biso   1.000  N
  N18      1.0000 0.15010  0.16050  0.35530  Biso   1.000  N
  N19      1.0000 0.64040  0.90970  0.38650  Biso   1.000  N
  N20      1.0000 0.55660  0.90550  0.58890  Biso   1.000  N
  N21      1.0000 0.31060  0.85530  0.83950  Biso   1.000  N
  N22      1.0000 0.43660  0.59030  0.11350  Biso   1.000  N
  N23      1.0000 0.55100  0.59450  0.91110  Biso   1.000  N
  N24      1.0000 0.50540  0.64470  0.66050  Biso   1.000  N
