data_image0
_cell_length_a       18.431
_cell_length_b       18.431
_cell_length_c       40.52
_cell_angle_alpha    90
_cell_angle_beta     90
_cell_angle_gamma    120

_symmetry_space_group_name_H-M    P 1
_symmetry_int_tables_number       1

loop_
  _symmetry_equiv_pos_as_xyz
  'x, y, z'

loop_
  _atom_site_label
  _atom_site_occupancy
  _atom_site_fract_x
  _atom_site_fract_y
  _atom_site_fract_z
  _atom_site_thermal_displace_type
  _atom_site_B_iso_or_equiv
  _atom_site_type_symbol
  Co1      1.0000 0.11626  0.05813  0.75000  Biso   1.000  Co
  Co2      1.0000 0.94187  0.88374  0.75000  Biso   1.000  Co
  Co3      1.0000 0.94187  0.05813  0.75000  Biso   1.000  Co
  Co4      1.0000 0.88374  0.94187  0.25000  Biso   1.000  Co
  Co5      1.0000 0.05813  0.11626  0.25000  Biso   1.000  Co
  Co6      1.0000 0.05813  0.94187  0.25000  Biso   1.000  Co
  Cu1      1.0000 0.47607  0.52393  0.47399  Biso   1.000  Cu
  Cu2      1.0000 0.04786  0.52393  0.47399  Biso   1.000  Cu
  Cu3      1.0000 0.47607  0.95214  0.47399  Biso   1.000  Cu
  Cu4      1.0000 0.52393  0.47607  0.97399  Biso   1.000  Cu
  Cu5      1.0000 0.95214  0.47607  0.97399  Biso   1.000  Cu
  Cu6      1.0000 0.52393  0.04786  0.97399  Biso   1.000  Cu
  Cu7      1.0000 0.95214  0.47607  0.52601  Biso   1.000  Cu
  Cu8      1.0000 0.52393  0.47607  0.52601  Biso   1.000  Cu
  Cu9      1.0000 0.52393  0.04786  0.52601  Biso   1.000  Cu
  Cu10     1.0000 0.04786  0.52393  0.02601  Biso   1.000  Cu
  Cu11     1.0000 0.47607  0.52393  0.02601  Biso   1.000  Cu
  Cu12     1.0000 0.47607  0.95214  0.02601  Biso   1.000  Cu
  H1       1.0000 0.29260  0.36720  0.58260  Biso   1.000  H
  H2       1.0000 0.04360  0.28920  0.61990  Biso   1.000  H
  H3       1.0000 0.01140  0.22340  0.67320  Biso   1.000  H
  H4       1.0000 0.07460  0.70740  0.58260  Biso   1.000  H
  H5       1.0000 0.24560  0.95640  0.61990  Biso   1.000  H
  H6       1.0000 0.21200  0.98860  0.67320  Biso   1.000  H
  H7       1.0000 0.63280  0.92540  0.58260  Biso   1.000  H
  H8       1.0000 0.71080  0.75440  0.61990  Biso   1.000  H
  H9       1.0000 0.77660  0.78800  0.67320  Biso   1.000  H
  H10      1.0000 0.70740  0.63280  0.08260  Biso   1.000  H
  H11      1.0000 0.95640  0.71080  0.11990  Biso   1.000  H
  H12      1.0000 0.98860  0.77660  0.17320  Biso   1.000  H
  H13      1.0000 0.92540  0.29260  0.08260  Biso   1.000  H
  H14      1.0000 0.75440  0.04360  0.11990  Biso   1.000  H
  H15      1.0000 0.78800  0.01140  0.17320  Biso   1.000  H
  H16      1.0000 0.36720  0.07460  0.08260  Biso   1.000  H
  H17      1.0000 0.28920  0.24560  0.11990  Biso   1.000  H
  H18      1.0000 0.22340  0.21200  0.17320  Biso   1.000  H
  H19      1.0000 0.92540  0.63280  0.41740  Biso   1.000  H
  H20      1.0000 0.75440  0.71080  0.38010  Biso   1.000  H
  H21      1.0000 0.78800  0.77660  0.32680  Biso   1.000  H
  H22      1.0000 0.36720  0.29260  0.41740  Biso   1.000  H
  H23      1.0000 0.28920  0.04360  0.38010  Biso   1.000  H
  H24      1.0000 0.22340  0.01140  0.32680  Biso   1.000  H
  H25      1.0000 0.70740  0.07460  0.41740  Biso   1.000  H
  H26      1.0000 0.95640  0.24560  0.38010  Biso   1.000  H
  H27      1.0000 0.98860  0.21200  0.32680  Biso   1.000  H
  H28      1.0000 0.07460  0.36720  0.91740  Biso   1.000  H
  H29      1.0000 0.24560  0.28920  0.88010  Biso   1.000  H
  H30      1.0000 0.21200  0.22340  0.82680  Biso   1.000  H
  H31      1.0000 0.63280  0.70740  0.91740  Biso   1.000  H
  H32      1.0000 0.71080  0.95640  0.88010  Biso   1.000  H
  H33      1.0000 0.77660  0.98860  0.82680  Biso   1.000  H
  H34      1.0000 0.29260  0.92540  0.91740  Biso   1.000  H
  H35      1.0000 0.04360  0.75440  0.88010  Biso   1.000  H
  H36      1.0000 0.01140  0.78800  0.82680  Biso   1.000  H
  H37      1.0000 0.70740  0.63280  0.41740  Biso   1.000  H
  H38      1.0000 0.95640  0.71080  0.38010  Biso   1.000  H
  H39      1.0000 0.98860  0.77660  0.32680  Biso   1.000  H
  H40      1.0000 0.92540  0.29260  0.41740  Biso   1.000  H
  H41      1.0000 0.75440  0.04360  0.38010  Biso   1.000  H
  H42      1.0000 0.78800  0.01140  0.32680  Biso   1.000  H
  H43      1.0000 0.36720  0.07460  0.41740  Biso   1.000  H
  H44      1.0000 0.28920  0.24560  0.38010  Biso   1.000  H
  H45      1.0000 0.22340  0.21200  0.32680  Biso   1.000  H
  H46      1.0000 0.29260  0.36720  0.91740  Biso   1.000  H
  H47      1.0000 0.04360  0.28920  0.88010  Biso   1.000  H
  H48      1.0000 0.01140  0.22340  0.82680  Biso   1.000  H
  H49      1.0000 0.07460  0.70740  0.91740  Biso   1.000  H
  H50      1.0000 0.24560  0.95640  0.88010  Biso   1.000  H
  H51      1.0000 0.21200  0.98860  0.82680  Biso   1.000  H
  H52      1.0000 0.63280  0.92540  0.91740  Biso   1.000  H
  H53      1.0000 0.71080  0.75440  0.88010  Biso   1.000  H
  H54      1.0000 0.77660  0.78800  0.82680  Biso   1.000  H
  H55      1.0000 0.07460  0.36720  0.58260  Biso   1.000  H
  H56      1.0000 0.24560  0.28920  0.61990  Biso   1.000  H
  H57      1.0000 0.21200  0.22340  0.67320  Biso   1.000  H
  H58      1.0000 0.63280  0.70740  0.58260  Biso   1.000  H
  H59      1.0000 0.71080  0.95640  0.61990  Biso   1.000  H
  H60      1.0000 0.77660  0.98860  0.67320  Biso   1.000  H
  H61      1.0000 0.29260  0.92540  0.58260  Biso   1.000  H
  H62      1.0000 0.04360  0.75440  0.61990  Biso   1.000  H
  H63      1.0000 0.01140  0.78800  0.67320  Biso   1.000  H
  H64      1.0000 0.92540  0.63280  0.08260  Biso   1.000  H
  H65      1.0000 0.75440  0.71080  0.11990  Biso   1.000  H
  H66      1.0000 0.78800  0.77660  0.17320  Biso   1.000  H
  H67      1.0000 0.36720  0.29260  0.08260  Biso   1.000  H
  H68      1.0000 0.28920  0.04360  0.11990  Biso   1.000  H
  H69      1.0000 0.22340  0.01140  0.17320  Biso   1.000  H
  H70      1.0000 0.70740  0.07460  0.08260  Biso   1.000  H
  H71      1.0000 0.95640  0.24560  0.11990  Biso   1.000  H
  H72      1.0000 0.98860  0.21200  0.17320  Biso   1.000  H
  H73      1.0000 0.23650  0.47300  0.50860  Biso   1.000  H
  H74      1.0000 0.23650  0.76350  0.50860  Biso   1.000  H
  H75      1.0000 0.52700  0.76350  0.50860  Biso   1.000  H
  H76      1.0000 0.76350  0.52700  0.00860  Biso   1.000  H
  H77      1.0000 0.76350  0.23650  0.00860  Biso   1.000  H
  H78      1.0000 0.47300  0.23650  0.00860  Biso   1.000  H
  H79      1.0000 0.76350  0.52700  0.49140  Biso   1.000  H
  H80      1.0000 0.47300  0.23650  0.49140  Biso   1.000  H
  H81      1.0000 0.76350  0.23650  0.49140  Biso   1.000  H
  H82      1.0000 0.23650  0.47300  0.99140  Biso   1.000  H
  H83      1.0000 0.52700  0.76350  0.99140  Biso   1.000  H
  H84      1.0000 0.23650  0.76350  0.99140  Biso   1.000  H
  C1       1.0000 0.35810  0.44920  0.52660  Biso   1.000  C
  C2       1.0000 0.27780  0.42350  0.54290  Biso   1.000  C
  C3       1.0000 0.25540  0.38040  0.57245  Biso   1.000  C
  C4       1.0000 0.08320  0.28050  0.63060  Biso   1.000  C
  C5       1.0000 0.06050  0.23360  0.66280  Biso   1.000  C
  C6       1.0000 0.09110  0.64190  0.52660  Biso   1.000  C
  C7       1.0000 0.14570  0.72220  0.54290  Biso   1.000  C
  C8       1.0000 0.12500  0.74460  0.57245  Biso   1.000  C
  C9       1.0000 0.19730  0.91680  0.63060  Biso   1.000  C
  C10      1.0000 0.17310  0.93950  0.66280  Biso   1.000  C
  C11      1.0000 0.55080  0.90890  0.52660  Biso   1.000  C
  C12      1.0000 0.57650  0.85430  0.54290  Biso   1.000  C
  C13      1.0000 0.61960  0.87500  0.57245  Biso   1.000  C
  C14      1.0000 0.71950  0.80270  0.63060  Biso   1.000  C
  C15      1.0000 0.76640  0.82690  0.66280  Biso   1.000  C
  C16      1.0000 0.64190  0.55080  0.02660  Biso   1.000  C
  C17      1.0000 0.72220  0.57650  0.04290  Biso   1.000  C
  C18      1.0000 0.74460  0.61960  0.07245  Biso   1.000  C
  C19      1.0000 0.91680  0.71950  0.13060  Biso   1.000  C
  C20      1.0000 0.93950  0.76640  0.16280  Biso   1.000  C
  C21      1.0000 0.90890  0.35810  0.02660  Biso   1.000  C
  C22      1.0000 0.85430  0.27780  0.04290  Biso   1.000  C
  C23      1.0000 0.87500  0.25540  0.07245  Biso   1.000  C
  C24      1.0000 0.80270  0.08320  0.13060  Biso   1.000  C
  C25      1.0000 0.82690  0.06050  0.16280  Biso   1.000  C
  C26      1.0000 0.44920  0.09110  0.02660  Biso   1.000  C
  C27      1.0000 0.42350  0.14570  0.04290  Biso   1.000  C
  C28      1.0000 0.38040  0.12500  0.07245  Biso   1.000  C
  C29      1.0000 0.28050  0.19730  0.13060  Biso   1.000  C
  C30      1.0000 0.23360  0.17310  0.16280  Biso   1.000  C
  C31      1.0000 0.90890  0.55080  0.47340  Biso   1.000  C
  C32      1.0000 0.85430  0.57650  0.45710  Biso   1.000  C
  C33      1.0000 0.87500  0.61960  0.42755  Biso   1.000  C
  C34      1.0000 0.80270  0.71950  0.36940  Biso   1.000  C
  C35      1.0000 0.82690  0.76640  0.33720  Biso   1.000  C
  C36      1.0000 0.44920  0.35810  0.47340  Biso   1.000  C
  C37      1.0000 0.42350  0.27780  0.45710  Biso   1.000  C
  C38      1.0000 0.38040  0.25540  0.42755  Biso   1.000  C
  C39      1.0000 0.28050  0.08320  0.36940  Biso   1.000  C
  C40      1.0000 0.23360  0.06050  0.33720  Biso   1.000  C
  C41      1.0000 0.64190  0.09110  0.47340  Biso   1.000  C
  C42      1.0000 0.72220  0.14570  0.45710  Biso   1.000  C
  C43      1.0000 0.74460  0.12500  0.42755  Biso   1.000  C
  C44      1.0000 0.91680  0.19730  0.36940  Biso   1.000  C
  C45      1.0000 0.93950  0.17310  0.33720  Biso   1.000  C
  C46      1.0000 0.09110  0.44920  0.97340  Biso   1.000  C
  C47      1.0000 0.14570  0.42350  0.95710  Biso   1.000  C
  C48      1.0000 0.12500  0.38040  0.92755  Biso   1.000  C
  C49      1.0000 0.19730  0.28050  0.86940  Biso   1.000  C
  C50      1.0000 0.17310  0.23360  0.83720  Biso   1.000  C
  C51      1.0000 0.55080  0.64190  0.97340  Biso   1.000  C
  C52      1.0000 0.57650  0.72220  0.95710  Biso   1.000  C
  C53      1.0000 0.61960  0.74460  0.92755  Biso   1.000  C
  C54      1.0000 0.71950  0.91680  0.86940  Biso   1.000  C
  C55      1.0000 0.76640  0.93950  0.83720  Biso   1.000  C
  C56      1.0000 0.35810  0.90890  0.97340  Biso   1.000  C
  C57      1.0000 0.27780  0.85430  0.95710  Biso   1.000  C
  C58      1.0000 0.25540  0.87500  0.92755  Biso   1.000  C
  C59      1.0000 0.08320  0.80270  0.86940  Biso   1.000  C
  C60      1.0000 0.06050  0.82690  0.83720  Biso   1.000  C
  C61      1.0000 0.64190  0.55080  0.47340  Biso   1.000  C
  C62      1.0000 0.72220  0.57650  0.45710  Biso   1.000  C
  C63      1.0000 0.74460  0.61960  0.42755  Biso   1.000  C
  C64      1.0000 0.91680  0.71950  0.36940  Biso   1.000  C
  C65      1.0000 0.93950  0.76640  0.33720  Biso   1.000  C
  C66      1.0000 0.90890  0.35810  0.47340  Biso   1.000  C
  C67      1.0000 0.85430  0.27780  0.45710  Biso   1.000  C
  C68      1.0000 0.87500  0.25540  0.42755  Biso   1.000  C
  C69      1.0000 0.80270  0.08320  0.36940  Biso   1.000  C
  C70      1.0000 0.82690  0.06050  0.33720  Biso   1.000  C
  C71      1.0000 0.44920  0.09110  0.47340  Biso   1.000  C
  C72      1.0000 0.42350  0.14570  0.45710  Biso   1.000  C
  C73      1.0000 0.38040  0.12500  0.42755  Biso   1.000  C
  C74      1.0000 0.28050  0.19730  0.36940  Biso   1.000  C
  C75      1.0000 0.23360  0.17310  0.33720  Biso   1.000  C
  C76      1.0000 0.35810  0.44920  0.97340  Biso   1.000  C
  C77      1.0000 0.27780  0.42350  0.95710  Biso   1.000  C
  C78      1.0000 0.25540  0.38040  0.92755  Biso   1.000  C
  C79      1.0000 0.08320  0.28050  0.86940  Biso   1.000  C
  C80      1.0000 0.06050  0.23360  0.83720  Biso   1.000  C
  C81      1.0000 0.09110  0.64190  0.97340  Biso   1.000  C
  C82      1.0000 0.14570  0.72220  0.95710  Biso   1.000  C
  C83      1.0000 0.12500  0.74460  0.92755  Biso   1.000  C
  C84      1.0000 0.19730  0.91680  0.86940  Biso   1.000  C
  C85      1.0000 0.17310  0.93950  0.83720  Biso   1.000  C
  C86      1.0000 0.55080  0.90890  0.97340  Biso   1.000  C
  C87      1.0000 0.57650  0.85430  0.95710  Biso   1.000  C
  C88      1.0000 0.61960  0.87500  0.92755  Biso   1.000  C
  C89      1.0000 0.71950  0.80270  0.86940  Biso   1.000  C
  C90      1.0000 0.76640  0.82690  0.83720  Biso   1.000  C
  C91      1.0000 0.09110  0.44920  0.52660  Biso   1.000  C
  C92      1.0000 0.14570  0.42350  0.54290  Biso   1.000  C
  C93      1.0000 0.12500  0.38040  0.57245  Biso   1.000  C
  C94      1.0000 0.19730  0.28050  0.63060  Biso   1.000  C
  C95      1.0000 0.17310  0.23360  0.66280  Biso   1.000  C
  C96      1.0000 0.55080  0.64190  0.52660  Biso   1.000  C
  C97      1.0000 0.57650  0.72220  0.54290  Biso   1.000  C
  C98      1.0000 0.61960  0.74460  0.57245  Biso   1.000  C
  C99      1.0000 0.71950  0.91680  0.63060  Biso   1.000  C
  C100     1.0000 0.76640  0.93950  0.66280  Biso   1.000  C
  C101     1.0000 0.35810  0.90890  0.52660  Biso   1.000  C
  C102     1.0000 0.27780  0.85430  0.54290  Biso   1.000  C
  C103     1.0000 0.25540  0.87500  0.57245  Biso   1.000  C
  C104     1.0000 0.08320  0.80270  0.63060  Biso   1.000  C
  C105     1.0000 0.06050  0.82690  0.66280  Biso   1.000  C
  C106     1.0000 0.90890  0.55080  0.02660  Biso   1.000  C
  C107     1.0000 0.85430  0.57650  0.04290  Biso   1.000  C
  C108     1.0000 0.87500  0.61960  0.07245  Biso   1.000  C
  C109     1.0000 0.80270  0.71950  0.13060  Biso   1.000  C
  C110     1.0000 0.82690  0.76640  0.16280  Biso   1.000  C
  C111     1.0000 0.44920  0.35810  0.02660  Biso   1.000  C
  C112     1.0000 0.42350  0.27780  0.04290  Biso   1.000  C
  C113     1.0000 0.38040  0.25540  0.07245  Biso   1.000  C
  C114     1.0000 0.28050  0.08320  0.13060  Biso   1.000  C
  C115     1.0000 0.23360  0.06050  0.16280  Biso   1.000  C
  C116     1.0000 0.64190  0.09110  0.02660  Biso   1.000  C
  C117     1.0000 0.72220  0.14570  0.04290  Biso   1.000  C
  C118     1.0000 0.74460  0.12500  0.07245  Biso   1.000  C
  C119     1.0000 0.91680  0.19730  0.13060  Biso   1.000  C
  C120     1.0000 0.93950  0.17310  0.16280  Biso   1.000  C
  C121     1.0000 0.22210  0.44420  0.52860  Biso   1.000  C
  C122     1.0000 0.17800  0.35600  0.58760  Biso   1.000  C
  C123     1.0000 0.15400  0.30800  0.61800  Biso   1.000  C
  C124     1.0000 0.10390  0.20780  0.67600  Biso   1.000  C
  C125     1.0000 0.07680  0.15360  0.70430  Biso   1.000  C
  C126     1.0000 0.22210  0.77790  0.52860  Biso   1.000  C
  C127     1.0000 0.17800  0.82200  0.58760  Biso   1.000  C
  C128     1.0000 0.15400  0.84600  0.61800  Biso   1.000  C
  C129     1.0000 0.10390  0.89610  0.67600  Biso   1.000  C
  C130     1.0000 0.07680  0.92320  0.70430  Biso   1.000  C
  C131     1.0000 0.55580  0.77790  0.52860  Biso   1.000  C
  C132     1.0000 0.64400  0.82200  0.58760  Biso   1.000  C
  C133     1.0000 0.69200  0.84600  0.61800  Biso   1.000  C
  C134     1.0000 0.79220  0.89610  0.67600  Biso   1.000  C
  C135     1.0000 0.84640  0.92320  0.70430  Biso   1.000  C
  C136     1.0000 0.77790  0.55580  0.02860  Biso   1.000  C
  C137     1.0000 0.82200  0.64400  0.08760  Biso   1.000  C
  C138     1.0000 0.84600  0.69200  0.11800  Biso   1.000  C
  C139     1.0000 0.89610  0.79220  0.17600  Biso   1.000  C
  C140     1.0000 0.92320  0.84640  0.20430  Biso   1.000  C
  C141     1.0000 0.77790  0.22210  0.02860  Biso   1.000  C
  C142     1.0000 0.82200  0.17800  0.08760  Biso   1.000  C
  C143     1.0000 0.84600  0.15400  0.11800  Biso   1.000  C
  C144     1.0000 0.89610  0.10390  0.17600  Biso   1.000  C
  C145     1.0000 0.92320  0.07680  0.20430  Biso   1.000  C
  C146     1.0000 0.44420  0.22210  0.02860  Biso   1.000  C
  C147     1.0000 0.35600  0.17800  0.08760  Biso   1.000  C
  C148     1.0000 0.30800  0.15400  0.11800  Biso   1.000  C
  C149     1.0000 0.20780  0.10390  0.17600  Biso   1.000  C
  C150     1.0000 0.15360  0.07680  0.20430  Biso   1.000  C
  C151     1.0000 0.77790  0.55580  0.47140  Biso   1.000  C
  C152     1.0000 0.82200  0.64400  0.41240  Biso   1.000  C
  C153     1.0000 0.84600  0.69200  0.38200  Biso   1.000  C
  C154     1.0000 0.89610  0.79220  0.32400  Biso   1.000  C
  C155     1.0000 0.92320  0.84640  0.29570  Biso   1.000  C
  C156     1.0000 0.44420  0.22210  0.47140  Biso   1.000  C
  C157     1.0000 0.35600  0.17800  0.41240  Biso   1.000  C
  C158     1.0000 0.30800  0.15400  0.38200  Biso   1.000  C
  C159     1.0000 0.20780  0.10390  0.32400  Biso   1.000  C
  C160     1.0000 0.15360  0.07680  0.29570  Biso   1.000  C
  C161     1.0000 0.77790  0.22210  0.47140  Biso   1.000  C
  C162     1.0000 0.82200  0.17800  0.41240  Biso   1.000  C
  C163     1.0000 0.84600  0.15400  0.38200  Biso   1.000  C
  C164     1.0000 0.89610  0.10390  0.32400  Biso   1.000  C
  C165     1.0000 0.92320  0.07680  0.29570  Biso   1.000  C
  C166     1.0000 0.22210  0.44420  0.97140  Biso   1.000  C
  C167     1.0000 0.17800  0.35600  0.91240  Biso   1.000  C
  C168     1.0000 0.15400  0.30800  0.88200  Biso   1.000  C
  C169     1.0000 0.10390  0.20780  0.82400  Biso   1.000  C
  C170     1.0000 0.07680  0.15360  0.79570  Biso   1.000  C
  C171     1.0000 0.55580  0.77790  0.97140  Biso   1.000  C
  C172     1.0000 0.64400  0.82200  0.91240  Biso   1.000  C
  C173     1.0000 0.69200  0.84600  0.88200  Biso   1.000  C
  C174     1.0000 0.79220  0.89610  0.82400  Biso   1.000  C
  C175     1.0000 0.84640  0.92320  0.79570  Biso   1.000  C
  C176     1.0000 0.22210  0.77790  0.97140  Biso   1.000  C
  C177     1.0000 0.17800  0.82200  0.91240  Biso   1.000  C
  C178     1.0000 0.15400  0.84600  0.88200  Biso   1.000  C
  C179     1.0000 0.10390  0.89610  0.82400  Biso   1.000  C
  C180     1.0000 0.07680  0.92320  0.79570  Biso   1.000  C
  O1       1.0000 0.37180  0.48150  0.49767  Biso   1.000  O
  O2       1.0000 0.12220  0.13170  0.71525  Biso   1.000  O
  O3       1.0000 0.41150  0.43790  0.54332  Biso   1.000  O
  O4       1.0000 0.10970  0.62820  0.49767  Biso   1.000  O
  O5       1.0000 0.00950  0.87780  0.71525  Biso   1.000  O
  O6       1.0000 0.02640  0.58850  0.54332  Biso   1.000  O
  O7       1.0000 0.51850  0.89030  0.49767  Biso   1.000  O
  O8       1.0000 0.86830  0.99050  0.71525  Biso   1.000  O
  O9       1.0000 0.56210  0.97360  0.54332  Biso   1.000  O
  O10      1.0000 0.62820  0.51850  0.99767  Biso   1.000  O
  O11      1.0000 0.87780  0.86830  0.21525  Biso   1.000  O
  O12      1.0000 0.58850  0.56210  0.04332  Biso   1.000  O
  O13      1.0000 0.89030  0.37180  0.99767  Biso   1.000  O
  O14      1.0000 0.99050  0.12220  0.21525  Biso   1.000  O
  O15      1.0000 0.97360  0.41150  0.04332  Biso   1.000  O
  O16      1.0000 0.48150  0.10970  0.99767  Biso   1.000  O
  O17      1.0000 0.13170  0.00950  0.21525  Biso   1.000  O
  O18      1.0000 0.43790  0.02640  0.04332  Biso   1.000  O
  O19      1.0000 0.89030  0.51850  0.50233  Biso   1.000  O
  O20      1.0000 0.99050  0.86830  0.28475  Biso   1.000  O
  O21      1.0000 0.97360  0.56210  0.45668  Biso   1.000  O
  O22      1.0000 0.48150  0.37180  0.50233  Biso   1.000  O
  O23      1.0000 0.13170  0.12220  0.28475  Biso   1.000  O
  O24      1.0000 0.43790  0.41150  0.45668  Biso   1.000  O
  O25      1.0000 0.62820  0.10970  0.50233  Biso   1.000  O
  O26      1.0000 0.87780  0.00950  0.28475  Biso   1.000  O
  O27      1.0000 0.58850  0.02640  0.45668  Biso   1.000  O
  O28      1.0000 0.10970  0.48150  0.00233  Biso   1.000  O
  O29      1.0000 0.00950  0.13170  0.78475  Biso   1.000  O
  O30      1.0000 0.02640  0.43790  0.95668  Biso   1.000  O
  O31      1.0000 0.51850  0.62820  0.00233  Biso   1.000  O
  O32      1.0000 0.86830  0.87780  0.78475  Biso   1.000  O
  O33      1.0000 0.56210  0.58850  0.95668  Biso   1.000  O
  O34      1.0000 0.37180  0.89030  0.00233  Biso   1.000  O
  O35      1.0000 0.12220  0.99050  0.78475  Biso   1.000  O
  O36      1.0000 0.41150  0.97360  0.95668  Biso   1.000  O
  O37      1.0000 0.62820  0.51850  0.50233  Biso   1.000  O
  O38      1.0000 0.87780  0.86830  0.28475  Biso   1.000  O
  O39      1.0000 0.58850  0.56210  0.45668  Biso   1.000  O
  O40      1.0000 0.89030  0.37180  0.50233  Biso   1.000  O
  O41      1.0000 0.99050  0.12220  0.28475  Biso   1.000  O
  O42      1.0000 0.97360  0.41150  0.45668  Biso   1.000  O
  O43      1.0000 0.48150  0.10970  0.50233  Biso   1.000  O
  O44      1.0000 0.13170  0.00950  0.28475  Biso   1.000  O
  O45      1.0000 0.43790  0.02640  0.45668  Biso   1.000  O
  O46      1.0000 0.37180  0.48150  0.00233  Biso   1.000  O
  O47      1.0000 0.12220  0.13170  0.78475  Biso   1.000  O
  O48      1.0000 0.41150  0.43790  0.95668  Biso   1.000  O
  O49      1.0000 0.10970  0.62820  0.00233  Biso   1.000  O
  O50      1.0000 0.00950  0.87780  0.78475  Biso   1.000  O
  O51      1.0000 0.02640  0.58850  0.95668  Biso   1.000  O
  O52      1.0000 0.51850  0.89030  0.00233  Biso   1.000  O
  O53      1.0000 0.86830  0.99050  0.78475  Biso   1.000  O
  O54      1.0000 0.56210  0.97360  0.95668  Biso   1.000  O
  O55      1.0000 0.10970  0.48150  0.49767  Biso   1.000  O
  O56      1.0000 0.00950  0.13170  0.71525  Biso   1.000  O
  O57      1.0000 0.02640  0.43790  0.54332  Biso   1.000  O
  O58      1.0000 0.51850  0.62820  0.49767  Biso   1.000  O
  O59      1.0000 0.86830  0.87780  0.71525  Biso   1.000  O
  O60      1.0000 0.56210  0.58850  0.54332  Biso   1.000  O
  O61      1.0000 0.37180  0.89030  0.49767  Biso   1.000  O
  O62      1.0000 0.12220  0.99050  0.71525  Biso   1.000  O
  O63      1.0000 0.41150  0.97360  0.54332  Biso   1.000  O
  O64      1.0000 0.89030  0.51850  0.99767  Biso   1.000  O
  O65      1.0000 0.99050  0.86830  0.21525  Biso   1.000  O
  O66      1.0000 0.97360  0.56210  0.04332  Biso   1.000  O
  O67      1.0000 0.48150  0.37180  0.99767  Biso   1.000  O
  O68      1.0000 0.13170  0.12220  0.21525  Biso   1.000  O
  O69      1.0000 0.43790  0.41150  0.04332  Biso   1.000  O
  O70      1.0000 0.62820  0.10970  0.99767  Biso   1.000  O
  O71      1.0000 0.87780  0.00950  0.21525  Biso   1.000  O
  O72      1.0000 0.58850  0.02640  0.04332  Biso   1.000  O
  O73      1.0000 0.42855  0.57145  0.43340  Biso   1.000  O
  O74      1.0000 0.14290  0.57145  0.43340  Biso   1.000  O
  O75      1.0000 0.42855  0.85710  0.43340  Biso   1.000  O
  O76      1.0000 0.57145  0.42855  0.93340  Biso   1.000  O
  O77      1.0000 0.85710  0.42855  0.93340  Biso   1.000  O
  O78      1.0000 0.57145  0.14290  0.93340  Biso   1.000  O
  O79      1.0000 0.85710  0.42855  0.56660  Biso   1.000  O
  O80      1.0000 0.57145  0.42855  0.56660  Biso   1.000  O
  O81      1.0000 0.57145  0.14290  0.56660  Biso   1.000  O
  O82      1.0000 0.14290  0.57145  0.06660  Biso   1.000  O
  O83      1.0000 0.42855  0.57145  0.06660  Biso   1.000  O
  O84      1.0000 0.42855  0.85710  0.06660  Biso   1.000  O
