data_image0
_cell_length_a       14.8229
_cell_length_b       19.213
_cell_length_c       19.213
_cell_angle_alpha    66.372
_cell_angle_beta     75.0979
_cell_angle_gamma    104.902

_symmetry_space_group_name_H-M    P 1
_symmetry_int_tables_number       1

loop_
  _symmetry_equiv_pos_as_xyz
  'x, y, z'

loop_
  _atom_site_label
  _atom_site_occupancy
  _atom_site_fract_x
  _atom_site_fract_y
  _atom_site_fract_z
  _atom_site_thermal_displace_type
  _atom_site_B_iso_or_equiv
  _atom_site_type_symbol
  Mn1      1.0000 0.92369  0.04235  0.67154  Biso   1.000  Mn
  Mn2      1.0000 0.59523  0.67154  0.28611  Biso   1.000  Mn
  Mn3      1.0000 0.88134  0.28611  0.04235  Biso   1.000  Mn
  Mn4      1.0000 0.07631  0.95765  0.32846  Biso   1.000  Mn
  Mn5      1.0000 0.40477  0.32846  0.71389  Biso   1.000  Mn
  Mn6      1.0000 0.11866  0.71389  0.95765  Biso   1.000  Mn
  Mn7      1.0000 0.00000  0.00000  0.50000  Biso   1.000  Mn
  Mn8      1.0000 0.50000  0.50000  0.50000  Biso   1.000  Mn
  Mn9      1.0000 0.00000  0.50000  0.00000  Biso   1.000  Mn
  H1       1.0000 0.73200  0.63490  0.54900  Biso   1.000  H
  H2       1.0000 0.85500  0.71350  0.58200  Biso   1.000  H
  H3       1.0000 0.59790  0.45330  0.78020  Biso   1.000  H
  H4       1.0000 0.70300  0.52380  0.82310  Biso   1.000  H
  H5       1.0000 0.97140  0.80870  0.81280  Biso   1.000  H
  H6       1.0000 0.84150  0.79320  0.65750  Biso   1.000  H
  H7       1.0000 0.86910  0.58990  0.81630  Biso   1.000  H
  H8       1.0000 0.01140  0.20080  0.64450  Biso   1.000  H
  H9       1.0000 0.98010  0.19880  0.82820  Biso   1.000  H
  H10      1.0000 0.09790  0.22180  0.79720  Biso   1.000  H
  H11      1.0000 0.02390  0.13950  0.80850  Biso   1.000  H
  H12      1.0000 0.28100  0.54900  0.81610  Biso   1.000  H
  H13      1.0000 0.43700  0.58200  0.70450  Biso   1.000  H
  H14      1.0000 0.37810  0.78020  0.76650  Biso   1.000  H
  H15      1.0000 0.52610  0.82310  0.65310  Biso   1.000  H
  H16      1.0000 0.78420  0.81280  0.37850  Biso   1.000  H
  H17      1.0000 0.49900  0.65750  0.54930  Biso   1.000  H
  H18      1.0000 0.68540  0.81630  0.59380  Biso   1.000  H
  H19      1.0000 0.65590  0.64450  0.15470  Biso   1.000  H
  H20      1.0000 0.80830  0.82820  0.97300  Biso   1.000  H
  H21      1.0000 0.89510  0.79720  0.98100  Biso   1.000  H
  H22      1.0000 0.83240  0.80850  0.05200  Biso   1.000  H
  H23      1.0000 0.09710  0.81610  0.63490  Biso   1.000  H
  H24      1.0000 0.14150  0.70450  0.71350  Biso   1.000  H
  H25      1.0000 0.14460  0.76650  0.45330  Biso   1.000  H
  H26      1.0000 0.17920  0.65310  0.52380  Biso   1.000  H
  H27      1.0000 0.16270  0.37850  0.80870  Biso   1.000  H
  H28      1.0000 0.04830  0.54930  0.79320  Biso   1.000  H
  H29      1.0000 0.27920  0.59380  0.58990  Biso   1.000  H
  H30      1.0000 0.81060  0.15470  0.20080  Biso   1.000  H
  H31      1.0000 0.78130  0.97300  0.19880  Biso   1.000  H
  H32      1.0000 0.87610  0.98100  0.22180  Biso   1.000  H
  H33      1.0000 0.88440  0.05200  0.13950  Biso   1.000  H
  H34      1.0000 0.26800  0.36510  0.45100  Biso   1.000  H
  H35      1.0000 0.14500  0.28650  0.41800  Biso   1.000  H
  H36      1.0000 0.40210  0.54670  0.21980  Biso   1.000  H
  H37      1.0000 0.29700  0.47620  0.17690  Biso   1.000  H
  H38      1.0000 0.02860  0.19130  0.18720  Biso   1.000  H
  H39      1.0000 0.15850  0.20680  0.34250  Biso   1.000  H
  H40      1.0000 0.13090  0.41010  0.18370  Biso   1.000  H
  H41      1.0000 0.98860  0.79920  0.35550  Biso   1.000  H
  H42      1.0000 0.01990  0.80120  0.17180  Biso   1.000  H
  H43      1.0000 0.90210  0.77820  0.20280  Biso   1.000  H
  H44      1.0000 0.97610  0.86050  0.19150  Biso   1.000  H
  H45      1.0000 0.71900  0.45100  0.18390  Biso   1.000  H
  H46      1.0000 0.56300  0.41800  0.29550  Biso   1.000  H
  H47      1.0000 0.62190  0.21980  0.23350  Biso   1.000  H
  H48      1.0000 0.47390  0.17690  0.34690  Biso   1.000  H
  H49      1.0000 0.21580  0.18720  0.62150  Biso   1.000  H
  H50      1.0000 0.50100  0.34250  0.45070  Biso   1.000  H
  H51      1.0000 0.31460  0.18370  0.40620  Biso   1.000  H
  H52      1.0000 0.34410  0.35550  0.84530  Biso   1.000  H
  H53      1.0000 0.19170  0.17180  0.02700  Biso   1.000  H
  H54      1.0000 0.10490  0.20280  0.01900  Biso   1.000  H
  H55      1.0000 0.16760  0.19150  0.94800  Biso   1.000  H
  H56      1.0000 0.90290  0.18390  0.36510  Biso   1.000  H
  H57      1.0000 0.85850  0.29550  0.28650  Biso   1.000  H
  H58      1.0000 0.85540  0.23350  0.54670  Biso   1.000  H
  H59      1.0000 0.82080  0.34690  0.47620  Biso   1.000  H
  H60      1.0000 0.83730  0.62150  0.19130  Biso   1.000  H
  H61      1.0000 0.95170  0.45070  0.20680  Biso   1.000  H
  H62      1.0000 0.72080  0.40620  0.41010  Biso   1.000  H
  H63      1.0000 0.18940  0.84530  0.79920  Biso   1.000  H
  H64      1.0000 0.21870  0.02700  0.80120  Biso   1.000  H
  H65      1.0000 0.12390  0.01900  0.77820  Biso   1.000  H
  H66      1.0000 0.11560  0.94800  0.86050  Biso   1.000  H
  C1       1.0000 0.58870  0.48670  0.63780  Biso   1.000  C
  C2       1.0000 0.65860  0.53530  0.66300  Biso   1.000  C
  C3       1.0000 0.72930  0.61320  0.60260  Biso   1.000  C
  C4       1.0000 0.80160  0.66280  0.62250  Biso   1.000  C
  C5       1.0000 0.78380  0.62780  0.70780  Biso   1.000  C
  C6       1.0000 0.64900  0.50570  0.74080  Biso   1.000  C
  C7       1.0000 0.71060  0.54790  0.76800  Biso   1.000  C
  C8       1.0000 0.96730  0.65390  0.88810  Biso   1.000  C
  C9       1.0000 0.92530  0.69010  0.82350  Biso   1.000  C
  C10      1.0000 0.93950  0.77800  0.79230  Biso   1.000  C
  C11      1.0000 0.90530  0.81330  0.73340  Biso   1.000  C
  C12      1.0000 0.86090  0.76810  0.70020  Biso   1.000  C
  C13      1.0000 0.84530  0.68200  0.73290  Biso   1.000  C
  C14      1.0000 0.87910  0.64550  0.79510  Biso   1.000  C
  C15      1.0000 0.99430  0.18010  0.70120  Biso   1.000  C
  C16      1.0000 0.03640  0.19650  0.79230  Biso   1.000  C
  C17      1.0000 0.91440  0.90020  0.70180  Biso   1.000  C
  C18      1.0000 0.22650  0.63780  0.87550  Biso   1.000  C
  C19      1.0000 0.32160  0.66300  0.80170  Biso   1.000  C
  C20      1.0000 0.33190  0.60260  0.78420  Biso   1.000  C
  C21      1.0000 0.42410  0.62250  0.71470  Biso   1.000  C
  C22      1.0000 0.49160  0.70780  0.66440  Biso   1.000  C
  C23      1.0000 0.38980  0.74080  0.75350  Biso   1.000  C
  C24      1.0000 0.47860  0.76800  0.68410  Biso   1.000  C
  C25      1.0000 0.85540  0.88810  0.45800  Biso   1.000  C
  C26      1.0000 0.74880  0.82350  0.48640  Biso   1.000  C
  C27      1.0000 0.73180  0.79230  0.42970  Biso   1.000  C
  C28      1.0000 0.63870  0.73340  0.45330  Biso   1.000  C
  C29      1.0000 0.56110  0.70020  0.53170  Biso   1.000  C
  C30      1.0000 0.57820  0.73290  0.58510  Biso   1.000  C
  C31      1.0000 0.67420  0.79510  0.55940  Biso   1.000  C
  C32      1.0000 0.69550  0.70120  0.11870  Biso   1.000  C
  C33      1.0000 0.82870  0.79230  0.01120  Biso   1.000  C
  C34      1.0000 0.61620  0.70180  0.39800  Biso   1.000  C
  C35      1.0000 0.10200  0.87550  0.48670  Biso   1.000  C
  C36      1.0000 0.12330  0.80170  0.53530  Biso   1.000  C
  C37      1.0000 0.11610  0.78420  0.61320  Biso   1.000  C
  C38      1.0000 0.13880  0.71470  0.66280  Biso   1.000  C
  C39      1.0000 0.15600  0.66440  0.62780  Biso   1.000  C
  C40      1.0000 0.14330  0.75350  0.50570  Biso   1.000  C
  C41      1.0000 0.16270  0.68410  0.54790  Biso   1.000  C
  C42      1.0000 0.31340  0.45800  0.65390  Biso   1.000  C
  C43      1.0000 0.23520  0.48640  0.69010  Biso   1.000  C
  C44      1.0000 0.16150  0.42970  0.77800  Biso   1.000  C
  C45      1.0000 0.09200  0.45330  0.81330  Biso   1.000  C
  C46      1.0000 0.09280  0.53170  0.76810  Biso   1.000  C
  C47      1.0000 0.16330  0.58510  0.68200  Biso   1.000  C
  C48      1.0000 0.23360  0.55940  0.64550  Biso   1.000  C
  C49      1.0000 0.81420  0.11870  0.18010  Biso   1.000  C
  C50      1.0000 0.83990  0.01120  0.19650  Biso   1.000  C
  C51      1.0000 0.01420  0.39800  0.90020  Biso   1.000  C
  C52      1.0000 0.41130  0.51330  0.36220  Biso   1.000  C
  C53      1.0000 0.34140  0.46470  0.33700  Biso   1.000  C
  C54      1.0000 0.27070  0.38680  0.39740  Biso   1.000  C
  C55      1.0000 0.19840  0.33720  0.37750  Biso   1.000  C
  C56      1.0000 0.21620  0.37220  0.29220  Biso   1.000  C
  C57      1.0000 0.35100  0.49430  0.25920  Biso   1.000  C
  C58      1.0000 0.28940  0.45210  0.23200  Biso   1.000  C
  C59      1.0000 0.03270  0.34610  0.11190  Biso   1.000  C
  C60      1.0000 0.07470  0.30990  0.17650  Biso   1.000  C
  C61      1.0000 0.06050  0.22200  0.20770  Biso   1.000  C
  C62      1.0000 0.09470  0.18670  0.26660  Biso   1.000  C
  C63      1.0000 0.13910  0.23190  0.29980  Biso   1.000  C
  C64      1.0000 0.15470  0.31800  0.26710  Biso   1.000  C
  C65      1.0000 0.12090  0.35450  0.20490  Biso   1.000  C
  C66      1.0000 0.00570  0.81990  0.29880  Biso   1.000  C
  C67      1.0000 0.96360  0.80350  0.20770  Biso   1.000  C
  C68      1.0000 0.08560  0.09980  0.29820  Biso   1.000  C
  C69      1.0000 0.77350  0.36220  0.12450  Biso   1.000  C
  C70      1.0000 0.67840  0.33700  0.19830  Biso   1.000  C
  C71      1.0000 0.66810  0.39740  0.21580  Biso   1.000  C
  C72      1.0000 0.57590  0.37750  0.28530  Biso   1.000  C
  C73      1.0000 0.50840  0.29220  0.33560  Biso   1.000  C
  C74      1.0000 0.61020  0.25920  0.24650  Biso   1.000  C
  C75      1.0000 0.52140  0.23200  0.31590  Biso   1.000  C
  C76      1.0000 0.14460  0.11190  0.54200  Biso   1.000  C
  C77      1.0000 0.25120  0.17650  0.51360  Biso   1.000  C
  C78      1.0000 0.26820  0.20770  0.57030  Biso   1.000  C
  C79      1.0000 0.36130  0.26660  0.54670  Biso   1.000  C
  C80      1.0000 0.43890  0.29980  0.46830  Biso   1.000  C
  C81      1.0000 0.42180  0.26710  0.41490  Biso   1.000  C
  C82      1.0000 0.32580  0.20490  0.44060  Biso   1.000  C
  C83      1.0000 0.30450  0.29880  0.88130  Biso   1.000  C
  C84      1.0000 0.17130  0.20770  0.98880  Biso   1.000  C
  C85      1.0000 0.38380  0.29820  0.60200  Biso   1.000  C
  C86      1.0000 0.89800  0.12450  0.51330  Biso   1.000  C
  C87      1.0000 0.87670  0.19830  0.46470  Biso   1.000  C
  C88      1.0000 0.88390  0.21580  0.38680  Biso   1.000  C
  C89      1.0000 0.86120  0.28530  0.33720  Biso   1.000  C
  C90      1.0000 0.84400  0.33560  0.37220  Biso   1.000  C
  C91      1.0000 0.85670  0.24650  0.49430  Biso   1.000  C
  C92      1.0000 0.83730  0.31590  0.45210  Biso   1.000  C
  C93      1.0000 0.68660  0.54200  0.34610  Biso   1.000  C
  C94      1.0000 0.76480  0.51360  0.30990  Biso   1.000  C
  C95      1.0000 0.83850  0.57030  0.22200  Biso   1.000  C
  C96      1.0000 0.90800  0.54670  0.18670  Biso   1.000  C
  C97      1.0000 0.90720  0.46830  0.23190  Biso   1.000  C
  C98      1.0000 0.83670  0.41490  0.31800  Biso   1.000  C
  C99      1.0000 0.76640  0.44060  0.35450  Biso   1.000  C
  C100     1.0000 0.18580  0.88130  0.81990  Biso   1.000  C
  C101     1.0000 0.16010  0.98880  0.80350  Biso   1.000  C
  C102     1.0000 0.98580  0.60200  0.09980  Biso   1.000  C
  N1       1.0000 0.04820  0.23970  0.70920  Biso   1.000  N
  N2       1.0000 0.75740  0.70920  0.05110  Biso   1.000  N
  N3       1.0000 0.80850  0.05110  0.23970  Biso   1.000  N
  N4       1.0000 0.95180  0.76030  0.29080  Biso   1.000  N
  N5       1.0000 0.24260  0.29080  0.94890  Biso   1.000  N
  N6       1.0000 0.19150  0.94890  0.76030  Biso   1.000  N
  O1       1.0000 0.91030  0.94160  0.63460  Biso   1.000  O
  O2       1.0000 0.95690  0.58080  0.91610  Biso   1.000  O
  O3       1.0000 0.58790  0.51900  0.56960  Biso   1.000  O
  O4       1.0000 0.75230  0.97960  0.75600  Biso   1.000  O
  O5       1.0000 0.52700  0.41550  0.69560  Biso   1.000  O
  O6       1.0000 0.93670  0.11520  0.73350  Biso   1.000  O
  O7       1.0000 0.01570  0.70850  0.90280  Biso   1.000  O
  O8       1.0000 0.92200  0.92540  0.75310  Biso   1.000  O
  O9       1.0000 0.54490  0.63460  0.42380  Biso   1.000  O
  O10      1.0000 0.87300  0.91610  0.50310  Biso   1.000  O
  O11      1.0000 0.15750  0.56960  0.91140  Biso   1.000  O
  O12      1.0000 0.50830  0.75600  0.26440  Biso   1.000  O
  O13      1.0000 0.22260  0.69560  0.88890  Biso   1.000  O
  O14      1.0000 0.67020  0.73350  0.15130  Biso   1.000  O
  O15      1.0000 0.91850  0.90280  0.38870  Biso   1.000  O
  O16      1.0000 0.67510  0.75310  0.32150  Biso   1.000  O
  O17      1.0000 0.96870  0.42380  0.94160  Biso   1.000  O
  O18      1.0000 0.37610  0.50310  0.58080  Biso   1.000  O
  O19      1.0000 0.06890  0.91140  0.51900  Biso   1.000  O
  O20      1.0000 0.77270  0.26440  0.97960  Biso   1.000  O
  O21      1.0000 0.11150  0.88890  0.41550  Biso   1.000  O
  O22      1.0000 0.82150  0.15130  0.11520  Biso   1.000  O
  O23      1.0000 0.30720  0.38870  0.70850  Biso   1.000  O
  O24      1.0000 0.99660  0.32150  0.92540  Biso   1.000  O
  O25      1.0000 0.08970  0.05840  0.36540  Biso   1.000  O
  O26      1.0000 0.04310  0.41920  0.08390  Biso   1.000  O
  O27      1.0000 0.41210  0.48100  0.43040  Biso   1.000  O
  O28      1.0000 0.24770  0.02040  0.24400  Biso   1.000  O
  O29      1.0000 0.47300  0.58450  0.30440  Biso   1.000  O
  O30      1.0000 0.06330  0.88480  0.26650  Biso   1.000  O
  O31      1.0000 0.98430  0.29150  0.09720  Biso   1.000  O
  O32      1.0000 0.07800  0.07460  0.24690  Biso   1.000  O
  O33      1.0000 0.45510  0.36540  0.57620  Biso   1.000  O
  O34      1.0000 0.12700  0.08390  0.49690  Biso   1.000  O
  O35      1.0000 0.84250  0.43040  0.08860  Biso   1.000  O
  O36      1.0000 0.49170  0.24400  0.73560  Biso   1.000  O
  O37      1.0000 0.77740  0.30440  0.11110  Biso   1.000  O
  O38      1.0000 0.32980  0.26650  0.84870  Biso   1.000  O
  O39      1.0000 0.08150  0.09720  0.61130  Biso   1.000  O
  O40      1.0000 0.32490  0.24690  0.67850  Biso   1.000  O
  O41      1.0000 0.03130  0.57620  0.05840  Biso   1.000  O
  O42      1.0000 0.62390  0.49690  0.41920  Biso   1.000  O
  O43      1.0000 0.93110  0.08860  0.48100  Biso   1.000  O
  O44      1.0000 0.22730  0.73560  0.02040  Biso   1.000  O
  O45      1.0000 0.88850  0.11110  0.58450  Biso   1.000  O
  O46      1.0000 0.17850  0.84870  0.88480  Biso   1.000  O
  O47      1.0000 0.69280  0.61130  0.29150  Biso   1.000  O
  O48      1.0000 0.00340  0.67850  0.07460  Biso   1.000  O
