data_image0
_cell_length_a       12.147
_cell_length_b       12.147
_cell_length_c       24.744
_cell_angle_alpha    90
_cell_angle_beta     90
_cell_angle_gamma    90

_symmetry_space_group_name_H-M    P 1
_symmetry_int_tables_number       1

loop_
  _symmetry_equiv_pos_as_xyz
  'x, y, z'

loop_
  _atom_site_label
  _atom_site_occupancy
  _atom_site_fract_x
  _atom_site_fract_y
  _atom_site_fract_z
  _atom_site_thermal_displace_type
  _atom_site_B_iso_or_equiv
  _atom_site_type_symbol
  Fe1      1.0000 0.75000  0.75000  0.92112  Biso   1.000  Fe
  Fe2      1.0000 0.25000  0.25000  0.42112  Biso   1.000  Fe
  H1       1.0000 0.58440  0.56900  0.87630  Biso   1.000  H
  H2       1.0000 0.56710  0.43100  0.81460  Biso   1.000  H
  H3       1.0000 0.86040  0.51740  0.75450  Biso   1.000  H
  H4       1.0000 0.87130  0.64940  0.82030  Biso   1.000  H
  H5       1.0000 0.80260  0.41100  0.68320  Biso   1.000  H
  H6       1.0000 0.85490  0.32960  0.72560  Biso   1.000  H
  H7       1.0000 0.81880  0.15900  0.60950  Biso   1.000  H
  H8       1.0000 0.90080  0.17440  0.65810  Biso   1.000  H
  H9       1.0000 0.08960  0.11180  0.49480  Biso   1.000  H
  H10      1.0000 0.96350  0.12110  0.56340  Biso   1.000  H
  H11      1.0000 0.00740  0.44430  0.56460  Biso   1.000  H
  H12      1.0000 0.13010  0.42440  0.49490  Biso   1.000  H
  H13      1.0000 0.53070  0.87470  0.91710  Biso   1.000  H
  H14      1.0000 0.91560  0.93100  0.87630  Biso   1.000  H
  H15      1.0000 0.93290  0.06900  0.81460  Biso   1.000  H
  H16      1.0000 0.63960  0.98260  0.75450  Biso   1.000  H
  H17      1.0000 0.62870  0.85060  0.82030  Biso   1.000  H
  H18      1.0000 0.69740  0.08900  0.68320  Biso   1.000  H
  H19      1.0000 0.64510  0.17040  0.72560  Biso   1.000  H
  H20      1.0000 0.68120  0.34100  0.60950  Biso   1.000  H
  H21      1.0000 0.59920  0.32560  0.65810  Biso   1.000  H
  H22      1.0000 0.41040  0.38820  0.49480  Biso   1.000  H
  H23      1.0000 0.53650  0.37890  0.56340  Biso   1.000  H
  H24      1.0000 0.49260  0.05570  0.56460  Biso   1.000  H
  H25      1.0000 0.36990  0.07560  0.49490  Biso   1.000  H
  H26      1.0000 0.96930  0.62530  0.91710  Biso   1.000  H
  H27      1.0000 0.43100  0.08440  0.37630  Biso   1.000  H
  H28      1.0000 0.56900  0.06710  0.31460  Biso   1.000  H
  H29      1.0000 0.48260  0.36040  0.25450  Biso   1.000  H
  H30      1.0000 0.35060  0.37130  0.32030  Biso   1.000  H
  H31      1.0000 0.58900  0.30260  0.18320  Biso   1.000  H
  H32      1.0000 0.67040  0.35490  0.22560  Biso   1.000  H
  H33      1.0000 0.84100  0.31880  0.10950  Biso   1.000  H
  H34      1.0000 0.82560  0.40080  0.15810  Biso   1.000  H
  H35      1.0000 0.88820  0.58960  0.99480  Biso   1.000  H
  H36      1.0000 0.87890  0.46350  0.06340  Biso   1.000  H
  H37      1.0000 0.55570  0.50740  0.06460  Biso   1.000  H
  H38      1.0000 0.57560  0.63010  0.99490  Biso   1.000  H
  H39      1.0000 0.12530  0.03070  0.41710  Biso   1.000  H
  H40      1.0000 0.06900  0.41560  0.37630  Biso   1.000  H
  H41      1.0000 0.93100  0.43290  0.31460  Biso   1.000  H
  H42      1.0000 0.01740  0.13960  0.25450  Biso   1.000  H
  H43      1.0000 0.14940  0.12870  0.32030  Biso   1.000  H
  H44      1.0000 0.91100  0.19740  0.18320  Biso   1.000  H
  H45      1.0000 0.82960  0.14510  0.22560  Biso   1.000  H
  H46      1.0000 0.65900  0.18120  0.10950  Biso   1.000  H
  H47      1.0000 0.67440  0.09920  0.15810  Biso   1.000  H
  H48      1.0000 0.61180  0.91040  0.99480  Biso   1.000  H
  H49      1.0000 0.62110  0.03650  0.06340  Biso   1.000  H
  H50      1.0000 0.94430  0.99260  0.06460  Biso   1.000  H
  H51      1.0000 0.92440  0.86990  0.99490  Biso   1.000  H
  H52      1.0000 0.37470  0.46930  0.41710  Biso   1.000  H
  C1       1.0000 0.64190  0.55710  0.85212  Biso   1.000  C
  C2       1.0000 0.63030  0.47430  0.81514  Biso   1.000  C
  C3       1.0000 0.71480  0.45600  0.77830  Biso   1.000  C
  C4       1.0000 0.80400  0.52460  0.77972  Biso   1.000  C
  C5       1.0000 0.80920  0.60480  0.81920  Biso   1.000  C
  C6       1.0000 0.78810  0.34780  0.70612  Biso   1.000  C
  C7       1.0000 0.84560  0.21100  0.63622  Biso   1.000  C
  C8       1.0000 0.07180  0.18080  0.50856  Biso   1.000  C
  C9       1.0000 0.99500  0.18530  0.55000  Biso   1.000  C
  C10      1.0000 0.96640  0.28550  0.57077  Biso   1.000  C
  C11      1.0000 0.02070  0.37470  0.55041  Biso   1.000  C
  C12      1.0000 0.09580  0.36180  0.50859  Biso   1.000  C
  C13      1.0000 0.85810  0.94290  0.85212  Biso   1.000  C
  C14      1.0000 0.86970  0.02570  0.81514  Biso   1.000  C
  C15      1.0000 0.78520  0.04400  0.77830  Biso   1.000  C
  C16      1.0000 0.69600  0.97540  0.77972  Biso   1.000  C
  C17      1.0000 0.69080  0.89520  0.81920  Biso   1.000  C
  C18      1.0000 0.71190  0.15220  0.70612  Biso   1.000  C
  C19      1.0000 0.65440  0.28900  0.63622  Biso   1.000  C
  C20      1.0000 0.42820  0.31920  0.50856  Biso   1.000  C
  C21      1.0000 0.50500  0.31470  0.55000  Biso   1.000  C
  C22      1.0000 0.53360  0.21450  0.57077  Biso   1.000  C
  C23      1.0000 0.47930  0.12530  0.55041  Biso   1.000  C
  C24      1.0000 0.40420  0.13820  0.50859  Biso   1.000  C
  C25      1.0000 0.44290  0.14190  0.35212  Biso   1.000  C
  C26      1.0000 0.52570  0.13030  0.31514  Biso   1.000  C
  C27      1.0000 0.54400  0.21480  0.27830  Biso   1.000  C
  C28      1.0000 0.47540  0.30400  0.27972  Biso   1.000  C
  C29      1.0000 0.39520  0.30920  0.31920  Biso   1.000  C
  C30      1.0000 0.65220  0.28810  0.20612  Biso   1.000  C
  C31      1.0000 0.78900  0.34560  0.13622  Biso   1.000  C
  C32      1.0000 0.81920  0.57180  0.00856  Biso   1.000  C
  C33      1.0000 0.81470  0.49500  0.05000  Biso   1.000  C
  C34      1.0000 0.71450  0.46640  0.07077  Biso   1.000  C
  C35      1.0000 0.62530  0.52070  0.05041  Biso   1.000  C
  C36      1.0000 0.63820  0.59580  0.00859  Biso   1.000  C
  C37      1.0000 0.05710  0.35810  0.35212  Biso   1.000  C
  C38      1.0000 0.97430  0.36970  0.31514  Biso   1.000  C
  C39      1.0000 0.95600  0.28520  0.27830  Biso   1.000  C
  C40      1.0000 0.02460  0.19600  0.27972  Biso   1.000  C
  C41      1.0000 0.10480  0.19080  0.31920  Biso   1.000  C
  C42      1.0000 0.84780  0.21190  0.20612  Biso   1.000  C
  C43      1.0000 0.71100  0.15440  0.13622  Biso   1.000  C
  C44      1.0000 0.68080  0.92820  0.00856  Biso   1.000  C
  C45      1.0000 0.68530  0.00500  0.05000  Biso   1.000  C
  C46      1.0000 0.78550  0.03360  0.07077  Biso   1.000  C
  C47      1.0000 0.87470  0.97930  0.05041  Biso   1.000  C
  C48      1.0000 0.86180  0.90420  0.00859  Biso   1.000  C
  C49      1.0000 0.75000  0.25000  0.67220  Biso   1.000  C
  C50      1.0000 0.75000  0.25000  0.17220  Biso   1.000  C
  S1       1.0000 0.55028  0.77796  0.91936  Biso   1.000  S
  S2       1.0000 0.94972  0.72204  0.91936  Biso   1.000  S
  S3       1.0000 0.22204  0.05028  0.41936  Biso   1.000  S
  S4       1.0000 0.27796  0.44972  0.41936  Biso   1.000  S
  N1       1.0000 0.73040  0.62220  0.85590  Biso   1.000  N
  N2       1.0000 0.12120  0.26610  0.48733  Biso   1.000  N
  N3       1.0000 0.76960  0.87780  0.85590  Biso   1.000  N
  N4       1.0000 0.37880  0.23390  0.48733  Biso   1.000  N
  N5       1.0000 0.37780  0.23040  0.35590  Biso   1.000  N
  N6       1.0000 0.73390  0.62120  0.98733  Biso   1.000  N
  N7       1.0000 0.12220  0.26960  0.35590  Biso   1.000  N
  N8       1.0000 0.76610  0.87880  0.98733  Biso   1.000  N
  O1       1.0000 0.89240  0.30340  0.61009  Biso   1.000  O
  O2       1.0000 0.70040  0.37150  0.74310  Biso   1.000  O
  O3       1.0000 0.60760  0.19660  0.61009  Biso   1.000  O
  O4       1.0000 0.79960  0.12850  0.74310  Biso   1.000  O
  O5       1.0000 0.69660  0.39240  0.11009  Biso   1.000  O
  O6       1.0000 0.62850  0.20040  0.24310  Biso   1.000  O
  O7       1.0000 0.80340  0.10760  0.11009  Biso   1.000  O
  O8       1.0000 0.87150  0.29960  0.24310  Biso   1.000  O
  Fe3      1.0000 0.25000  0.25000  0.07888  Biso   1.000  Fe
  Fe4      1.0000 0.75000  0.75000  0.57888  Biso   1.000  Fe
  H53      1.0000 0.41560  0.43100  0.12370  Biso   1.000  H
  H54      1.0000 0.43290  0.56900  0.18540  Biso   1.000  H
  H55      1.0000 0.13960  0.48260  0.24550  Biso   1.000  H
  H56      1.0000 0.12870  0.35060  0.17970  Biso   1.000  H
  H57      1.0000 0.19740  0.58900  0.31680  Biso   1.000  H
  H58      1.0000 0.14510  0.67040  0.27440  Biso   1.000  H
  H59      1.0000 0.18120  0.84100  0.39050  Biso   1.000  H
  H60      1.0000 0.09920  0.82560  0.34190  Biso   1.000  H
  H61      1.0000 0.91040  0.88820  0.50520  Biso   1.000  H
  H62      1.0000 0.03650  0.87890  0.43660  Biso   1.000  H
  H63      1.0000 0.99260  0.55570  0.43540  Biso   1.000  H
  H64      1.0000 0.86990  0.57560  0.50510  Biso   1.000  H
  H65      1.0000 0.46930  0.12530  0.08290  Biso   1.000  H
  H66      1.0000 0.08440  0.06900  0.12370  Biso   1.000  H
  H67      1.0000 0.06710  0.93100  0.18540  Biso   1.000  H
  H68      1.0000 0.36040  0.01740  0.24550  Biso   1.000  H
  H69      1.0000 0.37130  0.14940  0.17970  Biso   1.000  H
  H70      1.0000 0.30260  0.91100  0.31680  Biso   1.000  H
  H71      1.0000 0.35490  0.82960  0.27440  Biso   1.000  H
  H72      1.0000 0.31880  0.65900  0.39050  Biso   1.000  H
  H73      1.0000 0.40080  0.67440  0.34190  Biso   1.000  H
  H74      1.0000 0.58960  0.61180  0.50520  Biso   1.000  H
  H75      1.0000 0.46350  0.62110  0.43660  Biso   1.000  H
  H76      1.0000 0.50740  0.94430  0.43540  Biso   1.000  H
  H77      1.0000 0.63010  0.92440  0.50510  Biso   1.000  H
  H78      1.0000 0.03070  0.37470  0.08290  Biso   1.000  H
  H79      1.0000 0.56900  0.91560  0.62370  Biso   1.000  H
  H80      1.0000 0.43100  0.93290  0.68540  Biso   1.000  H
  H81      1.0000 0.51740  0.63960  0.74550  Biso   1.000  H
  H82      1.0000 0.64940  0.62870  0.67970  Biso   1.000  H
  H83      1.0000 0.41100  0.69740  0.81680  Biso   1.000  H
  H84      1.0000 0.32960  0.64510  0.77440  Biso   1.000  H
  H85      1.0000 0.15900  0.68120  0.89050  Biso   1.000  H
  H86      1.0000 0.17440  0.59920  0.84190  Biso   1.000  H
  H87      1.0000 0.11180  0.41040  0.00520  Biso   1.000  H
  H88      1.0000 0.12110  0.53650  0.93660  Biso   1.000  H
  H89      1.0000 0.44430  0.49260  0.93540  Biso   1.000  H
  H90      1.0000 0.42440  0.36990  0.00510  Biso   1.000  H
  H91      1.0000 0.87470  0.96930  0.58290  Biso   1.000  H
  H92      1.0000 0.93100  0.58440  0.62370  Biso   1.000  H
  H93      1.0000 0.06900  0.56710  0.68540  Biso   1.000  H
  H94      1.0000 0.98260  0.86040  0.74550  Biso   1.000  H
  H95      1.0000 0.85060  0.87130  0.67970  Biso   1.000  H
  H96      1.0000 0.08900  0.80260  0.81680  Biso   1.000  H
  H97      1.0000 0.17040  0.85490  0.77440  Biso   1.000  H
  H98      1.0000 0.34100  0.81880  0.89050  Biso   1.000  H
  H99      1.0000 0.32560  0.90080  0.84190  Biso   1.000  H
  H100     1.0000 0.38820  0.08960  0.00520  Biso   1.000  H
  H101     1.0000 0.37890  0.96350  0.93660  Biso   1.000  H
  H102     1.0000 0.05570  0.00740  0.93540  Biso   1.000  H
  H103     1.0000 0.07560  0.13010  0.00510  Biso   1.000  H
  H104     1.0000 0.62530  0.53070  0.58290  Biso   1.000  H
  C51      1.0000 0.35810  0.44290  0.14788  Biso   1.000  C
  C52      1.0000 0.36970  0.52570  0.18486  Biso   1.000  C
  C53      1.0000 0.28520  0.54400  0.22170  Biso   1.000  C
  C54      1.0000 0.19600  0.47540  0.22028  Biso   1.000  C
  C55      1.0000 0.19080  0.39520  0.18080  Biso   1.000  C
  C56      1.0000 0.21190  0.65220  0.29388  Biso   1.000  C
  C57      1.0000 0.15440  0.78900  0.36378  Biso   1.000  C
  C58      1.0000 0.92820  0.81920  0.49144  Biso   1.000  C
  C59      1.0000 0.00500  0.81470  0.45000  Biso   1.000  C
  C60      1.0000 0.03360  0.71450  0.42923  Biso   1.000  C
  C61      1.0000 0.97930  0.62530  0.44959  Biso   1.000  C
  C62      1.0000 0.90420  0.63820  0.49141  Biso   1.000  C
  C63      1.0000 0.14190  0.05710  0.14788  Biso   1.000  C
  C64      1.0000 0.13030  0.97430  0.18486  Biso   1.000  C
  C65      1.0000 0.21480  0.95600  0.22170  Biso   1.000  C
  C66      1.0000 0.30400  0.02460  0.22028  Biso   1.000  C
  C67      1.0000 0.30920  0.10480  0.18080  Biso   1.000  C
  C68      1.0000 0.28810  0.84780  0.29388  Biso   1.000  C
  C69      1.0000 0.34560  0.71100  0.36378  Biso   1.000  C
  C70      1.0000 0.57180  0.68080  0.49144  Biso   1.000  C
  C71      1.0000 0.49500  0.68530  0.45000  Biso   1.000  C
  C72      1.0000 0.46640  0.78550  0.42923  Biso   1.000  C
  C73      1.0000 0.52070  0.87470  0.44959  Biso   1.000  C
  C74      1.0000 0.59580  0.86180  0.49141  Biso   1.000  C
  C75      1.0000 0.55710  0.85810  0.64788  Biso   1.000  C
  C76      1.0000 0.47430  0.86970  0.68486  Biso   1.000  C
  C77      1.0000 0.45600  0.78520  0.72170  Biso   1.000  C
  C78      1.0000 0.52460  0.69600  0.72028  Biso   1.000  C
  C79      1.0000 0.60480  0.69080  0.68080  Biso   1.000  C
  C80      1.0000 0.34780  0.71190  0.79388  Biso   1.000  C
  C81      1.0000 0.21100  0.65440  0.86378  Biso   1.000  C
  C82      1.0000 0.18080  0.42820  0.99144  Biso   1.000  C
  C83      1.0000 0.18530  0.50500  0.95000  Biso   1.000  C
  C84      1.0000 0.28550  0.53360  0.92923  Biso   1.000  C
  C85      1.0000 0.37470  0.47930  0.94959  Biso   1.000  C
  C86      1.0000 0.36180  0.40420  0.99141  Biso   1.000  C
  C87      1.0000 0.94290  0.64190  0.64788  Biso   1.000  C
  C88      1.0000 0.02570  0.63030  0.68486  Biso   1.000  C
  C89      1.0000 0.04400  0.71480  0.72170  Biso   1.000  C
  C90      1.0000 0.97540  0.80400  0.72028  Biso   1.000  C
  C91      1.0000 0.89520  0.80920  0.68080  Biso   1.000  C
  C92      1.0000 0.15220  0.78810  0.79388  Biso   1.000  C
  C93      1.0000 0.28900  0.84560  0.86378  Biso   1.000  C
  C94      1.0000 0.31920  0.07180  0.99144  Biso   1.000  C
  C95      1.0000 0.31470  0.99500  0.95000  Biso   1.000  C
  C96      1.0000 0.21450  0.96640  0.92923  Biso   1.000  C
  C97      1.0000 0.12530  0.02070  0.94959  Biso   1.000  C
  C98      1.0000 0.13820  0.09580  0.99141  Biso   1.000  C
  C99      1.0000 0.25000  0.75000  0.32780  Biso   1.000  C
  C100     1.0000 0.25000  0.75000  0.82780  Biso   1.000  C
  S5       1.0000 0.44972  0.22204  0.08064  Biso   1.000  S
  S6       1.0000 0.05028  0.27796  0.08064  Biso   1.000  S
  S7       1.0000 0.77796  0.94972  0.58064  Biso   1.000  S
  S8       1.0000 0.72204  0.55028  0.58064  Biso   1.000  S
  N9       1.0000 0.26960  0.37780  0.14410  Biso   1.000  N
  N10      1.0000 0.87880  0.73390  0.51267  Biso   1.000  N
  N11      1.0000 0.23040  0.12220  0.14410  Biso   1.000  N
  N12      1.0000 0.62120  0.76610  0.51267  Biso   1.000  N
  N13      1.0000 0.62220  0.76960  0.64410  Biso   1.000  N
  N14      1.0000 0.26610  0.37880  0.01267  Biso   1.000  N
  N15      1.0000 0.87780  0.73040  0.64410  Biso   1.000  N
  N16      1.0000 0.23390  0.12120  0.01267  Biso   1.000  N
  O9       1.0000 0.10760  0.69660  0.38991  Biso   1.000  O
  O10      1.0000 0.29960  0.62850  0.25690  Biso   1.000  O
  O11      1.0000 0.39240  0.80340  0.38991  Biso   1.000  O
  O12      1.0000 0.20040  0.87150  0.25690  Biso   1.000  O
  O13      1.0000 0.30340  0.60760  0.88991  Biso   1.000  O
  O14      1.0000 0.37150  0.79960  0.75690  Biso   1.000  O
  O15      1.0000 0.19660  0.89240  0.88991  Biso   1.000  O
  O16      1.0000 0.12850  0.70040  0.75690  Biso   1.000  O
